MODEL 1
REMARK VINA RESULT:      -9.6      0.000      0.000
REMARK  Name = 
REMARK  5 active torsions:
REMARK  status: ('A' for Active; 'I' for Inactive)
REMARK    1  A    between atoms: C_1  and  C_2
REMARK    2  A    between atoms: C_5  and  C_6
REMARK    3  A    between atoms: C_9  and  C_10
REMARK    4  A    between atoms: N_12  and  C_13
REMARK    5  A    between atoms: C_17  and  N_18
REMARK                            x       y       z     vdW  Elec       q    Type
REMARK                         _______ _______ _______ _____ _____    ______ ____
ROOT
ATOM      1  C   UNL     1       1.687   7.555  20.225  0.00  0.00    +0.000 C 
ATOM      2  O   UNL     1       2.360   7.773  19.222  0.00  0.00    +0.000 OA
ATOM      3  N   UNL     1       1.590   6.346  20.889  0.00  0.00    +0.000 N 
ATOM      4  H   UNL     1       0.949   6.264  21.667  0.00  0.00    +0.000 HD
ENDROOT
BRANCH   1   8
ATOM      5  C   UNL     1      -0.380  10.883  22.013  0.00  0.00    +0.000 A 
ATOM      6  C   UNL     1      -0.151  10.879  20.625  0.00  0.00    +0.000 A 
ATOM      7  C   UNL     1       0.494   9.798  20.001  0.00  0.00    +0.000 A 
ATOM      8  C   UNL     1       0.911   8.704  20.766  0.00  0.00    +0.000 A 
ATOM      9  C   UNL     1       0.662   8.693  22.145  0.00  0.00    +0.000 A 
ATOM     10  C   UNL     1       0.022   9.767  22.759  0.00  0.00    +0.000 A 
BRANCH   5  15
ATOM     11  C   UNL     1      -1.305  15.240  24.069  0.00  0.00    +0.000 C 
ATOM     12  C   UNL     1      -1.449  13.851  23.597  0.00  0.00    +0.000 A 
ATOM     13  N   UNL     1      -2.616  13.194  23.606  0.00  0.00    +0.000 NA
ATOM     14  O   UNL     1      -2.290  11.966  23.021  0.00  0.00    +0.000 OA
ATOM     15  C   UNL     1      -0.960  12.020  22.719  0.00  0.00    +0.000 A 
ATOM     16  N   UNL     1      -0.394  13.157  23.071  0.00  0.00    +0.000 NA
ENDBRANCH   5  15
ENDBRANCH   1   8
BRANCH   3  17
ATOM     17  C   UNL     1       2.340   5.181  20.587  0.00  0.00    +0.000 A 
ATOM     18  C   UNL     1       2.094   3.938  21.172  0.00  0.00    +0.000 A 
ATOM     19  C   UNL     1       2.880   2.829  20.854  0.00  0.00    +0.000 A 
ATOM     20  C   UNL     1       3.923   2.949  19.941  0.00  0.00    +0.000 A 
ATOM     21  C   UNL     1       4.148   4.168  19.292  0.00  0.00    +0.000 A 
ATOM     22  C   UNL     1       3.357   5.281  19.630  0.00  0.00    +0.000 A 
BRANCH  21  23
ATOM     23  N   UNL     1       5.141   4.277  18.266  0.00  0.00    +0.000 N 
ATOM     24  C   UNL     1       4.693   4.154  16.877  0.00  0.00    +0.000 C 
ATOM     25  C   UNL     1       5.837   3.886  15.912  0.00  0.00    +0.000 C 
ATOM     26  C   UNL     1       6.858   4.993  16.078  0.00  0.00    +0.000 C 
ATOM     27  C   UNL     1       7.410   4.967  17.489  0.00  0.00    +0.000 C 
ATOM     28  C   UNL     1       6.385   4.820  18.599  0.00  0.00    +0.000 C 
ATOM     29  O   UNL     1       6.721   5.134  19.745  0.00  0.00    +0.000 OA
ENDBRANCH  21  23
ENDBRANCH   3  17
TORSDOF 4
ENDMDL
MODEL 2
REMARK VINA RESULT:      -9.4      6.030      8.345
REMARK  Name = 
REMARK  5 active torsions:
REMARK  status: ('A' for Active; 'I' for Inactive)
REMARK    1  A    between atoms: C_1  and  C_2
REMARK    2  A    between atoms: C_5  and  C_6
REMARK    3  A    between atoms: C_9  and  C_10
REMARK    4  A    between atoms: N_12  and  C_13
REMARK    5  A    between atoms: C_17  and  N_18
REMARK                            x       y       z     vdW  Elec       q    Type
REMARK                         _______ _______ _______ _____ _____    ______ ____
ROOT
ATOM      1  C   UNL     1       7.822   7.873  18.035  0.00  0.00    +0.000 C 
ATOM      2  O   UNL     1       8.369   7.011  18.717  0.00  0.00    +0.000 OA
ATOM      3  N   UNL     1       6.814   7.658  17.113  0.00  0.00    +0.000 N 
ATOM      4  H   UNL     1       6.486   8.435  16.556  0.00  0.00    +0.000 HD
ENDROOT
BRANCH   1   8
ATOM      5  C   UNL     1       9.452  11.814  18.631  0.00  0.00    +0.000 A 
ATOM      6  C   UNL     1       8.494  11.609  17.621  0.00  0.00    +0.000 A 
ATOM      7  C   UNL     1       7.918  10.344  17.415  0.00  0.00    +0.000 A 
ATOM      8  C   UNL     1       8.294   9.270  18.228  0.00  0.00    +0.000 A 
ATOM      9  C   UNL     1       9.229   9.477  19.252  0.00  0.00    +0.000 A 
ATOM     10  C   UNL     1       9.796  10.733  19.453  0.00  0.00    +0.000 A 
BRANCH   5  15
ATOM     11  C   UNL     1      10.986  16.470  18.469  0.00  0.00    +0.000 C 
ATOM     12  C   UNL     1      10.845  15.051  18.839  0.00  0.00    +0.000 A 
ATOM     13  N   UNL     1      11.443  14.512  19.909  0.00  0.00    +0.000 NA
ATOM     14  O   UNL     1      10.979  13.193  19.899  0.00  0.00    +0.000 OA
ATOM     15  C   UNL     1      10.145  13.082  18.823  0.00  0.00    +0.000 A 
ATOM     16  N   UNL     1      10.043  14.198  18.129  0.00  0.00    +0.000 NA
ENDBRANCH   5  15
ENDBRANCH   1   8
BRANCH   3  17
ATOM     17  C   UNL     1       6.165   6.418  16.881  0.00  0.00    +0.000 A 
ATOM     18  C   UNL     1       6.464   5.588  15.799  0.00  0.00    +0.000 A 
ATOM     19  C   UNL     1       5.776   4.388  15.606  0.00  0.00    +0.000 A 
ATOM     20  C   UNL     1       4.783   4.000  16.499  0.00  0.00    +0.000 A 
ATOM     21  C   UNL     1       4.511   4.782  17.627  0.00  0.00    +0.000 A 
ATOM     22  C   UNL     1       5.201   5.995  17.803  0.00  0.00    +0.000 A 
BRANCH  21  23
ATOM     23  N   UNL     1       3.574   4.339  18.615  0.00  0.00    +0.000 N 
ATOM     24  C   UNL     1       2.154   4.587  18.359  0.00  0.00    +0.000 C 
ATOM     25  C   UNL     1       1.298   4.450  19.607  0.00  0.00    +0.000 C 
ATOM     26  C   UNL     1       1.532   3.069  20.185  0.00  0.00    +0.000 C 
ATOM     27  C   UNL     1       2.986   2.926  20.587  0.00  0.00    +0.000 C 
ATOM     28  C   UNL     1       4.005   3.417  19.574  0.00  0.00    +0.000 C 
ATOM     29  O   UNL     1       5.169   3.022  19.684  0.00  0.00    +0.000 OA
ENDBRANCH  21  23
ENDBRANCH   3  17
TORSDOF 4
ENDMDL
MODEL 3
REMARK VINA RESULT:      -9.3      0.782      1.291
REMARK  Name = 
REMARK  5 active torsions:
REMARK  status: ('A' for Active; 'I' for Inactive)
REMARK    1  A    between atoms: C_1  and  C_2
REMARK    2  A    between atoms: C_5  and  C_6
REMARK    3  A    between atoms: C_9  and  C_10
REMARK    4  A    between atoms: N_12  and  C_13
REMARK    5  A    between atoms: C_17  and  N_18
REMARK                            x       y       z     vdW  Elec       q    Type
REMARK                         _______ _______ _______ _____ _____    ______ ____
ROOT
ATOM      1  C   UNL     1       1.696   7.528  20.356  0.00  0.00    +0.000 C 
ATOM      2  O   UNL     1       2.186   7.748  19.252  0.00  0.00    +0.000 OA
ATOM      3  N   UNL     1       1.697   6.313  21.016  0.00  0.00    +0.000 N 
ATOM      4  H   UNL     1       1.201   6.231  21.893  0.00  0.00    +0.000 HD
ENDROOT
BRANCH   1   8
ATOM      5  C   UNL     1      -0.381  10.870  22.106  0.00  0.00    +0.000 A 
ATOM      6  C   UNL     1       0.085   9.834  22.938  0.00  0.00    +0.000 A 
ATOM      7  C   UNL     1       0.791   8.742  22.408  0.00  0.00    +0.000 A 
ATOM      8  C   UNL     1       1.044   8.681  21.033  0.00  0.00    +0.000 A 
ATOM      9  C   UNL     1       0.605   9.724  20.206  0.00  0.00    +0.000 A 
ATOM     10  C   UNL     1      -0.095  10.805  20.737  0.00  0.00    +0.000 A 
BRANCH   5  15
ATOM     11  C   UNL     1      -3.837  13.698  24.137  0.00  0.00    +0.000 C 
ATOM     12  C   UNL     1      -2.605  13.253  23.460  0.00  0.00    +0.000 A 
ATOM     13  N   UNL     1      -1.571  14.068  23.216  0.00  0.00    +0.000 NA
ATOM     14  O   UNL     1      -0.628  13.215  22.634  0.00  0.00    +0.000 OA
ATOM     15  C   UNL     1      -1.198  11.974  22.596  0.00  0.00    +0.000 A 
ATOM     16  N   UNL     1      -2.423  11.951  23.079  0.00  0.00    +0.000 NA
ENDBRANCH   5  15
ENDBRANCH   1   8
BRANCH   3  17
ATOM     17  C   UNL     1       2.366   5.142  20.577  0.00  0.00    +0.000 A 
ATOM     18  C   UNL     1       2.017   3.857  20.998  0.00  0.00    +0.000 A 
ATOM     19  C   UNL     1       2.725   2.740  20.552  0.00  0.00    +0.000 A 
ATOM     20  C   UNL     1       3.791   2.894  19.672  0.00  0.00    +0.000 A 
ATOM     21  C   UNL     1       4.119   4.164  19.184  0.00  0.00    +0.000 A 
ATOM     22  C   UNL     1       3.406   5.283  19.651  0.00  0.00    +0.000 A 
BRANCH  21  23
ATOM     23  N   UNL     1       5.137   4.324  18.190  0.00  0.00    +0.000 N 
ATOM     24  C   UNL     1       4.729   4.247  16.786  0.00  0.00    +0.000 C 
ATOM     25  C   UNL     1       5.902   4.030  15.844  0.00  0.00    +0.000 C 
ATOM     26  C   UNL     1       6.902   5.144  16.078  0.00  0.00    +0.000 C 
ATOM     27  C   UNL     1       7.416   5.074  17.502  0.00  0.00    +0.000 C 
ATOM     28  C   UNL     1       6.364   4.872  18.577  0.00  0.00    +0.000 C 
ATOM     29  O   UNL     1       6.664   5.149  19.742  0.00  0.00    +0.000 OA
ENDBRANCH  21  23
ENDBRANCH   3  17
TORSDOF 4
ENDMDL
MODEL 4
REMARK VINA RESULT:      -9.3      5.937      8.061
REMARK  Name = 
REMARK  5 active torsions:
REMARK  status: ('A' for Active; 'I' for Inactive)
REMARK    1  A    between atoms: C_1  and  C_2
REMARK    2  A    between atoms: C_5  and  C_6
REMARK    3  A    between atoms: C_9  and  C_10
REMARK    4  A    between atoms: N_12  and  C_13
REMARK    5  A    between atoms: C_17  and  N_18
REMARK                            x       y       z     vdW  Elec       q    Type
REMARK                         _______ _______ _______ _____ _____    ______ ____
ROOT
ATOM      1  C   UNL     1       7.771   7.714  18.050  0.00  0.00    +0.000 C 
ATOM      2  O   UNL     1       8.256   6.832  18.753  0.00  0.00    +0.000 OA
ATOM      3  N   UNL     1       6.759   7.546  17.123  0.00  0.00    +0.000 N 
ATOM      4  H   UNL     1       6.485   8.332  16.548  0.00  0.00    +0.000 HD
ENDROOT
BRANCH   1   8
ATOM      5  C   UNL     1       9.127  11.774  18.517  0.00  0.00    +0.000 A 
ATOM      6  C   UNL     1       9.671  10.767  19.336  0.00  0.00    +0.000 A 
ATOM      7  C   UNL     1       9.275   9.426  19.194  0.00  0.00    +0.000 A 
ATOM      8  C   UNL     1       8.331   9.081  18.221  0.00  0.00    +0.000 A 
ATOM      9  C   UNL     1       7.808  10.078  17.385  0.00  0.00    +0.000 A 
ATOM     10  C   UNL     1       8.204  11.406  17.530  0.00  0.00    +0.000 A 
BRANCH   5  15
ATOM     11  C   UNL     1      10.111  16.539  17.894  0.00  0.00    +0.000 C 
ATOM     12  C   UNL     1       9.832  15.233  18.518  0.00  0.00    +0.000 A 
ATOM     13  N   UNL     1       9.571  15.087  19.823  0.00  0.00    +0.000 NA
ATOM     14  O   UNL     1       9.309  13.718  19.940  0.00  0.00    +0.000 OA
ATOM     15  C   UNL     1       9.436  13.189  18.688  0.00  0.00    +0.000 A 
ATOM     16  N   UNL     1       9.774  14.082  17.780  0.00  0.00    +0.000 NA
ENDBRANCH   5  15
ENDBRANCH   1   8
BRANCH   3  17
ATOM     17  C   UNL     1       6.033   6.347  16.909  0.00  0.00    +0.000 A 
ATOM     18  C   UNL     1       6.206   5.537  15.785  0.00  0.00    +0.000 A 
ATOM     19  C   UNL     1       5.447   4.378  15.614  0.00  0.00    +0.000 A 
ATOM     20  C   UNL     1       4.505   4.011  16.570  0.00  0.00    +0.000 A 
ATOM     21  C   UNL     1       4.359   4.770  17.737  0.00  0.00    +0.000 A 
ATOM     22  C   UNL     1       5.121   5.942  17.891  0.00  0.00    +0.000 A 
BRANCH  21  23
ATOM     23  N   UNL     1       3.479   4.342  18.781  0.00  0.00    +0.000 N 
ATOM     24  C   UNL     1       2.057   4.661  18.640  0.00  0.00    +0.000 C 
ATOM     25  C   UNL     1       1.292   4.528  19.946  0.00  0.00    +0.000 C 
ATOM     26  C   UNL     1       1.502   3.122  20.470  0.00  0.00    +0.000 C 
ATOM     27  C   UNL     1       2.974   2.903  20.757  0.00  0.00    +0.000 C 
ATOM     28  C   UNL     1       3.936   3.375  19.682  0.00  0.00    +0.000 C 
ATOM     29  O   UNL     1       5.086   2.925  19.693  0.00  0.00    +0.000 OA
ENDBRANCH  21  23
ENDBRANCH   3  17
TORSDOF 4
ENDMDL
MODEL 5
REMARK VINA RESULT:      -9.2      5.990      8.491
REMARK  Name = 
REMARK  5 active torsions:
REMARK  status: ('A' for Active; 'I' for Inactive)
REMARK    1  A    between atoms: C_1  and  C_2
REMARK    2  A    between atoms: C_5  and  C_6
REMARK    3  A    between atoms: C_9  and  C_10
REMARK    4  A    between atoms: N_12  and  C_13
REMARK    5  A    between atoms: C_17  and  N_18
REMARK                            x       y       z     vdW  Elec       q    Type
REMARK                         _______ _______ _______ _____ _____    ______ ____
ROOT
ATOM      1  C   UNL     1       7.856   7.904  18.049  0.00  0.00    +0.000 C 
ATOM      2  O   UNL     1       8.411   7.074  18.764  0.00  0.00    +0.000 OA
ATOM      3  N   UNL     1       6.864   7.641  17.122  0.00  0.00    +0.000 N 
ATOM      4  H   UNL     1       6.527   8.394  16.537  0.00  0.00    +0.000 HD
ENDROOT
BRANCH   1   8
ATOM      5  C   UNL     1       9.403  11.894  18.529  0.00  0.00    +0.000 A 
ATOM      6  C   UNL     1       8.414  11.650  17.558  0.00  0.00    +0.000 A 
ATOM      7  C   UNL     1       7.864  10.368  17.391  0.00  0.00    +0.000 A 
ATOM      8  C   UNL     1       8.298   9.316  18.205  0.00  0.00    +0.000 A 
ATOM      9  C   UNL     1       9.264   9.562  19.191  0.00  0.00    +0.000 A 
ATOM     10  C   UNL     1       9.806  10.834  19.352  0.00  0.00    +0.000 A 
BRANCH   5  15
ATOM     11  C   UNL     1      11.977  15.770  20.084  0.00  0.00    +0.000 C 
ATOM     12  C   UNL     1      11.169  14.865  19.246  0.00  0.00    +0.000 A 
ATOM     13  N   UNL     1      10.944  15.081  17.943  0.00  0.00    +0.000 NA
ATOM     14  O   UNL     1      10.205  13.957  17.561  0.00  0.00    +0.000 OA
ATOM     15  C   UNL     1      10.069  13.183  18.677  0.00  0.00    +0.000 A 
ATOM     16  N   UNL     1      10.633  13.709  19.745  0.00  0.00    +0.000 NA
ENDBRANCH   5  15
ENDBRANCH   1   8
BRANCH   3  17
ATOM     17  C   UNL     1       6.242   6.382  16.920  0.00  0.00    +0.000 A 
ATOM     18  C   UNL     1       6.673   5.460  15.965  0.00  0.00    +0.000 A 
ATOM     19  C   UNL     1       6.008   4.244  15.793  0.00  0.00    +0.000 A 
ATOM     20  C   UNL     1       4.905   3.933  16.581  0.00  0.00    +0.000 A 
ATOM     21  C   UNL     1       4.494   4.812  17.590  0.00  0.00    +0.000 A 
ATOM     22  C   UNL     1       5.164   6.039  17.744  0.00  0.00    +0.000 A 
BRANCH  21  23
ATOM     23  N   UNL     1       3.435   4.454  18.483  0.00  0.00    +0.000 N 
ATOM     24  C   UNL     1       3.382   5.138  19.777  0.00  0.00    +0.000 C 
ATOM     25  C   UNL     1       2.494   4.425  20.784  0.00  0.00    +0.000 C 
ATOM     26  C   UNL     1       1.117   4.276  20.170  0.00  0.00    +0.000 C 
ATOM     27  C   UNL     1       1.206   3.419  18.923  0.00  0.00    +0.000 C 
ATOM     28  C   UNL     1       2.339   3.752  17.970  0.00  0.00    +0.000 C 
ATOM     29  O   UNL     1       2.262   3.340  16.809  0.00  0.00    +0.000 OA
ENDBRANCH  21  23
ENDBRANCH   3  17
TORSDOF 4
ENDMDL
MODEL 6
REMARK VINA RESULT:      -9.1      0.759      1.184
REMARK  Name = 
REMARK  5 active torsions:
REMARK  status: ('A' for Active; 'I' for Inactive)
REMARK    1  A    between atoms: C_1  and  C_2
REMARK    2  A    between atoms: C_5  and  C_6
REMARK    3  A    between atoms: C_9  and  C_10
REMARK    4  A    between atoms: N_12  and  C_13
REMARK    5  A    between atoms: C_17  and  N_18
REMARK                            x       y       z     vdW  Elec       q    Type
REMARK                         _______ _______ _______ _____ _____    ______ ____
ROOT
ATOM      1  C   UNL     1       1.407   7.987  20.461  0.00  0.00    +0.000 C 
ATOM      2  O   UNL     1       1.859   8.290  19.361  0.00  0.00    +0.000 OA
ATOM      3  N   UNL     1       1.459   6.732  21.040  0.00  0.00    +0.000 N 
ATOM      4  H   UNL     1       0.990   6.580  21.923  0.00  0.00    +0.000 HD
ENDROOT
BRANCH   1   8
ATOM      5  C   UNL     1      -0.656  11.198  22.455  0.00  0.00    +0.000 A 
ATOM      6  C   UNL     1      -0.427   9.992  23.144  0.00  0.00    +0.000 A 
ATOM      7  C   UNL     1       0.267   8.932  22.537  0.00  0.00    +0.000 A 
ATOM      8  C   UNL     1       0.746   9.075  21.230  0.00  0.00    +0.000 A 
ATOM      9  C   UNL     1       0.543  10.284  20.551  0.00  0.00    +0.000 A 
ATOM     10  C   UNL     1      -0.146  11.332  21.157  0.00  0.00    +0.000 A 
BRANCH   5  15
ATOM     11  C   UNL     1      -2.386  15.529  23.974  0.00  0.00    +0.000 C 
ATOM     12  C   UNL     1      -2.278  14.094  23.656  0.00  0.00    +0.000 A 
ATOM     13  N   UNL     1      -3.321  13.256  23.695  0.00  0.00    +0.000 NA
ATOM     14  O   UNL     1      -2.769  12.045  23.264  0.00  0.00    +0.000 OA
ATOM     15  C   UNL     1      -1.450  12.289  23.007  0.00  0.00    +0.000 A 
ATOM     16  N   UNL     1      -1.097  13.535  23.250  0.00  0.00    +0.000 NA
ENDBRANCH   5  15
ENDBRANCH   1   8
BRANCH   3  17
ATOM     17  C   UNL     1       2.144   5.610  20.507  0.00  0.00    +0.000 A 
ATOM     18  C   UNL     1       1.757   4.290  20.749  0.00  0.00    +0.000 A 
ATOM     19  C   UNL     1       2.482   3.223  20.218  0.00  0.00    +0.000 A 
ATOM     20  C   UNL     1       3.604   3.462  19.431  0.00  0.00    +0.000 A 
ATOM     21  C   UNL     1       3.974   4.776  19.119  0.00  0.00    +0.000 A 
ATOM     22  C   UNL     1       3.242   5.842  19.671  0.00  0.00    +0.000 A 
BRANCH  21  23
ATOM     23  N   UNL     1       5.054   5.036  18.217  0.00  0.00    +0.000 N 
ATOM     24  C   UNL     1       4.713   5.416  16.845  0.00  0.00    +0.000 C 
ATOM     25  C   UNL     1       5.886   5.280  15.888  0.00  0.00    +0.000 C 
ATOM     26  C   UNL     1       7.032   6.108  16.432  0.00  0.00    +0.000 C 
ATOM     27  C   UNL     1       7.454   5.566  17.782  0.00  0.00    +0.000 C 
ATOM     28  C   UNL     1       6.329   5.249  18.750  0.00  0.00    +0.000 C 
ATOM     29  O   UNL     1       6.608   5.141  19.948  0.00  0.00    +0.000 OA
ENDBRANCH  21  23
ENDBRANCH   3  17
TORSDOF 4
ENDMDL
MODEL 7
REMARK VINA RESULT:      -9.0      1.308      1.897
REMARK  Name = 
REMARK  5 active torsions:
REMARK  status: ('A' for Active; 'I' for Inactive)
REMARK    1  A    between atoms: C_1  and  C_2
REMARK    2  A    between atoms: C_5  and  C_6
REMARK    3  A    between atoms: C_9  and  C_10
REMARK    4  A    between atoms: N_12  and  C_13
REMARK    5  A    between atoms: C_17  and  N_18
REMARK                            x       y       z     vdW  Elec       q    Type
REMARK                         _______ _______ _______ _____ _____    ______ ____
ROOT
ATOM      1  C   UNL     1       1.401   8.002  20.517  0.00  0.00    +0.000 C 
ATOM      2  O   UNL     1       1.965   8.286  19.464  0.00  0.00    +0.000 OA
ATOM      3  N   UNL     1       1.297   6.736  21.065  0.00  0.00    +0.000 N 
ATOM      4  H   UNL     1       0.748   6.610  21.905  0.00  0.00    +0.000 HD
ENDROOT
BRANCH   1   8
ATOM      5  C   UNL     1      -0.523  11.347  22.428  0.00  0.00    +0.000 A 
ATOM      6  C   UNL     1      -0.474  10.108  23.093  0.00  0.00    +0.000 A 
ATOM      7  C   UNL     1       0.170   9.001  22.514  0.00  0.00    +0.000 A 
ATOM      8  C   UNL     1       0.779   9.130  21.262  0.00  0.00    +0.000 A 
ATOM      9  C   UNL     1       0.754  10.370  20.608  0.00  0.00    +0.000 A 
ATOM     10  C   UNL     1       0.115  11.464  21.186  0.00  0.00    +0.000 A 
BRANCH   5  15
ATOM     11  C   UNL     1      -3.930  14.467  24.079  0.00  0.00    +0.000 C 
ATOM     12  C   UNL     1      -2.636  13.880  23.685  0.00  0.00    +0.000 A 
ATOM     13  N   UNL     1      -1.458  14.449  23.971  0.00  0.00    +0.000 NA
ATOM     14  O   UNL     1      -0.534  13.526  23.473  0.00  0.00    +0.000 OA
ATOM     15  C   UNL     1      -1.258  12.496  22.944  0.00  0.00    +0.000 A 
ATOM     16  N   UNL     1      -2.560  12.677  23.036  0.00  0.00    +0.000 NA
ENDBRANCH   5  15
ENDBRANCH   1   8
BRANCH   3  17
ATOM     17  C   UNL     1       1.922   5.569  20.558  0.00  0.00    +0.000 A 
ATOM     18  C   UNL     1       1.389   4.287  20.710  0.00  0.00    +0.000 A 
ATOM     19  C   UNL     1       2.059   3.169  20.210  0.00  0.00    +0.000 A 
ATOM     20  C   UNL     1       3.272   3.320  19.545  0.00  0.00    +0.000 A 
ATOM     21  C   UNL     1       3.794   4.599  19.322  0.00  0.00    +0.000 A 
ATOM     22  C   UNL     1       3.115   5.716  19.842  0.00  0.00    +0.000 A 
BRANCH  21  23
ATOM     23  N   UNL     1       4.979   4.778  18.540  0.00  0.00    +0.000 N 
ATOM     24  C   UNL     1       6.209   5.135  19.249  0.00  0.00    +0.000 C 
ATOM     25  C   UNL     1       7.284   5.682  18.323  0.00  0.00    +0.000 C 
ATOM     26  C   UNL     1       7.538   4.653  17.241  0.00  0.00    +0.000 C 
ATOM     27  C   UNL     1       6.273   4.446  16.432  0.00  0.00    +0.000 C 
ATOM     28  C   UNL     1       4.993   4.285  17.231  0.00  0.00    +0.000 C 
ATOM     29  O   UNL     1       4.017   3.779  16.669  0.00  0.00    +0.000 OA
ENDBRANCH  21  23
ENDBRANCH   3  17
TORSDOF 4
ENDMDL
MODEL 8
REMARK VINA RESULT:      -9.0      5.744      8.113
REMARK  Name = 
REMARK  5 active torsions:
REMARK  status: ('A' for Active; 'I' for Inactive)
REMARK    1  A    between atoms: C_1  and  C_2
REMARK    2  A    between atoms: C_5  and  C_6
REMARK    3  A    between atoms: C_9  and  C_10
REMARK    4  A    between atoms: N_12  and  C_13
REMARK    5  A    between atoms: C_17  and  N_18
REMARK                            x       y       z     vdW  Elec       q    Type
REMARK                         _______ _______ _______ _____ _____    ______ ____
ROOT
ATOM      1  C   UNL     1       7.853   7.803  18.037  0.00  0.00    +0.000 C 
ATOM      2  O   UNL     1       8.297   6.927  18.773  0.00  0.00    +0.000 OA
ATOM      3  N   UNL     1       6.900   7.626  17.050  0.00  0.00    +0.000 N 
ATOM      4  H   UNL     1       6.659   8.408  16.456  0.00  0.00    +0.000 HD
ENDROOT
BRANCH   1   8
ATOM      5  C   UNL     1       9.155  11.871  18.582  0.00  0.00    +0.000 A 
ATOM      6  C   UNL     1       9.696  10.859  19.397  0.00  0.00    +0.000 A 
ATOM      7  C   UNL     1       9.317   9.516  19.230  0.00  0.00    +0.000 A 
ATOM      8  C   UNL     1       8.394   9.174  18.236  0.00  0.00    +0.000 A 
ATOM      9  C   UNL     1       7.874  10.177  17.406  0.00  0.00    +0.000 A 
ATOM     10  C   UNL     1       8.253  11.506  17.575  0.00  0.00    +0.000 A 
BRANCH   5  15
ATOM     11  C   UNL     1       9.540  16.747  18.202  0.00  0.00    +0.000 C 
ATOM     12  C   UNL     1       9.631  15.367  18.712  0.00  0.00    +0.000 A 
ATOM     13  N   UNL     1       9.995  15.073  19.967  0.00  0.00    +0.000 NA
ATOM     14  O   UNL     1       9.875  13.681  20.013  0.00  0.00    +0.000 OA
ATOM     15  C   UNL     1       9.445  13.287  18.778  0.00  0.00    +0.000 A 
ATOM     16  N   UNL     1       9.296  14.290  17.937  0.00  0.00    +0.000 NA
ENDBRANCH   5  15
ENDBRANCH   1   8
BRANCH   3  17
ATOM     17  C   UNL     1       6.195   6.422  16.797  0.00  0.00    +0.000 A 
ATOM     18  C   UNL     1       6.374   5.658  15.643  0.00  0.00    +0.000 A 
ATOM     19  C   UNL     1       5.635   4.492  15.434  0.00  0.00    +0.000 A 
ATOM     20  C   UNL     1       4.708   4.072  16.383  0.00  0.00    +0.000 A 
ATOM     21  C   UNL     1       4.557   4.785  17.578  0.00  0.00    +0.000 A 
ATOM     22  C   UNL     1       5.299   5.964  17.770  0.00  0.00    +0.000 A 
BRANCH  21  23
ATOM     23  N   UNL     1       3.694   4.302  18.612  0.00  0.00    +0.000 N 
ATOM     24  C   UNL     1       4.286   3.447  19.643  0.00  0.00    +0.000 C 
ATOM     25  C   UNL     1       3.244   2.680  20.441  0.00  0.00    +0.000 C 
ATOM     26  C   UNL     1       2.275   3.683  21.032  0.00  0.00    +0.000 C 
ATOM     27  C   UNL     1       1.568   4.425  19.915  0.00  0.00    +0.000 C 
ATOM     28  C   UNL     1       2.452   4.922  18.786  0.00  0.00    +0.000 C 
ATOM     29  O   UNL     1       2.009   5.807  18.048  0.00  0.00    +0.000 OA
ENDBRANCH  21  23
ENDBRANCH   3  17
TORSDOF 4
ENDMDL
MODEL 9
REMARK VINA RESULT:      -8.7      0.738      1.170
REMARK  Name = 
REMARK  5 active torsions:
REMARK  status: ('A' for Active; 'I' for Inactive)
REMARK    1  A    between atoms: C_1  and  C_2
REMARK    2  A    between atoms: C_5  and  C_6
REMARK    3  A    between atoms: C_9  and  C_10
REMARK    4  A    between atoms: N_12  and  C_13
REMARK    5  A    between atoms: C_17  and  N_18
REMARK                            x       y       z     vdW  Elec       q    Type
REMARK                         _______ _______ _______ _____ _____    ______ ____
ROOT
ATOM      1  C   UNL     1       1.609   7.553  20.033  0.00  0.00    +0.000 C 
ATOM      2  O   UNL     1       1.969   7.613  18.861  0.00  0.00    +0.000 OA
ATOM      3  N   UNL     1       1.737   6.455  20.865  0.00  0.00    +0.000 N 
ATOM      4  H   UNL     1       1.340   6.496  21.795  0.00  0.00    +0.000 HD
ENDROOT
BRANCH   1   8
ATOM      5  C   UNL     1      -0.396  11.090  21.452  0.00  0.00    +0.000 A 
ATOM      6  C   UNL     1       0.019  10.114  22.377  0.00  0.00    +0.000 A 
ATOM      7  C   UNL     1       0.701   8.960  21.956  0.00  0.00    +0.000 A 
ATOM      8  C   UNL     1       0.981   8.778  20.598  0.00  0.00    +0.000 A 
ATOM      9  C   UNL     1       0.593   9.761  19.677  0.00  0.00    +0.000 A 
ATOM     10  C   UNL     1      -0.083  10.902  20.100  0.00  0.00    +0.000 A 
BRANCH   5  15
ATOM     11  C   UNL     1      -2.327  15.572  21.949  0.00  0.00    +0.000 C 
ATOM     12  C   UNL     1      -2.090  14.122  22.080  0.00  0.00    +0.000 A 
ATOM     13  N   UNL     1      -2.962  13.288  22.660  0.00  0.00    +0.000 NA
ATOM     14  O   UNL     1      -2.358  12.038  22.497  0.00  0.00    +0.000 OA
ATOM     15  C   UNL     1      -1.187  12.256  21.828  0.00  0.00    +0.000 A 
ATOM     16  N   UNL     1      -0.970  13.528  21.564  0.00  0.00    +0.000 NA
ENDBRANCH   5  15
ENDBRANCH   1   8
BRANCH   3  17
ATOM     17  C   UNL     1       2.408   5.250  20.536  0.00  0.00    +0.000 A 
ATOM     18  C   UNL     1       2.044   4.005  21.052  0.00  0.00    +0.000 A 
ATOM     19  C   UNL     1       2.755   2.853  20.712  0.00  0.00    +0.000 A 
ATOM     20  C   UNL     1       3.840   2.932  19.845  0.00  0.00    +0.000 A 
ATOM     21  C   UNL     1       4.185   4.157  19.263  0.00  0.00    +0.000 A 
ATOM     22  C   UNL     1       3.468   5.312  19.624  0.00  0.00    +0.000 A 
BRANCH  21  23
ATOM     23  N   UNL     1       5.224   4.233  18.282  0.00  0.00    +0.000 N 
ATOM     24  C   UNL     1       4.834   4.121  16.875  0.00  0.00    +0.000 C 
ATOM     25  C   UNL     1       6.010   3.817  15.961  0.00  0.00    +0.000 C 
ATOM     26  C   UNL     1       7.056   4.892  16.171  0.00  0.00    +0.000 C 
ATOM     27  C   UNL     1       7.545   4.851  17.604  0.00  0.00    +0.000 C 
ATOM     28  C   UNL     1       6.469   4.738  18.669  0.00  0.00    +0.000 C 
ATOM     29  O   UNL     1       6.764   5.044  19.828  0.00  0.00    +0.000 OA
ENDBRANCH  21  23
ENDBRANCH   3  17
TORSDOF 4
ENDMDL
