MODEL 1
REMARK VINA RESULT:      -8.8      0.000      0.000
REMARK  Name = 
REMARK  9 active torsions:
REMARK  status: ('A' for Active; 'I' for Inactive)
REMARK    1  A    between atoms: C_1  and  C_2
REMARK    2  A    between atoms: N_4  and  C_5
REMARK    3  A    between atoms: C_5  and  C_6
REMARK    4  A    between atoms: C_12  and  C_13
REMARK    5  A    between atoms: C_14  and  C_15
REMARK    6  A    between atoms: C_15  and  N_16
REMARK    7  A    between atoms: C_17  and  C_19
REMARK    8  A    between atoms: N_23  and  S_24
REMARK    9  A    between atoms: S_24  and  C_27
REMARK                            x       y       z     vdW  Elec       q    Type
REMARK                         _______ _______ _______ _____ _____    ______ ____
ROOT
ATOM      1  N   UNL     1       1.902   6.836  20.353  0.00  0.00    +0.000 N 
ATOM      2  C   UNL     1       2.039   6.178  19.141  0.00  0.00    +0.000 C 
ATOM      3  O   UNL     1       2.519   6.699  18.139  0.00  0.00    +0.000 OA
ATOM      4  H   UNL     1       1.440   6.349  21.108  0.00  0.00    +0.000 HD
ENDROOT
BRANCH   2   5
ATOM      5  C   UNL     1       1.718   4.687  19.230  0.00  0.00    +0.000 C 
ATOM      6  C   UNL     1       1.353   4.168  20.618  0.00  0.00    +0.000 C 
ATOM      7  C   UNL     1       1.268   2.660  20.404  0.00  0.00    +0.000 C 
ATOM      8  C   UNL     1       2.082   2.359  19.139  0.00  0.00    +0.000 C 
ATOM      9  N   UNL     1       2.695   3.660  18.709  0.00  0.00    +0.000 NA
BRANCH   9  10
ATOM     10  S   UNL     1       4.321   3.856  19.258  0.00  0.00    +0.000 S 
ATOM     11  O   UNL     1       4.405   5.096  19.996  0.00  0.00    +0.000 OA
ATOM     12  O   UNL     1       4.743   2.602  19.838  0.00  0.00    +0.000 OA
BRANCH  10  13
ATOM     13  C   UNL     1       5.282   4.104  17.771  0.00  0.00    +0.000 A 
ATOM     14  C   UNL     1       4.660   4.026  16.518  0.00  0.00    +0.000 A 
ATOM     15  C   UNL     1       5.384   4.355  15.367  0.00  0.00    +0.000 A 
ATOM     16  C   UNL     1       6.711   4.769  15.477  0.00  0.00    +0.000 A 
ATOM     17  F   UNL     1       7.389   5.114  14.373  0.00  0.00    +0.000 F 
ATOM     18  C   UNL     1       7.335   4.847  16.716  0.00  0.00    +0.000 A 
ATOM     19  C   UNL     1       6.621   4.510  17.871  0.00  0.00    +0.000 A 
ENDBRANCH  10  13
ENDBRANCH   9  10
ENDBRANCH   2   5
BRANCH   1  20
ATOM     20  C   UNL     1       2.278   8.218  20.558  0.00  0.00    +0.000 C 
BRANCH  20  27
ATOM     21  C   UNL     1      -0.471   8.658  22.354  0.00  0.00    +0.000 C 
ATOM     22  C   UNL     1      -0.053   9.317  21.092  0.00  0.00    +0.000 A 
ATOM     23  N   UNL     1      -0.857  10.250  20.575  0.00  0.00    +0.000 NA
ATOM     24  N   UNL     1      -0.249  10.630  19.433  0.00  0.00    +0.000 N 
ATOM     25  C   UNL     1       0.953   9.997  19.232  0.00  0.00    +0.000 A 
ATOM     26  C   UNL     1       1.831  10.238  18.055  0.00  0.00    +0.000 C 
ATOM     27  C   UNL     1       1.115   9.120  20.299  0.00  0.00    +0.000 A 
BRANCH  24  28
ATOM     28  C   UNL     1      -0.879  11.675  18.631  0.00  0.00    +0.000 C 
BRANCH  28  29
ATOM     29  C   UNL     1      -2.011  11.150  17.783  0.00  0.00    +0.000 A 
ATOM     30  C   UNL     1      -3.294  11.713  17.875  0.00  0.00    +0.000 A 
ATOM     31  C   UNL     1      -4.343  11.229  17.091  0.00  0.00    +0.000 A 
ATOM     32  C   UNL     1      -4.118  10.188  16.194  0.00  0.00    +0.000 A 
ATOM     33  C   UNL     1      -2.844   9.635  16.076  0.00  0.00    +0.000 A 
ATOM     34  C   UNL     1      -1.795  10.113  16.865  0.00  0.00    +0.000 A 
ENDBRANCH  28  29
ENDBRANCH  24  28
ENDBRANCH  20  27
ENDBRANCH   1  20
TORSDOF 7
ENDMDL
MODEL 2
REMARK VINA RESULT:      -8.6      1.136      2.089
REMARK  Name = 
REMARK  9 active torsions:
REMARK  status: ('A' for Active; 'I' for Inactive)
REMARK    1  A    between atoms: C_1  and  C_2
REMARK    2  A    between atoms: N_4  and  C_5
REMARK    3  A    between atoms: C_5  and  C_6
REMARK    4  A    between atoms: C_12  and  C_13
REMARK    5  A    between atoms: C_14  and  C_15
REMARK    6  A    between atoms: C_15  and  N_16
REMARK    7  A    between atoms: C_17  and  C_19
REMARK    8  A    between atoms: N_23  and  S_24
REMARK    9  A    between atoms: S_24  and  C_27
REMARK                            x       y       z     vdW  Elec       q    Type
REMARK                         _______ _______ _______ _____ _____    ______ ____
ROOT
ATOM      1  N   UNL     1       1.907   6.242  20.015  0.00  0.00    +0.000 N 
ATOM      2  C   UNL     1       2.116   4.976  20.540  0.00  0.00    +0.000 C 
ATOM      3  O   UNL     1       2.158   4.740  21.742  0.00  0.00    +0.000 OA
ATOM      4  H   UNL     1       1.949   6.354  19.013  0.00  0.00    +0.000 HD
ENDROOT
BRANCH   2   5
ATOM      5  C   UNL     1       2.091   3.878  19.477  0.00  0.00    +0.000 C 
ATOM      6  C   UNL     1       2.217   2.449  19.995  0.00  0.00    +0.000 C 
ATOM      7  C   UNL     1       2.335   1.632  18.712  0.00  0.00    +0.000 C 
ATOM      8  C   UNL     1       2.808   2.606  17.626  0.00  0.00    +0.000 C 
ATOM      9  N   UNL     1       3.047   3.920  18.308  0.00  0.00    +0.000 NA
BRANCH   9  10
ATOM     10  S   UNL     1       4.703   4.172  18.730  0.00  0.00    +0.000 S 
ATOM     11  O   UNL     1       4.818   5.462  19.373  0.00  0.00    +0.000 OA
ATOM     12  O   UNL     1       5.184   2.967  19.365  0.00  0.00    +0.000 OA
BRANCH  10  13
ATOM     13  C   UNL     1       5.557   4.326  17.166  0.00  0.00    +0.000 A 
ATOM     14  C   UNL     1       4.826   4.342  15.971  0.00  0.00    +0.000 A 
ATOM     15  C   UNL     1       5.484   4.600  14.764  0.00  0.00    +0.000 A 
ATOM     16  C   UNL     1       6.856   4.850  14.761  0.00  0.00    +0.000 A 
ATOM     17  F   UNL     1       7.474   5.127  13.604  0.00  0.00    +0.000 F 
ATOM     18  C   UNL     1       7.588   4.833  15.942  0.00  0.00    +0.000 A 
ATOM     19  C   UNL     1       6.939   4.566  17.153  0.00  0.00    +0.000 A 
ENDBRANCH  10  13
ENDBRANCH   9  10
ENDBRANCH   2   5
BRANCH   1  20
ATOM     20  C   UNL     1       1.751   7.427  20.831  0.00  0.00    +0.000 C 
BRANCH  20  27
ATOM     21  C   UNL     1       2.807   8.236  17.797  0.00  0.00    +0.000 C 
ATOM     22  C   UNL     1       1.821   8.925  18.667  0.00  0.00    +0.000 A 
ATOM     23  N   UNL     1       1.226  10.023  18.195  0.00  0.00    +0.000 NA
ATOM     24  N   UNL     1       0.433  10.440  19.202  0.00  0.00    +0.000 N 
ATOM     25  C   UNL     1       0.468   9.606  20.292  0.00  0.00    +0.000 A 
ATOM     26  C   UNL     1      -0.318   9.829  21.535  0.00  0.00    +0.000 C 
ATOM     27  C   UNL     1       1.376   8.599  19.982  0.00  0.00    +0.000 A 
BRANCH  24  28
ATOM     28  C   UNL     1      -0.386  11.630  18.987  0.00  0.00    +0.000 C 
BRANCH  28  29
ATOM     29  C   UNL     1      -1.792  11.294  18.553  0.00  0.00    +0.000 A 
ATOM     30  C   UNL     1      -2.035  10.207  17.698  0.00  0.00    +0.000 A 
ATOM     31  C   UNL     1      -3.335   9.894  17.296  0.00  0.00    +0.000 A 
ATOM     32  C   UNL     1      -4.407  10.654  17.755  0.00  0.00    +0.000 A 
ATOM     33  C   UNL     1      -4.182  11.722  18.621  0.00  0.00    +0.000 A 
ATOM     34  C   UNL     1      -2.882  12.042  19.020  0.00  0.00    +0.000 A 
ENDBRANCH  28  29
ENDBRANCH  24  28
ENDBRANCH  20  27
ENDBRANCH   1  20
TORSDOF 7
ENDMDL
MODEL 3
REMARK VINA RESULT:      -8.6      0.991      1.227
REMARK  Name = 
REMARK  9 active torsions:
REMARK  status: ('A' for Active; 'I' for Inactive)
REMARK    1  A    between atoms: C_1  and  C_2
REMARK    2  A    between atoms: N_4  and  C_5
REMARK    3  A    between atoms: C_5  and  C_6
REMARK    4  A    between atoms: C_12  and  C_13
REMARK    5  A    between atoms: C_14  and  C_15
REMARK    6  A    between atoms: C_15  and  N_16
REMARK    7  A    between atoms: C_17  and  C_19
REMARK    8  A    between atoms: N_23  and  S_24
REMARK    9  A    between atoms: S_24  and  C_27
REMARK                            x       y       z     vdW  Elec       q    Type
REMARK                         _______ _______ _______ _____ _____    ______ ____
ROOT
ATOM      1  N   UNL     1       1.918   6.575  20.274  0.00  0.00    +0.000 N 
ATOM      2  C   UNL     1       2.104   5.229  20.542  0.00  0.00    +0.000 C 
ATOM      3  O   UNL     1       2.207   4.773  21.676  0.00  0.00    +0.000 OA
ATOM      4  H   UNL     1       1.906   6.870  19.308  0.00  0.00    +0.000 HD
ENDROOT
BRANCH   2   5
ATOM      5  C   UNL     1       1.971   4.348  19.301  0.00  0.00    +0.000 C 
ATOM      6  C   UNL     1       1.803   2.854  19.560  0.00  0.00    +0.000 C 
ATOM      7  C   UNL     1       1.877   2.256  18.159  0.00  0.00    +0.000 C 
ATOM      8  C   UNL     1       2.597   3.292  17.287  0.00  0.00    +0.000 C 
ATOM      9  N   UNL     1       3.009   4.406  18.205  0.00  0.00    +0.000 NA
BRANCH   9  10
ATOM     10  S   UNL     1       4.645   4.270  18.742  0.00  0.00    +0.000 S 
ATOM     11  O   UNL     1       4.949   5.418  19.567  0.00  0.00    +0.000 OA
ATOM     12  O   UNL     1       4.839   2.922  19.224  0.00  0.00    +0.000 OA
BRANCH  10  13
ATOM     13  C   UNL     1       5.632   4.454  17.262  0.00  0.00    +0.000 A 
ATOM     14  C   UNL     1       5.362   3.658  16.141  0.00  0.00    +0.000 A 
ATOM     15  C   UNL     1       6.044   3.900  14.943  0.00  0.00    +0.000 A 
ATOM     16  C   UNL     1       6.976   4.934  14.873  0.00  0.00    +0.000 A 
ATOM     17  F   UNL     1       7.603   5.180  13.714  0.00  0.00    +0.000 F 
ATOM     18  C   UNL     1       7.251   5.725  15.982  0.00  0.00    +0.000 A 
ATOM     19  C   UNL     1       6.581   5.484  17.186  0.00  0.00    +0.000 A 
ENDBRANCH  10  13
ENDBRANCH   9  10
ENDBRANCH   2   5
BRANCH   1  20
ATOM     20  C   UNL     1       1.860   7.593  21.301  0.00  0.00    +0.000 C 
BRANCH  20  27
ATOM     21  C   UNL     1      -0.374   9.340  23.014  0.00  0.00    +0.000 C 
ATOM     22  C   UNL     1       0.069   9.499  21.606  0.00  0.00    +0.000 A 
ATOM     23  N   UNL     1      -0.463  10.491  20.888  0.00  0.00    +0.000 NA
ATOM     24  N   UNL     1       0.088  10.360  19.665  0.00  0.00    +0.000 N 
ATOM     25  C   UNL     1       1.000   9.336  19.596  0.00  0.00    +0.000 A 
ATOM     26  C   UNL     1       1.758   8.980  18.366  0.00  0.00    +0.000 C 
ATOM     27  C   UNL     1       1.011   8.739  20.852  0.00  0.00    +0.000 A 
BRANCH  24  28
ATOM     28  C   UNL     1      -0.279  11.329  18.636  0.00  0.00    +0.000 C 
BRANCH  28  29
ATOM     29  C   UNL     1      -1.639  11.055  18.042  0.00  0.00    +0.000 A 
ATOM     30  C   UNL     1      -2.752  11.823  18.421  0.00  0.00    +0.000 A 
ATOM     31  C   UNL     1      -4.011  11.571  17.873  0.00  0.00    +0.000 A 
ATOM     32  C   UNL     1      -4.169  10.561  16.928  0.00  0.00    +0.000 A 
ATOM     33  C   UNL     1      -3.069   9.805  16.527  0.00  0.00    +0.000 A 
ATOM     34  C   UNL     1      -1.809  10.051  17.079  0.00  0.00    +0.000 A 
ENDBRANCH  28  29
ENDBRANCH  24  28
ENDBRANCH  20  27
ENDBRANCH   1  20
TORSDOF 7
ENDMDL
MODEL 4
REMARK VINA RESULT:      -8.5      0.968      1.079
REMARK  Name = 
REMARK  9 active torsions:
REMARK  status: ('A' for Active; 'I' for Inactive)
REMARK    1  A    between atoms: C_1  and  C_2
REMARK    2  A    between atoms: N_4  and  C_5
REMARK    3  A    between atoms: C_5  and  C_6
REMARK    4  A    between atoms: C_12  and  C_13
REMARK    5  A    between atoms: C_14  and  C_15
REMARK    6  A    between atoms: C_15  and  N_16
REMARK    7  A    between atoms: C_17  and  C_19
REMARK    8  A    between atoms: N_23  and  S_24
REMARK    9  A    between atoms: S_24  and  C_27
REMARK                            x       y       z     vdW  Elec       q    Type
REMARK                         _______ _______ _______ _____ _____    ______ ____
ROOT
ATOM      1  N   UNL     1       1.596   6.597  20.401  0.00  0.00    +0.000 N 
ATOM      2  C   UNL     1       2.195   6.091  19.258  0.00  0.00    +0.000 C 
ATOM      3  O   UNL     1       3.132   6.639  18.687  0.00  0.00    +0.000 OA
ATOM      4  H   UNL     1       0.790   6.112  20.770  0.00  0.00    +0.000 HD
ENDROOT
BRANCH   2   5
ATOM      5  C   UNL     1       1.704   4.690  18.896  0.00  0.00    +0.000 C 
ATOM      6  C   UNL     1       0.911   3.964  19.978  0.00  0.00    +0.000 C 
ATOM      7  C   UNL     1       0.729   2.570  19.386  0.00  0.00    +0.000 C 
ATOM      8  C   UNL     1       1.829   2.405  18.330  0.00  0.00    +0.000 C 
ATOM      9  N   UNL     1       2.673   3.644  18.399  0.00  0.00    +0.000 NA
BRANCH   9  10
ATOM     10  S   UNL     1       4.090   3.443  19.366  0.00  0.00    +0.000 S 
ATOM     11  O   UNL     1       3.867   4.092  20.639  0.00  0.00    +0.000 OA
ATOM     12  O   UNL     1       4.486   2.057  19.285  0.00  0.00    +0.000 OA
BRANCH  10  13
ATOM     13  C   UNL     1       5.351   4.406  18.540  0.00  0.00    +0.000 A 
ATOM     14  C   UNL     1       5.330   4.529  17.144  0.00  0.00    +0.000 A 
ATOM     15  C   UNL     1       6.234   5.392  16.515  0.00  0.00    +0.000 A 
ATOM     16  C   UNL     1       7.137   6.129  17.281  0.00  0.00    +0.000 A 
ATOM     17  F   UNL     1       7.979   6.977  16.674  0.00  0.00    +0.000 F 
ATOM     18  C   UNL     1       7.164   6.009  18.665  0.00  0.00    +0.000 A 
ATOM     19  C   UNL     1       6.271   5.142  19.301  0.00  0.00    +0.000 A 
ENDBRANCH  10  13
ENDBRANCH   9  10
ENDBRANCH   2   5
BRANCH   1  20
ATOM     20  C   UNL     1       1.989   7.842  21.024  0.00  0.00    +0.000 C 
BRANCH  20  27
ATOM     21  C   UNL     1      -0.414   9.178  22.873  0.00  0.00    +0.000 C 
ATOM     22  C   UNL     1       0.007   9.511  21.489  0.00  0.00    +0.000 A 
ATOM     23  N   UNL     1      -0.629  10.503  20.861  0.00  0.00    +0.000 NA
ATOM     24  N   UNL     1      -0.070  10.544  19.635  0.00  0.00    +0.000 N 
ATOM     25  C   UNL     1       0.946   9.633  19.479  0.00  0.00    +0.000 A 
ATOM     26  C   UNL     1       1.734   9.474  18.228  0.00  0.00    +0.000 C 
ATOM     27  C   UNL     1       1.023   8.928  20.676  0.00  0.00    +0.000 A 
BRANCH  24  28
ATOM     28  C   UNL     1      -0.540  11.559  18.696  0.00  0.00    +0.000 C 
BRANCH  28  29
ATOM     29  C   UNL     1      -1.865  11.197  18.069  0.00  0.00    +0.000 A 
ATOM     30  C   UNL     1      -3.053  11.804  18.508  0.00  0.00    +0.000 A 
ATOM     31  C   UNL     1      -4.279  11.471  17.930  0.00  0.00    +0.000 A 
ATOM     32  C   UNL     1      -4.331  10.541  16.895  0.00  0.00    +0.000 A 
ATOM     33  C   UNL     1      -3.157   9.947  16.435  0.00  0.00    +0.000 A 
ATOM     34  C   UNL     1      -1.930  10.273  17.017  0.00  0.00    +0.000 A 
ENDBRANCH  28  29
ENDBRANCH  24  28
ENDBRANCH  20  27
ENDBRANCH   1  20
TORSDOF 7
ENDMDL
MODEL 5
REMARK VINA RESULT:      -8.4      1.266      2.152
REMARK  Name = 
REMARK  9 active torsions:
REMARK  status: ('A' for Active; 'I' for Inactive)
REMARK    1  A    between atoms: C_1  and  C_2
REMARK    2  A    between atoms: N_4  and  C_5
REMARK    3  A    between atoms: C_5  and  C_6
REMARK    4  A    between atoms: C_12  and  C_13
REMARK    5  A    between atoms: C_14  and  C_15
REMARK    6  A    between atoms: C_15  and  N_16
REMARK    7  A    between atoms: C_17  and  C_19
REMARK    8  A    between atoms: N_23  and  S_24
REMARK    9  A    between atoms: S_24  and  C_27
REMARK                            x       y       z     vdW  Elec       q    Type
REMARK                         _______ _______ _______ _____ _____    ______ ____
ROOT
ATOM      1  N   UNL     1       1.915   6.097  20.181  0.00  0.00    +0.000 N 
ATOM      2  C   UNL     1       2.230   4.845  20.684  0.00  0.00    +0.000 C 
ATOM      3  O   UNL     1       2.256   4.584  21.882  0.00  0.00    +0.000 OA
ATOM      4  H   UNL     1       1.977   6.238  19.183  0.00  0.00    +0.000 HD
ENDROOT
BRANCH   2   5
ATOM      5  C   UNL     1       2.346   3.777  19.597  0.00  0.00    +0.000 C 
ATOM      6  C   UNL     1       2.694   2.372  20.080  0.00  0.00    +0.000 C 
ATOM      7  C   UNL     1       2.905   1.609  18.776  0.00  0.00    +0.000 C 
ATOM      8  C   UNL     1       3.205   2.664  17.704  0.00  0.00    +0.000 C 
ATOM      9  N   UNL     1       3.260   3.985  18.413  0.00  0.00    +0.000 NA
BRANCH   9  10
ATOM     10  S   UNL     1       4.869   4.473  18.810  0.00  0.00    +0.000 S 
ATOM     11  O   UNL     1       4.800   5.731  19.518  0.00  0.00    +0.000 OA
ATOM     12  O   UNL     1       5.550   3.328  19.370  0.00  0.00    +0.000 OA
BRANCH  10  13
ATOM     13  C   UNL     1       5.642   4.835  17.239  0.00  0.00    +0.000 A 
ATOM     14  C   UNL     1       6.926   4.347  16.964  0.00  0.00    +0.000 A 
ATOM     15  C   UNL     1       7.469   4.516  15.685  0.00  0.00    +0.000 A 
ATOM     16  C   UNL     1       6.726   5.158  14.696  0.00  0.00    +0.000 A 
ATOM     17  F   UNL     1       7.240   5.289  13.465  0.00  0.00    +0.000 F 
ATOM     18  C   UNL     1       5.452   5.647  14.962  0.00  0.00    +0.000 A 
ATOM     19  C   UNL     1       4.906   5.491  16.240  0.00  0.00    +0.000 A 
ENDBRANCH  10  13
ENDBRANCH   9  10
ENDBRANCH   2   5
BRANCH   1  20
ATOM     20  C   UNL     1       1.617   7.241  21.016  0.00  0.00    +0.000 C 
BRANCH  20  27
ATOM     21  C   UNL     1       2.654   8.010  17.965  0.00  0.00    +0.000 C 
ATOM     22  C   UNL     1       1.711   8.737  18.852  0.00  0.00    +0.000 A 
ATOM     23  N   UNL     1       1.154   9.859  18.391  0.00  0.00    +0.000 NA
ATOM     24  N   UNL     1       0.396  10.307  19.412  0.00  0.00    +0.000 N 
ATOM     25  C   UNL     1       0.415   9.471  20.501  0.00  0.00    +0.000 A 
ATOM     26  C   UNL     1      -0.340   9.725  21.757  0.00  0.00    +0.000 C 
ATOM     27  C   UNL     1       1.276   8.428  20.175  0.00  0.00    +0.000 A 
BRANCH  24  28
ATOM     28  C   UNL     1      -0.377  11.530  19.212  0.00  0.00    +0.000 C 
BRANCH  28  29
ATOM     29  C   UNL     1      -1.782  11.254  18.735  0.00  0.00    +0.000 A 
ATOM     30  C   UNL     1      -2.842  12.098  19.107  0.00  0.00    +0.000 A 
ATOM     31  C   UNL     1      -4.142  11.845  18.666  0.00  0.00    +0.000 A 
ATOM     32  C   UNL     1      -4.397  10.756  17.837  0.00  0.00    +0.000 A 
ATOM     33  C   UNL     1      -3.351   9.923  17.443  0.00  0.00    +0.000 A 
ATOM     34  C   UNL     1      -2.050  10.170  17.888  0.00  0.00    +0.000 A 
ENDBRANCH  28  29
ENDBRANCH  24  28
ENDBRANCH  20  27
ENDBRANCH   1  20
TORSDOF 7
ENDMDL
MODEL 6
REMARK VINA RESULT:      -8.3      1.345      2.486
REMARK  Name = 
REMARK  9 active torsions:
REMARK  status: ('A' for Active; 'I' for Inactive)
REMARK    1  A    between atoms: C_1  and  C_2
REMARK    2  A    between atoms: N_4  and  C_5
REMARK    3  A    between atoms: C_5  and  C_6
REMARK    4  A    between atoms: C_12  and  C_13
REMARK    5  A    between atoms: C_14  and  C_15
REMARK    6  A    between atoms: C_15  and  N_16
REMARK    7  A    between atoms: C_17  and  C_19
REMARK    8  A    between atoms: N_23  and  S_24
REMARK    9  A    between atoms: S_24  and  C_27
REMARK                            x       y       z     vdW  Elec       q    Type
REMARK                         _______ _______ _______ _____ _____    ______ ____
ROOT
ATOM      1  N   UNL     1       1.837   6.741  20.448  0.00  0.00    +0.000 N 
ATOM      2  C   UNL     1       2.047   6.099  19.238  0.00  0.00    +0.000 C 
ATOM      3  O   UNL     1       2.597   6.628  18.278  0.00  0.00    +0.000 OA
ATOM      4  H   UNL     1       1.322   6.249  21.164  0.00  0.00    +0.000 HD
ENDROOT
BRANCH   2   5
ATOM      5  C   UNL     1       1.707   4.610  19.285  0.00  0.00    +0.000 C 
ATOM      6  C   UNL     1       1.338   4.055  20.657  0.00  0.00    +0.000 C 
ATOM      7  C   UNL     1       1.234   2.555  20.399  0.00  0.00    +0.000 C 
ATOM      8  C   UNL     1       2.042   2.281  19.125  0.00  0.00    +0.000 C 
ATOM      9  N   UNL     1       2.670   3.586  18.732  0.00  0.00    +0.000 NA
BRANCH   9  10
ATOM     10  S   UNL     1       4.300   3.745  19.283  0.00  0.00    +0.000 S 
ATOM     11  O   UNL     1       4.368   4.879  20.177  0.00  0.00    +0.000 OA
ATOM     12  O   UNL     1       4.756   2.436  19.689  0.00  0.00    +0.000 OA
BRANCH  10  13
ATOM     13  C   UNL     1       5.234   4.209  17.831  0.00  0.00    +0.000 A 
ATOM     14  C   UNL     1       6.582   4.569  17.955  0.00  0.00    +0.000 A 
ATOM     15  C   UNL     1       7.344   4.797  16.803  0.00  0.00    +0.000 A 
ATOM     16  C   UNL     1       6.759   4.654  15.546  0.00  0.00    +0.000 A 
ATOM     17  F   UNL     1       7.503   4.843  14.447  0.00  0.00    +0.000 F 
ATOM     18  C   UNL     1       5.421   4.299  15.416  0.00  0.00    +0.000 A 
ATOM     19  C   UNL     1       4.651   4.078  16.562  0.00  0.00    +0.000 A 
ENDBRANCH  10  13
ENDBRANCH   9  10
ENDBRANCH   2   5
BRANCH   1  20
ATOM     20  C   UNL     1       2.211   8.116  20.698  0.00  0.00    +0.000 C 
BRANCH  20  27
ATOM     21  C   UNL     1      -0.466   8.828  22.516  0.00  0.00    +0.000 C 
ATOM     22  C   UNL     1      -0.063   9.348  21.185  0.00  0.00    +0.000 A 
ATOM     23  N   UNL     1      -0.850  10.257  20.602  0.00  0.00    +0.000 NA
ATOM     24  N   UNL     1      -0.263  10.504  19.414  0.00  0.00    +0.000 N 
ATOM     25  C   UNL     1       0.910   9.810  19.242  0.00  0.00    +0.000 A 
ATOM     26  C   UNL     1       1.761   9.905  18.025  0.00  0.00    +0.000 C 
ATOM     27  C   UNL     1       1.073   9.032  20.384  0.00  0.00    +0.000 A 
BRANCH  24  28
ATOM     28  C   UNL     1      -0.879  11.491  18.532  0.00  0.00    +0.000 C 
BRANCH  28  29
ATOM     29  C   UNL     1      -0.498  12.906  18.892  0.00  0.00    +0.000 A 
ATOM     30  C   UNL     1      -1.329  13.684  19.715  0.00  0.00    +0.000 A 
ATOM     31  C   UNL     1      -0.978  14.992  20.050  0.00  0.00    +0.000 A 
ATOM     32  C   UNL     1       0.215  15.534  19.581  0.00  0.00    +0.000 A 
ATOM     33  C   UNL     1       1.061  14.767  18.781  0.00  0.00    +0.000 A 
ATOM     34  C   UNL     1       0.708  13.459  18.439  0.00  0.00    +0.000 A 
ENDBRANCH  28  29
ENDBRANCH  24  28
ENDBRANCH  20  27
ENDBRANCH   1  20
TORSDOF 7
ENDMDL
MODEL 7
REMARK VINA RESULT:      -8.2      1.355      2.466
REMARK  Name = 
REMARK  9 active torsions:
REMARK  status: ('A' for Active; 'I' for Inactive)
REMARK    1  A    between atoms: C_1  and  C_2
REMARK    2  A    between atoms: N_4  and  C_5
REMARK    3  A    between atoms: C_5  and  C_6
REMARK    4  A    between atoms: C_12  and  C_13
REMARK    5  A    between atoms: C_14  and  C_15
REMARK    6  A    between atoms: C_15  and  N_16
REMARK    7  A    between atoms: C_17  and  C_19
REMARK    8  A    between atoms: N_23  and  S_24
REMARK    9  A    between atoms: S_24  and  C_27
REMARK                            x       y       z     vdW  Elec       q    Type
REMARK                         _______ _______ _______ _____ _____    ______ ____
ROOT
ATOM      1  N   UNL     1       1.868   6.762  20.462  0.00  0.00    +0.000 N 
ATOM      2  C   UNL     1       2.086   6.138  19.244  0.00  0.00    +0.000 C 
ATOM      3  O   UNL     1       2.635   6.684  18.293  0.00  0.00    +0.000 OA
ATOM      4  H   UNL     1       1.354   6.257  21.169  0.00  0.00    +0.000 HD
ENDROOT
BRANCH   2   5
ATOM      5  C   UNL     1       1.755   4.646  19.269  0.00  0.00    +0.000 C 
ATOM      6  C   UNL     1       1.385   4.071  20.632  0.00  0.00    +0.000 C 
ATOM      7  C   UNL     1       1.291   2.574  20.354  0.00  0.00    +0.000 C 
ATOM      8  C   UNL     1       2.104   2.322  19.079  0.00  0.00    +0.000 C 
ATOM      9  N   UNL     1       2.726   3.636  18.706  0.00  0.00    +0.000 NA
BRANCH   9  10
ATOM     10  S   UNL     1       4.353   3.797  19.265  0.00  0.00    +0.000 S 
ATOM     11  O   UNL     1       4.448   5.016  20.037  0.00  0.00    +0.000 OA
ATOM     12  O   UNL     1       4.759   2.524  19.811  0.00  0.00    +0.000 OA
BRANCH  10  13
ATOM     13  C   UNL     1       5.321   4.076  17.788  0.00  0.00    +0.000 A 
ATOM     14  C   UNL     1       4.721   3.955  16.527  0.00  0.00    +0.000 A 
ATOM     15  C   UNL     1       5.445   4.307  15.383  0.00  0.00    +0.000 A 
ATOM     16  C   UNL     1       6.749   4.784  15.506  0.00  0.00    +0.000 A 
ATOM     17  F   UNL     1       7.425   5.149  14.407  0.00  0.00    +0.000 F 
ATOM     18  C   UNL     1       7.351   4.904  16.753  0.00  0.00    +0.000 A 
ATOM     19  C   UNL     1       6.638   4.546  17.902  0.00  0.00    +0.000 A 
ENDBRANCH  10  13
ENDBRANCH   9  10
ENDBRANCH   2   5
BRANCH   1  20
ATOM     20  C   UNL     1       2.233   8.136  20.731  0.00  0.00    +0.000 C 
BRANCH  20  27
ATOM     21  C   UNL     1      -0.441   8.844  22.555  0.00  0.00    +0.000 C 
ATOM     22  C   UNL     1      -0.042   9.365  21.223  0.00  0.00    +0.000 A 
ATOM     23  N   UNL     1      -0.832  10.272  20.641  0.00  0.00    +0.000 NA
ATOM     24  N   UNL     1      -0.248  10.518  19.451  0.00  0.00    +0.000 N 
ATOM     25  C   UNL     1       0.926   9.827  19.277  0.00  0.00    +0.000 A 
ATOM     26  C   UNL     1       1.773   9.922  18.058  0.00  0.00    +0.000 C 
ATOM     27  C   UNL     1       1.093   9.050  20.419  0.00  0.00    +0.000 A 
BRANCH  24  28
ATOM     28  C   UNL     1      -0.868  11.504  18.570  0.00  0.00    +0.000 C 
BRANCH  28  29
ATOM     29  C   UNL     1      -0.468  12.918  18.912  0.00  0.00    +0.000 A 
ATOM     30  C   UNL     1       0.755  13.444  18.464  0.00  0.00    +0.000 A 
ATOM     31  C   UNL     1       1.126  14.752  18.779  0.00  0.00    +0.000 A 
ATOM     32  C   UNL     1       0.274  15.556  19.532  0.00  0.00    +0.000 A 
ATOM     33  C   UNL     1      -0.952  15.054  19.965  0.00  0.00    +0.000 A 
ATOM     34  C   UNL     1      -1.323  13.743  19.657  0.00  0.00    +0.000 A 
ENDBRANCH  28  29
ENDBRANCH  24  28
ENDBRANCH  20  27
ENDBRANCH   1  20
TORSDOF 7
ENDMDL
MODEL 8
REMARK VINA RESULT:      -8.2      0.928      1.536
REMARK  Name = 
REMARK  9 active torsions:
REMARK  status: ('A' for Active; 'I' for Inactive)
REMARK    1  A    between atoms: C_1  and  C_2
REMARK    2  A    between atoms: N_4  and  C_5
REMARK    3  A    between atoms: C_5  and  C_6
REMARK    4  A    between atoms: C_12  and  C_13
REMARK    5  A    between atoms: C_14  and  C_15
REMARK    6  A    between atoms: C_15  and  N_16
REMARK    7  A    between atoms: C_17  and  C_19
REMARK    8  A    between atoms: N_23  and  S_24
REMARK    9  A    between atoms: S_24  and  C_27
REMARK                            x       y       z     vdW  Elec       q    Type
REMARK                         _______ _______ _______ _____ _____    ______ ____
ROOT
ATOM      1  N   UNL     1       1.742   6.523  20.241  0.00  0.00    +0.000 N 
ATOM      2  C   UNL     1       1.990   6.047  18.963  0.00  0.00    +0.000 C 
ATOM      3  O   UNL     1       2.621   6.673  18.119  0.00  0.00    +0.000 OA
ATOM      4  H   UNL     1       1.162   5.965  20.852  0.00  0.00    +0.000 HD
ENDROOT
BRANCH   2   5
ATOM      5  C   UNL     1       1.573   4.588  18.778  0.00  0.00    +0.000 C 
ATOM      6  C   UNL     1       0.824   3.957  19.947  0.00  0.00    +0.000 C 
ATOM      7  C   UNL     1       0.715   2.494  19.529  0.00  0.00    +0.000 C 
ATOM      8  C   UNL     1       1.817   2.261  18.489  0.00  0.00    +0.000 C 
ATOM      9  N   UNL     1       2.594   3.542  18.400  0.00  0.00    +0.000 NA
BRANCH   9  10
ATOM     10  S   UNL     1       4.024   3.534  19.369  0.00  0.00    +0.000 S 
ATOM     11  O   UNL     1       3.714   4.148  20.640  0.00  0.00    +0.000 OA
ATOM     12  O   UNL     1       4.602   2.213  19.290  0.00  0.00    +0.000 OA
BRANCH  10  13
ATOM     13  C   UNL     1       5.145   4.656  18.543  0.00  0.00    +0.000 A 
ATOM     14  C   UNL     1       6.178   5.268  19.266  0.00  0.00    +0.000 A 
ATOM     15  C   UNL     1       7.133   6.035  18.590  0.00  0.00    +0.000 A 
ATOM     16  C   UNL     1       7.056   6.174  17.205  0.00  0.00    +0.000 A 
ATOM     17  F   UNL     1       7.992   6.884  16.560  0.00  0.00    +0.000 F 
ATOM     18  C   UNL     1       6.033   5.572  16.481  0.00  0.00    +0.000 A 
ATOM     19  C   UNL     1       5.069   4.811  17.151  0.00  0.00    +0.000 A 
ENDBRANCH  10  13
ENDBRANCH   9  10
ENDBRANCH   2   5
BRANCH   1  20
ATOM     20  C   UNL     1       2.170   7.825  20.705  0.00  0.00    +0.000 C 
BRANCH  20  27
ATOM     21  C   UNL     1      -0.445   8.754  22.514  0.00  0.00    +0.000 C 
ATOM     22  C   UNL     1       0.021   9.262  21.200  0.00  0.00    +0.000 A 
ATOM     23  N   UNL     1      -0.667  10.256  20.632  0.00  0.00    +0.000 NA
ATOM     24  N   UNL     1      -0.045  10.471  19.455  0.00  0.00    +0.000 N 
ATOM     25  C   UNL     1       1.057   9.670  19.277  0.00  0.00    +0.000 A 
ATOM     26  C   UNL     1       1.926   9.709  18.071  0.00  0.00    +0.000 C 
ATOM     27  C   UNL     1       1.130   8.855  20.402  0.00  0.00    +0.000 A 
BRANCH  24  28
ATOM     28  C   UNL     1      -0.552  11.534  18.591  0.00  0.00    +0.000 C 
BRANCH  28  29
ATOM     29  C   UNL     1      -1.873  11.179  17.953  0.00  0.00    +0.000 A 
ATOM     30  C   UNL     1      -1.940  10.213  16.935  0.00  0.00    +0.000 A 
ATOM     31  C   UNL     1      -3.160   9.883  16.345  0.00  0.00    +0.000 A 
ATOM     32  C   UNL     1      -4.331  10.503  16.774  0.00  0.00    +0.000 A 
ATOM     33  C   UNL     1      -4.283  11.447  17.797  0.00  0.00    +0.000 A 
ATOM     34  C   UNL     1      -3.062  11.784  18.386  0.00  0.00    +0.000 A 
ENDBRANCH  28  29
ENDBRANCH  24  28
ENDBRANCH  20  27
ENDBRANCH   1  20
TORSDOF 7
ENDMDL
MODEL 9
REMARK VINA RESULT:      -8.1      0.518      1.723
REMARK  Name = 
REMARK  9 active torsions:
REMARK  status: ('A' for Active; 'I' for Inactive)
REMARK    1  A    between atoms: C_1  and  C_2
REMARK    2  A    between atoms: N_4  and  C_5
REMARK    3  A    between atoms: C_5  and  C_6
REMARK    4  A    between atoms: C_12  and  C_13
REMARK    5  A    between atoms: C_14  and  C_15
REMARK    6  A    between atoms: C_15  and  N_16
REMARK    7  A    between atoms: C_17  and  C_19
REMARK    8  A    between atoms: N_23  and  S_24
REMARK    9  A    between atoms: S_24  and  C_27
REMARK                            x       y       z     vdW  Elec       q    Type
REMARK                         _______ _______ _______ _____ _____    ______ ____
ROOT
ATOM      1  N   UNL     1       1.884   6.850  20.355  0.00  0.00    +0.000 N 
ATOM      2  C   UNL     1       2.121   6.164  19.174  0.00  0.00    +0.000 C 
ATOM      3  O   UNL     1       2.678   6.662  18.202  0.00  0.00    +0.000 OA
ATOM      4  H   UNL     1       1.364   6.380  21.082  0.00  0.00    +0.000 HD
ENDROOT
BRANCH   2   5
ATOM      5  C   UNL     1       1.798   4.674  19.275  0.00  0.00    +0.000 C 
ATOM      6  C   UNL     1       1.456   4.160  20.670  0.00  0.00    +0.000 C 
ATOM      7  C   UNL     1       1.365   2.652  20.462  0.00  0.00    +0.000 C 
ATOM      8  C   UNL     1       2.155   2.345  19.185  0.00  0.00    +0.000 C 
ATOM      9  N   UNL     1       2.763   3.643  18.740  0.00  0.00    +0.000 NA
BRANCH   9  10
ATOM     10  S   UNL     1       4.399   3.837  19.260  0.00  0.00    +0.000 S 
ATOM     11  O   UNL     1       4.468   4.998  20.118  0.00  0.00    +0.000 OA
ATOM     12  O   UNL     1       4.878   2.546  19.697  0.00  0.00    +0.000 OA
BRANCH  10  13
ATOM     13  C   UNL     1       5.304   4.267  17.778  0.00  0.00    +0.000 A 
ATOM     14  C   UNL     1       6.663   4.600  17.864  0.00  0.00    +0.000 A 
ATOM     15  C   UNL     1       7.398   4.801  16.691  0.00  0.00    +0.000 A 
ATOM     16  C   UNL     1       6.778   4.658  15.450  0.00  0.00    +0.000 A 
ATOM     17  F   UNL     1       7.496   4.821  14.330  0.00  0.00    +0.000 F 
ATOM     18  C   UNL     1       5.431   4.330  15.358  0.00  0.00    +0.000 A 
ATOM     19  C   UNL     1       4.686   4.136  16.526  0.00  0.00    +0.000 A 
ENDBRANCH  10  13
ENDBRANCH   9  10
ENDBRANCH   2   5
BRANCH   1  20
ATOM     20  C   UNL     1       2.238   8.239  20.555  0.00  0.00    +0.000 C 
BRANCH  20  27
ATOM     21  C   UNL     1       2.385   9.998  17.751  0.00  0.00    +0.000 C 
ATOM     22  C   UNL     1       1.274   9.868  18.726  0.00  0.00    +0.000 A 
ATOM     23  N   UNL     1       0.135  10.518  18.470  0.00  0.00    +0.000 NA
ATOM     24  N   UNL     1      -0.655  10.250  19.529  0.00  0.00    +0.000 N 
ATOM     25  C   UNL     1      -0.067   9.403  20.436  0.00  0.00    +0.000 A 
ATOM     26  C   UNL     1      -0.723   8.942  21.688  0.00  0.00    +0.000 C 
ATOM     27  C   UNL     1       1.207   9.134  19.947  0.00  0.00    +0.000 A 
BRANCH  24  28
ATOM     28  C   UNL     1      -2.005  10.807  19.540  0.00  0.00    +0.000 C 
BRANCH  28  29
ATOM     29  C   UNL     1      -2.670  10.740  18.187  0.00  0.00    +0.000 A 
ATOM     30  C   UNL     1      -3.736  11.597  17.870  0.00  0.00    +0.000 A 
ATOM     31  C   UNL     1      -4.352  11.537  16.619  0.00  0.00    +0.000 A 
ATOM     32  C   UNL     1      -3.899  10.630  15.664  0.00  0.00    +0.000 A 
ATOM     33  C   UNL     1      -2.828   9.788  15.957  0.00  0.00    +0.000 A 
ATOM     34  C   UNL     1      -2.215   9.842  17.211  0.00  0.00    +0.000 A 
ENDBRANCH  28  29
ENDBRANCH  24  28
ENDBRANCH  20  27
ENDBRANCH   1  20
TORSDOF 7
ENDMDL
