MODEL 1
REMARK VINA RESULT:      -9.0      0.000      0.000
REMARK  Name = 
REMARK  5 active torsions:
REMARK  status: ('A' for Active; 'I' for Inactive)
REMARK    1  A    between atoms: C_2  and  C_16
REMARK    2  A    between atoms: N_3  and  C_4
REMARK    3  A    between atoms: C_7  and  N_8
REMARK    4  A    between atoms: C_18  and  C_19
REMARK    5  A    between atoms: N_23  and  C_24
REMARK                            x       y       z     vdW  Elec       q    Type
REMARK                         _______ _______ _______ _____ _____    ______ ____
ROOT
ATOM      1  O   UNL     1       1.683   8.220  17.478  0.00  0.00    +0.000 OA
ATOM      2  C   UNL     1       2.354   7.679  18.347  0.00  0.00    +0.000 C 
ATOM      3  N   UNL     1       2.209   7.877  19.710  0.00  0.00    +0.000 N 
ATOM      4  H   UNL     1       2.890   7.437  20.313  0.00  0.00    +0.000 HD
ENDROOT
BRANCH   3   5
ATOM      5  C   UNL     1       1.331   8.794  20.325  0.00  0.00    +0.000 A 
ATOM      6  C   UNL     1       0.621   9.761  19.618  0.00  0.00    +0.000 A 
ATOM      7  C   UNL     1      -0.170  10.699  20.285  0.00  0.00    +0.000 A 
ATOM      8  C   UNL     1      -0.266  10.714  21.676  0.00  0.00    +0.000 A 
ATOM      9  C   UNL     1       0.417   9.710  22.380  0.00  0.00    +0.000 A 
ATOM     10  C   UNL     1       1.193   8.750  21.710  0.00  0.00    +0.000 A 
BRANCH   8  11
ATOM     11  N   UNL     1      -0.992  11.729  22.352  0.00  0.00    +0.000 N 
ATOM     12  C   UNL     1      -2.140  11.436  23.177  0.00  0.00    +0.000 C 
ATOM     13  C   UNL     1      -2.722  12.792  23.513  0.00  0.00    +0.000 C 
ATOM     14  C   UNL     1      -1.516  13.710  23.515  0.00  0.00    +0.000 C 
ATOM     15  C   UNL     1      -0.580  13.064  22.529  0.00  0.00    +0.000 C 
ATOM     16  O   UNL     1       0.365  13.657  22.037  0.00  0.00    +0.000 OA
ENDBRANCH   8  11
ENDBRANCH   3   5
BRANCH   2  17
ATOM     17  C   UNL     1       3.440   6.794  18.016  0.00  0.00    +0.000 A 
ATOM     18  C   UNL     1       4.573   7.065  17.271  0.00  0.00    +0.000 A 
ATOM     19  C   UNL     1       5.340   5.898  17.340  0.00  0.00    +0.000 A 
ATOM     20  N   UNL     1       4.802   4.981  18.141  0.00  0.00    +0.000 NA
ATOM     21  N   UNL     1       3.584   5.492  18.483  0.00  0.00    +0.000 N 
BRANCH  21  22
ATOM     22  C   UNL     1       2.635   4.651  19.138  0.00  0.00    +0.000 A 
ATOM     23  C   UNL     1       1.720   3.918  18.369  0.00  0.00    +0.000 A 
ATOM     24  C   UNL     1       0.798   3.073  18.993  0.00  0.00    +0.000 A 
ATOM     25  C   UNL     1       0.763   2.976  20.384  0.00  0.00    +0.000 A 
ATOM     26  C   UNL     1       1.646   3.728  21.154  0.00  0.00    +0.000 A 
ATOM     27  C   UNL     1       2.578   4.565  20.536  0.00  0.00    +0.000 A 
ENDBRANCH  21  22
BRANCH  19  28
ATOM     28  C   UNL     1       6.636   5.723  16.569  0.00  0.00    +0.000 C 
ATOM     29  C   UNL     1       6.700   4.631  15.517  0.00  0.00    +0.000 C 
ATOM     30  C   UNL     1       7.469   4.478  16.785  0.00  0.00    +0.000 C 
ENDBRANCH  19  28
ENDBRANCH   2  17
TORSDOF 5
ENDMDL
MODEL 2
REMARK VINA RESULT:      -8.9      2.120      3.190
REMARK  Name = 
REMARK  5 active torsions:
REMARK  status: ('A' for Active; 'I' for Inactive)
REMARK    1  A    between atoms: C_2  and  C_16
REMARK    2  A    between atoms: N_3  and  C_4
REMARK    3  A    between atoms: C_7  and  N_8
REMARK    4  A    between atoms: C_18  and  C_19
REMARK    5  A    between atoms: N_23  and  C_24
REMARK                            x       y       z     vdW  Elec       q    Type
REMARK                         _______ _______ _______ _____ _____    ______ ____
ROOT
ATOM      1  O   UNL     1       5.433   7.140  17.944  0.00  0.00    +0.000 OA
ATOM      2  C   UNL     1       4.581   6.571  17.274  0.00  0.00    +0.000 C 
ATOM      3  N   UNL     1       3.216   6.787  17.364  0.00  0.00    +0.000 N 
ATOM      4  H   UNL     1       2.618   6.184  16.817  0.00  0.00    +0.000 HD
ENDROOT
BRANCH   3   5
ATOM      5  C   UNL     1       2.570   7.629  18.293  0.00  0.00    +0.000 A 
ATOM      6  C   UNL     1       2.311   7.254  19.610  0.00  0.00    +0.000 A 
ATOM      7  C   UNL     1       1.592   8.093  20.465  0.00  0.00    +0.000 A 
ATOM      8  C   UNL     1       1.096   9.322  20.032  0.00  0.00    +0.000 A 
ATOM      9  C   UNL     1       1.399   9.714  18.719  0.00  0.00    +0.000 A 
ATOM     10  C   UNL     1       2.142   8.883  17.864  0.00  0.00    +0.000 A 
BRANCH   8  11
ATOM     11  N   UNL     1       0.284  10.125  20.875  0.00  0.00    +0.000 N 
ATOM     12  C   UNL     1      -0.817  10.909  20.366  0.00  0.00    +0.000 C 
ATOM     13  C   UNL     1      -1.254  11.757  21.541  0.00  0.00    +0.000 C 
ATOM     14  C   UNL     1      -0.919  10.901  22.746  0.00  0.00    +0.000 C 
ATOM     15  C   UNL     1       0.256  10.084  22.282  0.00  0.00    +0.000 C 
ATOM     16  O   UNL     1       0.991   9.495  23.057  0.00  0.00    +0.000 OA
ENDBRANCH   8  11
ENDBRANCH   3   5
BRANCH   2  17
ATOM     17  C   UNL     1       4.930   5.538  16.335  0.00  0.00    +0.000 A 
ATOM     18  C   UNL     1       5.574   5.665  15.118  0.00  0.00    +0.000 A 
ATOM     19  C   UNL     1       5.752   4.355  14.663  0.00  0.00    +0.000 A 
ATOM     20  N   UNL     1       5.348   3.448  15.549  0.00  0.00    +0.000 NA
ATOM     21  N   UNL     1       4.753   4.174  16.540  0.00  0.00    +0.000 N 
BRANCH  21  22
ATOM     22  C   UNL     1       3.985   3.497  17.534  0.00  0.00    +0.000 A 
ATOM     23  C   UNL     1       4.558   3.237  18.787  0.00  0.00    +0.000 A 
ATOM     24  C   UNL     1       3.814   2.594  19.780  0.00  0.00    +0.000 A 
ATOM     25  C   UNL     1       2.507   2.181  19.522  0.00  0.00    +0.000 A 
ATOM     26  C   UNL     1       1.943   2.406  18.269  0.00  0.00    +0.000 A 
ATOM     27  C   UNL     1       2.678   3.059  17.276  0.00  0.00    +0.000 A 
ENDBRANCH  21  22
BRANCH  19  28
ATOM     28  C   UNL     1       6.337   4.033  13.299  0.00  0.00    +0.000 C 
ATOM     29  C   UNL     1       5.378   3.820  12.143  0.00  0.00    +0.000 C 
ATOM     30  C   UNL     1       6.126   2.659  12.704  0.00  0.00    +0.000 C 
ENDBRANCH  19  28
ENDBRANCH   2  17
TORSDOF 5
ENDMDL
MODEL 3
REMARK VINA RESULT:      -8.8      2.013      2.941
REMARK  Name = 
REMARK  5 active torsions:
REMARK  status: ('A' for Active; 'I' for Inactive)
REMARK    1  A    between atoms: C_2  and  C_16
REMARK    2  A    between atoms: N_3  and  C_4
REMARK    3  A    between atoms: C_7  and  N_8
REMARK    4  A    between atoms: C_18  and  C_19
REMARK    5  A    between atoms: N_23  and  C_24
REMARK                            x       y       z     vdW  Elec       q    Type
REMARK                         _______ _______ _______ _____ _____    ______ ____
ROOT
ATOM      1  O   UNL     1       5.349   7.263  17.839  0.00  0.00    +0.000 OA
ATOM      2  C   UNL     1       4.490   6.594  17.281  0.00  0.00    +0.000 C 
ATOM      3  N   UNL     1       3.128   6.681  17.520  0.00  0.00    +0.000 N 
ATOM      4  H   UNL     1       2.536   6.006  17.055  0.00  0.00    +0.000 HD
ENDROOT
BRANCH   3   5
ATOM      5  C   UNL     1       2.508   7.485  18.498  0.00  0.00    +0.000 A 
ATOM      6  C   UNL     1       2.341   7.084  19.822  0.00  0.00    +0.000 A 
ATOM      7  C   UNL     1       1.644   7.883  20.731  0.00  0.00    +0.000 A 
ATOM      8  C   UNL     1       1.079   9.099  20.347  0.00  0.00    +0.000 A 
ATOM      9  C   UNL     1       1.289   9.519  19.024  0.00  0.00    +0.000 A 
ATOM     10  C   UNL     1       2.011   8.728  18.115  0.00  0.00    +0.000 A 
BRANCH   8  11
ATOM     11  N   UNL     1       0.290   9.859  21.249  0.00  0.00    +0.000 N 
ATOM     12  C   UNL     1       0.002   9.409  22.590  0.00  0.00    +0.000 C 
ATOM     13  C   UNL     1      -1.024  10.392  23.109  0.00  0.00    +0.000 C 
ATOM     14  C   UNL     1      -0.690  11.678  22.381  0.00  0.00    +0.000 C 
ATOM     15  C   UNL     1      -0.094  11.204  21.084  0.00  0.00    +0.000 C 
ATOM     16  O   UNL     1       0.027  11.932  20.112  0.00  0.00    +0.000 OA
ENDBRANCH   8  11
ENDBRANCH   3   5
BRANCH   2  17
ATOM     17  C   UNL     1       4.833   5.571  16.330  0.00  0.00    +0.000 A 
ATOM     18  C   UNL     1       5.454   5.712  15.102  0.00  0.00    +0.000 A 
ATOM     19  C   UNL     1       5.639   4.406  14.636  0.00  0.00    +0.000 A 
ATOM     20  N   UNL     1       5.261   3.490  15.525  0.00  0.00    +0.000 NA
ATOM     21  N   UNL     1       4.676   4.203  16.530  0.00  0.00    +0.000 N 
BRANCH  21  22
ATOM     22  C   UNL     1       3.935   3.512  17.535  0.00  0.00    +0.000 A 
ATOM     23  C   UNL     1       2.637   3.066  17.248  0.00  0.00    +0.000 A 
ATOM     24  C   UNL     1       1.906   2.367  18.214  0.00  0.00    +0.000 A 
ATOM     25  C   UNL     1       2.450   2.136  19.476  0.00  0.00    +0.000 A 
ATOM     26  C   UNL     1       3.726   2.606  19.779  0.00  0.00    +0.000 A 
ATOM     27  C   UNL     1       4.467   3.293  18.814  0.00  0.00    +0.000 A 
ENDBRANCH  21  22
BRANCH  19  28
ATOM     28  C   UNL     1       6.203   4.099  13.261  0.00  0.00    +0.000 C 
ATOM     29  C   UNL     1       5.226   3.777  12.144  0.00  0.00    +0.000 C 
ATOM     30  C   UNL     1       6.088   2.697  12.705  0.00  0.00    +0.000 C 
ENDBRANCH  19  28
ENDBRANCH   2  17
TORSDOF 5
ENDMDL
MODEL 4
REMARK VINA RESULT:      -8.6      1.945      3.092
REMARK  Name = 
REMARK  5 active torsions:
REMARK  status: ('A' for Active; 'I' for Inactive)
REMARK    1  A    between atoms: C_2  and  C_16
REMARK    2  A    between atoms: N_3  and  C_4
REMARK    3  A    between atoms: C_7  and  N_8
REMARK    4  A    between atoms: C_18  and  C_19
REMARK    5  A    between atoms: N_23  and  C_24
REMARK                            x       y       z     vdW  Elec       q    Type
REMARK                         _______ _______ _______ _____ _____    ______ ____
ROOT
ATOM      1  O   UNL     1       5.320   7.368  17.604  0.00  0.00    +0.000 OA
ATOM      2  C   UNL     1       4.525   6.517  17.227  0.00  0.00    +0.000 C 
ATOM      3  N   UNL     1       3.180   6.478  17.554  0.00  0.00    +0.000 N 
ATOM      4  H   UNL     1       2.656   5.670  17.249  0.00  0.00    +0.000 HD
ENDROOT
BRANCH   3   5
ATOM      5  C   UNL     1       2.517   7.353  18.441  0.00  0.00    +0.000 A 
ATOM      6  C   UNL     1       2.300   7.056  19.784  0.00  0.00    +0.000 A 
ATOM      7  C   UNL     1       1.563   7.920  20.599  0.00  0.00    +0.000 A 
ATOM      8  C   UNL     1       1.007   9.097  20.098  0.00  0.00    +0.000 A 
ATOM      9  C   UNL     1       1.268   9.412  18.755  0.00  0.00    +0.000 A 
ATOM     10  C   UNL     1       2.029   8.557  17.940  0.00  0.00    +0.000 A 
BRANCH   8  11
ATOM     11  N   UNL     1       0.179   9.919  20.904  0.00  0.00    +0.000 N 
ATOM     12  C   UNL     1       0.305   9.966  22.341  0.00  0.00    +0.000 C 
ATOM     13  C   UNL     1      -0.886  10.778  22.801  0.00  0.00    +0.000 C 
ATOM     14  C   UNL     1      -1.146  11.722  21.643  0.00  0.00    +0.000 C 
ATOM     15  C   UNL     1      -0.663  10.950  20.445  0.00  0.00    +0.000 C 
ATOM     16  O   UNL     1      -0.973  11.249  19.304  0.00  0.00    +0.000 OA
ENDBRANCH   8  11
ENDBRANCH   3   5
BRANCH   2  17
ATOM     17  C   UNL     1       4.945   5.400  16.423  0.00  0.00    +0.000 A 
ATOM     18  C   UNL     1       5.685   5.411  15.255  0.00  0.00    +0.000 A 
ATOM     19  C   UNL     1       5.894   4.064  14.945  0.00  0.00    +0.000 A 
ATOM     20  N   UNL     1       5.417   3.246  15.880  0.00  0.00    +0.000 NA
ATOM     21  N   UNL     1       4.747   4.062  16.745  0.00  0.00    +0.000 N 
BRANCH  21  22
ATOM     22  C   UNL     1       3.900   3.481  17.736  0.00  0.00    +0.000 A 
ATOM     23  C   UNL     1       4.357   3.381  19.058  0.00  0.00    +0.000 A 
ATOM     24  C   UNL     1       3.532   2.834  20.046  0.00  0.00    +0.000 A 
ATOM     25  C   UNL     1       2.263   2.359  19.717  0.00  0.00    +0.000 A 
ATOM     26  C   UNL     1       1.817   2.425  18.400  0.00  0.00    +0.000 A 
ATOM     27  C   UNL     1       2.631   2.981  17.411  0.00  0.00    +0.000 A 
ENDBRANCH  21  22
BRANCH  19  28
ATOM     28  C   UNL     1       6.585   3.614  13.671  0.00  0.00    +0.000 C 
ATOM     29  C   UNL     1       6.780   4.635  12.565  0.00  0.00    +0.000 C 
ATOM     30  C   UNL     1       5.794   3.531  12.384  0.00  0.00    +0.000 C 
ENDBRANCH  19  28
ENDBRANCH   2  17
TORSDOF 5
ENDMDL
MODEL 5
REMARK VINA RESULT:      -8.6      1.059      1.106
REMARK  Name = 
REMARK  5 active torsions:
REMARK  status: ('A' for Active; 'I' for Inactive)
REMARK    1  A    between atoms: C_2  and  C_16
REMARK    2  A    between atoms: N_3  and  C_4
REMARK    3  A    between atoms: C_7  and  N_8
REMARK    4  A    between atoms: C_18  and  C_19
REMARK    5  A    between atoms: N_23  and  C_24
REMARK                            x       y       z     vdW  Elec       q    Type
REMARK                         _______ _______ _______ _____ _____    ______ ____
ROOT
ATOM      1  O   UNL     1       1.471   7.802  17.362  0.00  0.00    +0.000 OA
ATOM      2  C   UNL     1       2.248   7.560  18.276  0.00  0.00    +0.000 C 
ATOM      3  N   UNL     1       2.149   8.059  19.565  0.00  0.00    +0.000 N 
ATOM      4  H   UNL     1       2.909   7.852  20.197  0.00  0.00    +0.000 HD
ENDROOT
BRANCH   3   5
ATOM      5  C   UNL     1       1.194   8.993  20.020  0.00  0.00    +0.000 A 
ATOM      6  C   UNL     1       0.966  10.216  19.394  0.00  0.00    +0.000 A 
ATOM      7  C   UNL     1       0.070  11.141  19.934  0.00  0.00    +0.000 A 
ATOM      8  C   UNL     1      -0.615  10.884  21.122  0.00  0.00    +0.000 A 
ATOM      9  C   UNL     1      -0.414   9.632  21.724  0.00  0.00    +0.000 A 
ATOM     10  C   UNL     1       0.468   8.690  21.168  0.00  0.00    +0.000 A 
BRANCH   8  11
ATOM     11  N   UNL     1      -1.448  11.866  21.717  0.00  0.00    +0.000 N 
ATOM     12  C   UNL     1      -1.127  12.486  22.981  0.00  0.00    +0.000 C 
ATOM     13  C   UNL     1      -2.362  13.285  23.337  0.00  0.00    +0.000 C 
ATOM     14  C   UNL     1      -2.944  13.666  21.991  0.00  0.00    +0.000 C 
ATOM     15  C   UNL     1      -2.513  12.541  21.090  0.00  0.00    +0.000 C 
ATOM     16  O   UNL     1      -3.030  12.334  20.004  0.00  0.00    +0.000 OA
ENDBRANCH   8  11
ENDBRANCH   3   5
BRANCH   2  17
ATOM     17  C   UNL     1       3.418   6.747  18.073  0.00  0.00    +0.000 A 
ATOM     18  C   UNL     1       4.578   7.066  17.391  0.00  0.00    +0.000 A 
ATOM     19  C   UNL     1       5.424   5.969  17.582  0.00  0.00    +0.000 A 
ATOM     20  N   UNL     1       4.901   5.058  18.399  0.00  0.00    +0.000 NA
ATOM     21  N   UNL     1       3.626   5.489  18.627  0.00  0.00    +0.000 N 
BRANCH  21  22
ATOM     22  C   UNL     1       2.698   4.612  19.265  0.00  0.00    +0.000 A 
ATOM     23  C   UNL     1       1.880   3.787  18.481  0.00  0.00    +0.000 A 
ATOM     24  C   UNL     1       0.981   2.907  19.091  0.00  0.00    +0.000 A 
ATOM     25  C   UNL     1       0.872   2.865  20.481  0.00  0.00    +0.000 A 
ATOM     26  C   UNL     1       1.658   3.706  21.264  0.00  0.00    +0.000 A 
ATOM     27  C   UNL     1       2.567   4.579  20.661  0.00  0.00    +0.000 A 
ENDBRANCH  21  22
BRANCH  19  28
ATOM     28  C   UNL     1       6.782   5.855  16.913  0.00  0.00    +0.000 C 
ATOM     29  C   UNL     1       6.907   4.951  15.701  0.00  0.00    +0.000 C 
ATOM     30  C   UNL     1       7.542   4.550  16.988  0.00  0.00    +0.000 C 
ENDBRANCH  19  28
ENDBRANCH   2  17
TORSDOF 5
ENDMDL
MODEL 6
REMARK VINA RESULT:      -8.6      1.000      1.577
REMARK  Name = 
REMARK  5 active torsions:
REMARK  status: ('A' for Active; 'I' for Inactive)
REMARK    1  A    between atoms: C_2  and  C_16
REMARK    2  A    between atoms: N_3  and  C_4
REMARK    3  A    between atoms: C_7  and  N_8
REMARK    4  A    between atoms: C_18  and  C_19
REMARK    5  A    between atoms: N_23  and  C_24
REMARK                            x       y       z     vdW  Elec       q    Type
REMARK                         _______ _______ _______ _____ _____    ______ ____
ROOT
ATOM      1  O   UNL     1       1.543   8.063  17.518  0.00  0.00    +0.000 OA
ATOM      2  C   UNL     1       2.291   7.617  18.379  0.00  0.00    +0.000 C 
ATOM      3  N   UNL     1       2.217   7.907  19.731  0.00  0.00    +0.000 N 
ATOM      4  H   UNL     1       2.953   7.542  20.320  0.00  0.00    +0.000 HD
ENDROOT
BRANCH   3   5
ATOM      5  C   UNL     1       1.333   8.825  20.335  0.00  0.00    +0.000 A 
ATOM      6  C   UNL     1       0.460   8.480  21.364  0.00  0.00    +0.000 A 
ATOM      7  C   UNL     1      -0.455   9.407  21.868  0.00  0.00    +0.000 A 
ATOM      8  C   UNL     1      -0.540  10.700  21.354  0.00  0.00    +0.000 A 
ATOM      9  C   UNL     1       0.373  11.056  20.349  0.00  0.00    +0.000 A 
ATOM     10  C   UNL     1       1.310  10.133  19.857  0.00  0.00    +0.000 A 
BRANCH   8  11
ATOM     11  N   UNL     1      -1.536  11.606  21.804  0.00  0.00    +0.000 N 
ATOM     12  C   UNL     1      -1.617  12.044  23.177  0.00  0.00    +0.000 C 
ATOM     13  C   UNL     1      -2.922  12.805  23.257  0.00  0.00    +0.000 C 
ATOM     14  C   UNL     1      -3.092  13.374  21.862  0.00  0.00    +0.000 C 
ATOM     15  C   UNL     1      -2.386  12.375  20.986  0.00  0.00    +0.000 C 
ATOM     16  O   UNL     1      -2.556  12.325  19.779  0.00  0.00    +0.000 OA
ENDBRANCH   8  11
ENDBRANCH   3   5
BRANCH   2  17
ATOM     17  C   UNL     1       3.397   6.760  18.043  0.00  0.00    +0.000 A 
ATOM     18  C   UNL     1       4.526   7.063  17.304  0.00  0.00    +0.000 A 
ATOM     19  C   UNL     1       5.320   5.913  17.365  0.00  0.00    +0.000 A 
ATOM     20  N   UNL     1       4.800   4.977  18.156  0.00  0.00    +0.000 NA
ATOM     21  N   UNL     1       3.570   5.457  18.499  0.00  0.00    +0.000 N 
BRANCH  21  22
ATOM     22  C   UNL     1       2.638   4.589  19.143  0.00  0.00    +0.000 A 
ATOM     23  C   UNL     1       2.643   4.491  20.542  0.00  0.00    +0.000 A 
ATOM     24  C   UNL     1       1.723   3.662  21.190  0.00  0.00    +0.000 A 
ATOM     25  C   UNL     1       0.815   2.906  20.450  0.00  0.00    +0.000 A 
ATOM     26  C   UNL     1       0.828   2.973  19.059  0.00  0.00    +0.000 A 
ATOM     27  C   UNL     1       1.736   3.809  18.406  0.00  0.00    +0.000 A 
ENDBRANCH  21  22
BRANCH  19  28
ATOM     28  C   UNL     1       6.622   5.774  16.597  0.00  0.00    +0.000 C 
ATOM     29  C   UNL     1       6.721   4.677  15.553  0.00  0.00    +0.000 C 
ATOM     30  C   UNL     1       7.494   4.560  16.823  0.00  0.00    +0.000 C 
ENDBRANCH  19  28
ENDBRANCH   2  17
TORSDOF 5
ENDMDL
MODEL 7
REMARK VINA RESULT:      -8.5      1.578      2.360
REMARK  Name = 
REMARK  5 active torsions:
REMARK  status: ('A' for Active; 'I' for Inactive)
REMARK    1  A    between atoms: C_2  and  C_16
REMARK    2  A    between atoms: N_3  and  C_4
REMARK    3  A    between atoms: C_7  and  N_8
REMARK    4  A    between atoms: C_18  and  C_19
REMARK    5  A    between atoms: N_23  and  C_24
REMARK                            x       y       z     vdW  Elec       q    Type
REMARK                         _______ _______ _______ _____ _____    ______ ____
ROOT
ATOM      1  O   UNL     1       4.732   7.951  17.847  0.00  0.00    +0.000 OA
ATOM      2  C   UNL     1       3.974   7.019  17.617  0.00  0.00    +0.000 C 
ATOM      3  N   UNL     1       2.637   6.967  17.974  0.00  0.00    +0.000 N 
ATOM      4  H   UNL     1       2.149   6.099  17.803  0.00  0.00    +0.000 HD
ENDROOT
BRANCH   3   5
ATOM      5  C   UNL     1       1.945   7.932  18.736  0.00  0.00    +0.000 A 
ATOM      6  C   UNL     1       1.416   9.098  18.189  0.00  0.00    +0.000 A 
ATOM      7  C   UNL     1       0.814  10.062  19.002  0.00  0.00    +0.000 A 
ATOM      8  C   UNL     1       0.735   9.901  20.385  0.00  0.00    +0.000 A 
ATOM      9  C   UNL     1       1.229   8.703  20.925  0.00  0.00    +0.000 A 
ATOM     10  C   UNL     1       1.813   7.722  20.106  0.00  0.00    +0.000 A 
BRANCH   8  11
ATOM     11  N   UNL     1       0.211  10.926  21.215  0.00  0.00    +0.000 N 
ATOM     12  C   UNL     1       0.141  12.303  20.788  0.00  0.00    +0.000 C 
ATOM     13  C   UNL     1      -0.265  13.066  22.030  0.00  0.00    +0.000 C 
ATOM     14  C   UNL     1      -1.095  12.067  22.810  0.00  0.00    +0.000 C 
ATOM     15  C   UNL     1      -0.518  10.737  22.405  0.00  0.00    +0.000 C 
ATOM     16  O   UNL     1      -0.720   9.714  23.038  0.00  0.00    +0.000 OA
ENDBRANCH   8  11
ENDBRANCH   3   5
BRANCH   2  17
ATOM     17  C   UNL     1       4.436   5.815  16.977  0.00  0.00    +0.000 A 
ATOM     18  C   UNL     1       5.314   5.687  15.917  0.00  0.00    +0.000 A 
ATOM     19  C   UNL     1       5.496   4.310  15.760  0.00  0.00    +0.000 A 
ATOM     20  N   UNL     1       4.869   3.603  16.697  0.00  0.00    +0.000 NA
ATOM     21  N   UNL     1       4.137   4.522  17.391  0.00  0.00    +0.000 N 
BRANCH  21  22
ATOM     22  C   UNL     1       3.148   4.069  18.315  0.00  0.00    +0.000 A 
ATOM     23  C   UNL     1       3.414   4.125  19.691  0.00  0.00    +0.000 A 
ATOM     24  C   UNL     1       2.448   3.706  20.610  0.00  0.00    +0.000 A 
ATOM     25  C   UNL     1       1.226   3.204  20.165  0.00  0.00    +0.000 A 
ATOM     26  C   UNL     1       0.968   3.114  18.800  0.00  0.00    +0.000 A 
ATOM     27  C   UNL     1       1.924   3.543  17.876  0.00  0.00    +0.000 A 
ENDBRANCH  21  22
BRANCH  19  28
ATOM     28  C   UNL     1       6.317   3.715  14.630  0.00  0.00    +0.000 C 
ATOM     29  C   UNL     1       6.876   4.658  13.581  0.00  0.00    +0.000 C 
ATOM     30  C   UNL     1       5.766   3.731  13.221  0.00  0.00    +0.000 C 
ENDBRANCH  19  28
ENDBRANCH   2  17
TORSDOF 5
ENDMDL
MODEL 8
REMARK VINA RESULT:      -8.4      2.125      2.536
REMARK  Name = 
REMARK  5 active torsions:
REMARK  status: ('A' for Active; 'I' for Inactive)
REMARK    1  A    between atoms: C_2  and  C_16
REMARK    2  A    between atoms: N_3  and  C_4
REMARK    3  A    between atoms: C_7  and  N_8
REMARK    4  A    between atoms: C_18  and  C_19
REMARK    5  A    between atoms: N_23  and  C_24
REMARK                            x       y       z     vdW  Elec       q    Type
REMARK                         _______ _______ _______ _____ _____    ______ ____
ROOT
ATOM      1  O   UNL     1       1.998   7.414  20.114  0.00  0.00    +0.000 OA
ATOM      2  C   UNL     1       2.318   7.633  18.953  0.00  0.00    +0.000 C 
ATOM      3  N   UNL     1       1.826   8.663  18.168  0.00  0.00    +0.000 N 
ATOM      4  H   UNL     1       2.107   8.675  17.198  0.00  0.00    +0.000 HD
ENDROOT
BRANCH   3   5
ATOM      5  C   UNL     1       0.816   9.576  18.537  0.00  0.00    +0.000 A 
ATOM      6  C   UNL     1       0.873  10.349  19.694  0.00  0.00    +0.000 A 
ATOM      7  C   UNL     1      -0.193  11.175  20.057  0.00  0.00    +0.000 A 
ATOM      8  C   UNL     1      -1.354  11.246  19.288  0.00  0.00    +0.000 A 
ATOM      9  C   UNL     1      -1.388  10.499  18.100  0.00  0.00    +0.000 A 
ATOM     10  C   UNL     1      -0.306   9.686  17.721  0.00  0.00    +0.000 A 
BRANCH   8  11
ATOM     11  N   UNL     1      -2.472  12.011  19.713  0.00  0.00    +0.000 N 
ATOM     12  C   UNL     1      -2.339  13.142  20.599  0.00  0.00    +0.000 C 
ATOM     13  C   UNL     1      -3.761  13.514  20.957  0.00  0.00    +0.000 C 
ATOM     14  C   UNL     1      -4.557  13.106  19.734  0.00  0.00    +0.000 C 
ATOM     15  C   UNL     1      -3.769  11.956  19.168  0.00  0.00    +0.000 C 
ATOM     16  O   UNL     1      -4.238  11.174  18.358  0.00  0.00    +0.000 OA
ENDBRANCH   8  11
ENDBRANCH   3   5
BRANCH   2  17
ATOM     17  C   UNL     1       3.229   6.770  18.248  0.00  0.00    +0.000 A 
ATOM     18  C   UNL     1       4.130   7.100  17.253  0.00  0.00    +0.000 A 
ATOM     19  C   UNL     1       4.830   5.918  16.990  0.00  0.00    +0.000 A 
ATOM     20  N   UNL     1       4.485   4.929  17.810  0.00  0.00    +0.000 NA
ATOM     21  N   UNL     1       3.431   5.422  18.523  0.00  0.00    +0.000 N 
BRANCH  21  22
ATOM     22  C   UNL     1       2.655   4.532  19.324  0.00  0.00    +0.000 A 
ATOM     23  C   UNL     1       1.520   3.921  18.772  0.00  0.00    +0.000 A 
ATOM     24  C   UNL     1       0.761   3.030  19.536  0.00  0.00    +0.000 A 
ATOM     25  C   UNL     1       1.110   2.765  20.860  0.00  0.00    +0.000 A 
ATOM     26  C   UNL     1       2.216   3.394  21.425  0.00  0.00    +0.000 A 
ATOM     27  C   UNL     1       2.986   4.276  20.663  0.00  0.00    +0.000 A 
ENDBRANCH  21  22
BRANCH  19  28
ATOM     28  C   UNL     1       5.859   5.805  15.879  0.00  0.00    +0.000 C 
ATOM     29  C   UNL     1       5.558   4.875  14.719  0.00  0.00    +0.000 C 
ATOM     30  C   UNL     1       6.621   4.511  15.700  0.00  0.00    +0.000 C 
ENDBRANCH  19  28
ENDBRANCH   2  17
TORSDOF 5
ENDMDL
MODEL 9
REMARK VINA RESULT:      -8.4      1.750      2.580
REMARK  Name = 
REMARK  5 active torsions:
REMARK  status: ('A' for Active; 'I' for Inactive)
REMARK    1  A    between atoms: C_2  and  C_16
REMARK    2  A    between atoms: N_3  and  C_4
REMARK    3  A    between atoms: C_7  and  N_8
REMARK    4  A    between atoms: C_18  and  C_19
REMARK    5  A    between atoms: N_23  and  C_24
REMARK                            x       y       z     vdW  Elec       q    Type
REMARK                         _______ _______ _______ _____ _____    ______ ____
ROOT
ATOM      1  O   UNL     1       5.135   7.096  18.524  0.00  0.00    +0.000 OA
ATOM      2  C   UNL     1       4.280   6.484  17.897  0.00  0.00    +0.000 C 
ATOM      3  N   UNL     1       2.918   6.733  17.949  0.00  0.00    +0.000 N 
ATOM      4  H   UNL     1       2.315   6.094  17.450  0.00  0.00    +0.000 HD
ENDROOT
BRANCH   3   5
ATOM      5  C   UNL     1       2.278   7.666  18.791  0.00  0.00    +0.000 A 
ATOM      6  C   UNL     1       2.016   7.424  20.138  0.00  0.00    +0.000 A 
ATOM      7  C   UNL     1       1.303   8.346  20.906  0.00  0.00    +0.000 A 
ATOM      8  C   UNL     1       0.815   9.531  20.355  0.00  0.00    +0.000 A 
ATOM      9  C   UNL     1       1.120   9.790  19.010  0.00  0.00    +0.000 A 
ATOM     10  C   UNL     1       1.859   8.874  18.241  0.00  0.00    +0.000 A 
BRANCH   8  11
ATOM     11  N   UNL     1       0.009  10.417  21.115  0.00  0.00    +0.000 N 
ATOM     12  C   UNL     1      -0.983  11.272  20.505  0.00  0.00    +0.000 C 
ATOM     13  C   UNL     1      -1.439  12.183  21.624  0.00  0.00    +0.000 C 
ATOM     14  C   UNL     1      -1.268  11.336  22.869  0.00  0.00    +0.000 C 
ATOM     15  C   UNL     1      -0.130  10.417  22.516  0.00  0.00    +0.000 C 
ATOM     16  O   UNL     1       0.494   9.792  23.358  0.00  0.00    +0.000 OA
ENDBRANCH   8  11
ENDBRANCH   3   5
BRANCH   2  17
ATOM     17  C   UNL     1       4.620   5.366  17.058  0.00  0.00    +0.000 A 
ATOM     18  C   UNL     1       5.391   5.355  15.911  0.00  0.00    +0.000 A 
ATOM     19  C   UNL     1       5.486   4.007  15.550  0.00  0.00    +0.000 A 
ATOM     20  N   UNL     1       4.910   3.200  16.437  0.00  0.00    +0.000 NA
ATOM     21  N   UNL     1       4.292   4.040  17.318  0.00  0.00    +0.000 N 
BRANCH  21  22
ATOM     22  C   UNL     1       3.368   3.500  18.262  0.00  0.00    +0.000 A 
ATOM     23  C   UNL     1       2.077   3.151  17.839  0.00  0.00    +0.000 A 
ATOM     24  C   UNL     1       1.167   2.601  18.746  0.00  0.00    +0.000 A 
ATOM     25  C   UNL     1       1.525   2.424  20.082  0.00  0.00    +0.000 A 
ATOM     26  C   UNL     1       2.794   2.800  20.516  0.00  0.00    +0.000 A 
ATOM     27  C   UNL     1       3.713   3.339  19.612  0.00  0.00    +0.000 A 
ENDBRANCH  21  22
BRANCH  19  28
ATOM     28  C   UNL     1       6.171   3.547  14.275  0.00  0.00    +0.000 C 
ATOM     29  C   UNL     1       6.837   4.596  13.404  0.00  0.00    +0.000 C 
ATOM     30  C   UNL     1       5.586   3.933  12.935  0.00  0.00    +0.000 C 
ENDBRANCH  19  28
ENDBRANCH   2  17
TORSDOF 5
ENDMDL
