MODEL 1
REMARK VINA RESULT:      -8.7      0.000      0.000
REMARK  Name = 
REMARK  2 active torsions:
REMARK  status: ('A' for Active; 'I' for Inactive)
REMARK    1  A    between atoms: C_2  and  C_3
REMARK    2  A    between atoms: C_16  and  C_17
REMARK                            x       y       z     vdW  Elec       q    Type
REMARK                         _______ _______ _______ _____ _____    ______ ____
ROOT
ATOM      1  O   UNL     1       1.509   9.586  22.445  0.00  0.00    +0.000 OA
ATOM      2  C   UNL     1       1.053   9.380  21.320  0.00  0.00    +0.000 C 
ATOM      3  N   UNL     1       0.082  10.220  20.764  0.00  0.00    +0.000 N 
ATOM      4  C   UNL     1      -0.389  10.178  19.381  0.00  0.00    +0.000 C 
ATOM      5  C   UNL     1      -0.444  11.565  18.755  0.00  0.00    +0.000 C 
ATOM      6  C   UNL     1      -1.205  12.574  19.610  0.00  0.00    +0.000 C 
ATOM      7  C   UNL     1      -0.729  12.535  21.067  0.00  0.00    +0.000 C 
ATOM      8  C   UNL     1      -0.663  11.120  21.639  0.00  0.00    +0.000 C 
ENDROOT
BRANCH   2   9
ATOM      9  C   UNL     1       1.569   8.278  20.527  0.00  0.00    +0.000 A 
ATOM     10  C   UNL     1       2.087   8.215  19.245  0.00  0.00    +0.000 A 
ATOM     11  C   UNL     1       2.550   6.898  19.008  0.00  0.00    +0.000 A 
ATOM     12  C   UNL     1       3.252   6.297  17.948  0.00  0.00    +0.000 A 
ATOM     13  C   UNL     1       3.498   4.925  18.005  0.00  0.00    +0.000 A 
ATOM     14 CL   UNL     1       4.332   4.168  16.703  0.00  0.00    +0.000 Cl
ATOM     15  C   UNL     1       3.069   4.160  19.088  0.00  0.00    +0.000 A 
ATOM     16  C   UNL     1       2.398   4.750  20.167  0.00  0.00    +0.000 A 
ATOM     17  C   UNL     1       2.161   6.127  20.098  0.00  0.00    +0.000 A 
ATOM     18  N   UNL     1       1.541   6.976  20.987  0.00  0.00    +0.000 N 
ATOM     19  H   UNL     1       1.146   6.708  21.879  0.00  0.00    +0.000 HD
ENDBRANCH   2   9
BRANCH   6  20
ATOM     20  C   UNL     1      -2.687  12.382  19.491  0.00  0.00    +0.000 A 
ATOM     21  N   UNL     1      -3.603  12.576  20.417  0.00  0.00    +0.000 NA
ATOM     22  C   UNL     1      -4.805  12.262  19.830  0.00  0.00    +0.000 A 
ATOM     23  C   UNL     1      -6.106  12.302  20.353  0.00  0.00    +0.000 A 
ATOM     24  C   UNL     1      -7.177  11.938  19.526  0.00  0.00    +0.000 A 
ATOM     25  C   UNL     1      -6.954  11.537  18.203  0.00  0.00    +0.000 A 
ATOM     26  C   UNL     1      -5.662  11.483  17.665  0.00  0.00    +0.000 A 
ATOM     27  C   UNL     1      -4.618  11.858  18.515  0.00  0.00    +0.000 A 
ATOM     28  N   UNL     1      -3.264  11.930  18.327  0.00  0.00    +0.000 N 
ATOM     29  H   UNL     1      -2.773  11.690  17.480  0.00  0.00    +0.000 HD
ENDBRANCH   6  20
TORSDOF 2
ENDMDL
MODEL 2
REMARK VINA RESULT:      -8.5      0.204      1.127
REMARK  Name = 
REMARK  2 active torsions:
REMARK  status: ('A' for Active; 'I' for Inactive)
REMARK    1  A    between atoms: C_2  and  C_3
REMARK    2  A    between atoms: C_16  and  C_17
REMARK                            x       y       z     vdW  Elec       q    Type
REMARK                         _______ _______ _______ _____ _____    ______ ____
ROOT
ATOM      1  O   UNL     1       1.484   9.543  22.331  0.00  0.00    +0.000 OA
ATOM      2  C   UNL     1       1.043   9.311  21.204  0.00  0.00    +0.000 C 
ATOM      3  N   UNL     1       0.066  10.127  20.624  0.00  0.00    +0.000 N 
ATOM      4  C   UNL     1      -0.388  10.055  19.237  0.00  0.00    +0.000 C 
ATOM      5  C   UNL     1      -0.458  11.429  18.587  0.00  0.00    +0.000 C 
ATOM      6  C   UNL     1      -1.244  12.441  19.417  0.00  0.00    +0.000 C 
ATOM      7  C   UNL     1      -0.782  12.434  20.879  0.00  0.00    +0.000 C 
ATOM      8  C   UNL     1      -0.702  11.030  21.476  0.00  0.00    +0.000 C 
ENDROOT
BRANCH   2   9
ATOM      9  C   UNL     1       1.585   8.204  20.436  0.00  0.00    +0.000 A 
ATOM     10  C   UNL     1       2.116   8.127  19.160  0.00  0.00    +0.000 A 
ATOM     11  C   UNL     1       2.603   6.814  18.950  0.00  0.00    +0.000 A 
ATOM     12  C   UNL     1       3.324   6.205  17.908  0.00  0.00    +0.000 A 
ATOM     13  C   UNL     1       3.592   4.839  17.992  0.00  0.00    +0.000 A 
ATOM     14 CL   UNL     1       4.450   4.073  16.710  0.00  0.00    +0.000 Cl
ATOM     15  C   UNL     1       3.165   4.086  19.084  0.00  0.00    +0.000 A 
ATOM     16  C   UNL     1       2.475   4.684  20.147  0.00  0.00    +0.000 A 
ATOM     17  C   UNL     1       2.216   6.056  20.051  0.00  0.00    +0.000 A 
ATOM     18  N   UNL     1       1.574   6.911  20.919  0.00  0.00    +0.000 N 
ATOM     19  H   UNL     1       1.176   6.651  21.812  0.00  0.00    +0.000 HD
ENDBRANCH   2   9
BRANCH   6  20
ATOM     20  C   UNL     1      -2.721  12.225  19.284  0.00  0.00    +0.000 A 
ATOM     21  N   UNL     1      -3.365  11.647  18.292  0.00  0.00    +0.000 NA
ATOM     22  C   UNL     1      -4.696  11.693  18.630  0.00  0.00    +0.000 A 
ATOM     23  C   UNL     1      -5.822  11.212  17.944  0.00  0.00    +0.000 A 
ATOM     24  C   UNL     1      -7.087  11.378  18.525  0.00  0.00    +0.000 A 
ATOM     25  C   UNL     1      -7.226  12.015  19.763  0.00  0.00    +0.000 A 
ATOM     26  C   UNL     1      -6.116  12.509  20.460  0.00  0.00    +0.000 A 
ATOM     27  C   UNL     1      -4.870  12.322  19.855  0.00  0.00    +0.000 A 
ATOM     28  N   UNL     1      -3.603  12.662  20.245  0.00  0.00    +0.000 N 
ATOM     29  H   UNL     1      -3.358  13.152  21.091  0.00  0.00    +0.000 HD
ENDBRANCH   6  20
TORSDOF 2
ENDMDL
MODEL 3
REMARK VINA RESULT:      -8.4      2.602      3.866
REMARK  Name = 
REMARK  2 active torsions:
REMARK  status: ('A' for Active; 'I' for Inactive)
REMARK    1  A    between atoms: C_2  and  C_3
REMARK    2  A    between atoms: C_16  and  C_17
REMARK                            x       y       z     vdW  Elec       q    Type
REMARK                         _______ _______ _______ _____ _____    ______ ____
ROOT
ATOM      1  O   UNL     1       2.783   5.857  20.646  0.00  0.00    +0.000 OA
ATOM      2  C   UNL     1       2.769   6.412  19.547  0.00  0.00    +0.000 C 
ATOM      3  N   UNL     1       2.005   7.562  19.322  0.00  0.00    +0.000 N 
ATOM      4  C   UNL     1       2.057   8.397  18.124  0.00  0.00    +0.000 C 
ATOM      5  C   UNL     1       2.136   9.879  18.465  0.00  0.00    +0.000 C 
ATOM      6  C   UNL     1       1.059  10.322  19.451  0.00  0.00    +0.000 C 
ATOM      7  C   UNL     1       0.991   9.378  20.656  0.00  0.00    +0.000 C 
ATOM      8  C   UNL     1       0.942   7.903  20.262  0.00  0.00    +0.000 C 
ENDROOT
BRANCH   2   9
ATOM      9  C   UNL     1       3.602   5.897  18.473  0.00  0.00    +0.000 A 
ATOM     10  C   UNL     1       3.356   4.990  17.458  0.00  0.00    +0.000 A 
ATOM     11  C   UNL     1       4.491   4.936  16.613  0.00  0.00    +0.000 A 
ATOM     12  C   UNL     1       4.761   4.288  15.395  0.00  0.00    +0.000 A 
ATOM     13  C   UNL     1       6.041   4.397  14.851  0.00  0.00    +0.000 A 
ATOM     14 CL   UNL     1       6.394   3.587  13.373  0.00  0.00    +0.000 Cl
ATOM     15  C   UNL     1       7.035   5.135  15.489  0.00  0.00    +0.000 A 
ATOM     16  C   UNL     1       6.774   5.814  16.686  0.00  0.00    +0.000 A 
ATOM     17  C   UNL     1       5.485   5.700  17.219  0.00  0.00    +0.000 A 
ATOM     18  N   UNL     1       4.933   6.242  18.357  0.00  0.00    +0.000 N 
ATOM     19  H   UNL     1       5.413   6.847  19.013  0.00  0.00    +0.000 HD
ENDBRANCH   2   9
BRANCH   6  20
ATOM     20  C   UNL     1      -0.269  10.475  18.773  0.00  0.00    +0.000 A 
ATOM     21  N   UNL     1      -1.358  11.042  19.251  0.00  0.00    +0.000 NA
ATOM     22  C   UNL     1      -2.305  10.930  18.262  0.00  0.00    +0.000 A 
ATOM     23  C   UNL     1      -3.636  11.373  18.229  0.00  0.00    +0.000 A 
ATOM     24  C   UNL     1      -4.396  11.142  17.074  0.00  0.00    +0.000 A 
ATOM     25  C   UNL     1      -3.840  10.476  15.975  0.00  0.00    +0.000 A 
ATOM     26  C   UNL     1      -2.516  10.020  15.991  0.00  0.00    +0.000 A 
ATOM     27  C   UNL     1      -1.785  10.272  17.155  0.00  0.00    +0.000 A 
ATOM     28  N   UNL     1      -0.495   9.982  17.509  0.00  0.00    +0.000 N 
ATOM     29  H   UNL     1       0.175   9.488  16.940  0.00  0.00    +0.000 HD
ENDBRANCH   6  20
TORSDOF 2
ENDMDL
MODEL 4
REMARK VINA RESULT:      -8.4      2.246      3.148
REMARK  Name = 
REMARK  2 active torsions:
REMARK  status: ('A' for Active; 'I' for Inactive)
REMARK    1  A    between atoms: C_2  and  C_3
REMARK    2  A    between atoms: C_16  and  C_17
REMARK                            x       y       z     vdW  Elec       q    Type
REMARK                         _______ _______ _______ _____ _____    ______ ____
ROOT
ATOM      1  O   UNL     1       2.568   6.667  20.780  0.00  0.00    +0.000 OA
ATOM      2  C   UNL     1       2.477   7.146  19.648  0.00  0.00    +0.000 C 
ATOM      3  N   UNL     1       1.690   8.275  19.398  0.00  0.00    +0.000 N 
ATOM      4  C   UNL     1       1.657   9.028  18.146  0.00  0.00    +0.000 C 
ATOM      5  C   UNL     1       1.746  10.529  18.381  0.00  0.00    +0.000 C 
ATOM      6  C   UNL     1       0.731  11.033  19.404  0.00  0.00    +0.000 C 
ATOM      7  C   UNL     1       0.751  10.172  20.672  0.00  0.00    +0.000 C 
ATOM      8  C   UNL     1       0.688   8.674  20.381  0.00  0.00    +0.000 C 
ENDROOT
BRANCH   2   9
ATOM      9  C   UNL     1       3.243   6.564  18.560  0.00  0.00    +0.000 A 
ATOM     10  C   UNL     1       3.958   7.129  17.518  0.00  0.00    +0.000 A 
ATOM     11  C   UNL     1       4.612   6.096  16.804  0.00  0.00    +0.000 A 
ATOM     12  C   UNL     1       5.539   6.088  15.747  0.00  0.00    +0.000 A 
ATOM     13  C   UNL     1       5.941   4.861  15.222  0.00  0.00    +0.000 A 
ATOM     14 CL   UNL     1       7.055   4.835  13.909  0.00  0.00    +0.000 Cl
ATOM     15  C   UNL     1       5.447   3.662  15.732  0.00  0.00    +0.000 A 
ATOM     16  C   UNL     1       4.549   3.651  16.807  0.00  0.00    +0.000 A 
ATOM     17  C   UNL     1       4.157   4.890  17.327  0.00  0.00    +0.000 A 
ATOM     18  N   UNL     1       3.305   5.199  18.363  0.00  0.00    +0.000 N 
ATOM     19  H   UNL     1       2.813   4.529  18.940  0.00  0.00    +0.000 HD
ENDBRANCH   2   9
BRANCH   6  20
ATOM     20  C   UNL     1      -0.640  11.135  18.806  0.00  0.00    +0.000 A 
ATOM     21  N   UNL     1      -1.756  11.492  19.406  0.00  0.00    +0.000 NA
ATOM     22  C   UNL     1      -2.737  11.426  18.445  0.00  0.00    +0.000 A 
ATOM     23  C   UNL     1      -4.108  11.711  18.530  0.00  0.00    +0.000 A 
ATOM     24  C   UNL     1      -4.898  11.575  17.381  0.00  0.00    +0.000 A 
ATOM     25  C   UNL     1      -4.331  11.156  16.171  0.00  0.00    +0.000 A 
ATOM     26  C   UNL     1      -2.967  10.859  16.068  0.00  0.00    +0.000 A 
ATOM     27  C   UNL     1      -2.208  11.011  17.231  0.00  0.00    +0.000 A 
ATOM     28  N   UNL     1      -0.877  10.821  17.488  0.00  0.00    +0.000 N 
ATOM     29  H   UNL     1      -0.188  10.501  16.825  0.00  0.00    +0.000 HD
ENDBRANCH   6  20
TORSDOF 2
ENDMDL
MODEL 5
REMARK VINA RESULT:      -8.4      0.793      1.274
REMARK  Name = 
REMARK  2 active torsions:
REMARK  status: ('A' for Active; 'I' for Inactive)
REMARK    1  A    between atoms: C_2  and  C_3
REMARK    2  A    between atoms: C_16  and  C_17
REMARK                            x       y       z     vdW  Elec       q    Type
REMARK                         _______ _______ _______ _____ _____    ______ ____
ROOT
ATOM      1  O   UNL     1       1.479   9.350  22.559  0.00  0.00    +0.000 OA
ATOM      2  C   UNL     1       1.023   9.104  21.442  0.00  0.00    +0.000 C 
ATOM      3  N   UNL     1       0.121   9.971  20.817  0.00  0.00    +0.000 N 
ATOM      4  C   UNL     1      -0.335   9.872  19.432  0.00  0.00    +0.000 C 
ATOM      5  C   UNL     1      -0.285  11.215  18.718  0.00  0.00    +0.000 C 
ATOM      6  C   UNL     1      -0.983  12.329  19.494  0.00  0.00    +0.000 C 
ATOM      7  C   UNL     1      -0.528  12.351  20.957  0.00  0.00    +0.000 C 
ATOM      8  C   UNL     1      -0.570  10.976  21.620  0.00  0.00    +0.000 C 
ENDROOT
BRANCH   2   9
ATOM      9  C   UNL     1       1.470   7.919  20.731  0.00  0.00    +0.000 A 
ATOM     10  C   UNL     1       1.311   6.567  20.982  0.00  0.00    +0.000 A 
ATOM     11  C   UNL     1       1.855   5.838  19.897  0.00  0.00    +0.000 A 
ATOM     12  C   UNL     1       1.877   4.472  19.565  0.00  0.00    +0.000 A 
ATOM     13  C   UNL     1       2.576   4.074  18.425  0.00  0.00    +0.000 A 
ATOM     14 CL   UNL     1       2.635   2.402  18.019  0.00  0.00    +0.000 Cl
ATOM     15  C   UNL     1       3.236   5.003  17.623  0.00  0.00    +0.000 A 
ATOM     16  C   UNL     1       3.196   6.371  17.922  0.00  0.00    +0.000 A 
ATOM     17  C   UNL     1       2.488   6.757  19.066  0.00  0.00    +0.000 A 
ATOM     18  N   UNL     1       2.269   8.003  19.608  0.00  0.00    +0.000 N 
ATOM     19  H   UNL     1       2.608   8.877  19.228  0.00  0.00    +0.000 HD
ENDBRANCH   2   9
BRANCH   6  20
ATOM     20  C   UNL     1      -2.474  12.233  19.362  0.00  0.00    +0.000 A 
ATOM     21  N   UNL     1      -3.384  12.537  20.263  0.00  0.00    +0.000 NA
ATOM     22  C   UNL     1      -4.598  12.275  19.675  0.00  0.00    +0.000 A 
ATOM     23  C   UNL     1      -5.899  12.431  20.177  0.00  0.00    +0.000 A 
ATOM     24  C   UNL     1      -6.983  12.100  19.353  0.00  0.00    +0.000 A 
ATOM     25  C   UNL     1      -6.773  11.617  18.056  0.00  0.00    +0.000 A 
ATOM     26  C   UNL     1      -5.482  11.447  17.540  0.00  0.00    +0.000 A 
ATOM     27  C   UNL     1      -4.425  11.792  18.385  0.00  0.00    +0.000 A 
ATOM     28  N   UNL     1      -3.067  11.762  18.214  0.00  0.00    +0.000 N 
ATOM     29  H   UNL     1      -2.584  11.446  17.387  0.00  0.00    +0.000 HD
ENDBRANCH   6  20
TORSDOF 2
ENDMDL
MODEL 6
REMARK VINA RESULT:      -8.2      0.857      1.702
REMARK  Name = 
REMARK  2 active torsions:
REMARK  status: ('A' for Active; 'I' for Inactive)
REMARK    1  A    between atoms: C_2  and  C_3
REMARK    2  A    between atoms: C_16  and  C_17
REMARK                            x       y       z     vdW  Elec       q    Type
REMARK                         _______ _______ _______ _____ _____    ______ ____
ROOT
ATOM      1  O   UNL     1       1.486   9.206  22.445  0.00  0.00    +0.000 OA
ATOM      2  C   UNL     1       1.086   8.965  21.305  0.00  0.00    +0.000 C 
ATOM      3  N   UNL     1       0.202   9.826  20.647  0.00  0.00    +0.000 N 
ATOM      4  C   UNL     1      -0.187   9.735  19.241  0.00  0.00    +0.000 C 
ATOM      5  C   UNL     1      -0.122  11.085  18.542  0.00  0.00    +0.000 C 
ATOM      6  C   UNL     1      -0.871  12.182  19.295  0.00  0.00    +0.000 C 
ATOM      7  C   UNL     1      -0.485  12.196  20.778  0.00  0.00    +0.000 C 
ATOM      8  C   UNL     1      -0.539  10.814  21.426  0.00  0.00    +0.000 C 
ENDROOT
BRANCH   2   9
ATOM      9  C   UNL     1       1.581   7.793  20.605  0.00  0.00    +0.000 A 
ATOM     10  C   UNL     1       1.478   6.438  20.868  0.00  0.00    +0.000 A 
ATOM     11  C   UNL     1       2.052   5.721  19.791  0.00  0.00    +0.000 A 
ATOM     12  C   UNL     1       2.130   4.355  19.470  0.00  0.00    +0.000 A 
ATOM     13  C   UNL     1       2.846   3.976  18.335  0.00  0.00    +0.000 A 
ATOM     14 CL   UNL     1       2.974   2.304  17.944  0.00  0.00    +0.000 Cl
ATOM     15  C   UNL     1       3.468   4.924  17.525  0.00  0.00    +0.000 A 
ATOM     16  C   UNL     1       3.371   6.292  17.811  0.00  0.00    +0.000 A 
ATOM     17  C   UNL     1       2.647   6.658  18.951  0.00  0.00    +0.000 A 
ATOM     18  N   UNL     1       2.378   7.899  19.483  0.00  0.00    +0.000 N 
ATOM     19  H   UNL     1       2.681   8.783  19.095  0.00  0.00    +0.000 HD
ENDBRANCH   2   9
BRANCH   6  20
ATOM     20  C   UNL     1      -2.352  12.068  19.092  0.00  0.00    +0.000 A 
ATOM     21  N   UNL     1      -2.988  11.378  18.169  0.00  0.00    +0.000 NA
ATOM     22  C   UNL     1      -4.327  11.593  18.394  0.00  0.00    +0.000 A 
ATOM     23  C   UNL     1      -5.451  11.093  17.719  0.00  0.00    +0.000 A 
ATOM     24  C   UNL     1      -6.726  11.462  18.167  0.00  0.00    +0.000 A 
ATOM     25  C   UNL     1      -6.877  12.317  19.265  0.00  0.00    +0.000 A 
ATOM     26  C   UNL     1      -5.768  12.833  19.947  0.00  0.00    +0.000 A 
ATOM     27  C   UNL     1      -4.512  12.441  19.478  0.00  0.00    +0.000 A 
ATOM     28  N   UNL     1      -3.244  12.739  19.896  0.00  0.00    +0.000 N 
ATOM     29  H   UNL     1      -3.003  13.349  20.662  0.00  0.00    +0.000 HD
ENDBRANCH   6  20
TORSDOF 2
ENDMDL
MODEL 7
REMARK VINA RESULT:      -8.2      1.587      2.146
REMARK  Name = 
REMARK  2 active torsions:
REMARK  status: ('A' for Active; 'I' for Inactive)
REMARK    1  A    between atoms: C_2  and  C_3
REMARK    2  A    between atoms: C_16  and  C_17
REMARK                            x       y       z     vdW  Elec       q    Type
REMARK                         _______ _______ _______ _____ _____    ______ ____
ROOT
ATOM      1  O   UNL     1       1.970  11.269  19.222  0.00  0.00    +0.000 OA
ATOM      2  C   UNL     1       1.180  10.365  18.944  0.00  0.00    +0.000 C 
ATOM      3  N   UNL     1      -0.152  10.638  18.617  0.00  0.00    +0.000 N 
ATOM      4  C   UNL     1      -1.115   9.670  18.095  0.00  0.00    +0.000 C 
ATOM      5  C   UNL     1      -1.886  10.218  16.902  0.00  0.00    +0.000 C 
ATOM      6  C   UNL     1      -2.505  11.587  17.171  0.00  0.00    +0.000 C 
ATOM      7  C   UNL     1      -1.479  12.548  17.781  0.00  0.00    +0.000 C 
ATOM      8  C   UNL     1      -0.713  11.942  18.956  0.00  0.00    +0.000 C 
ENDROOT
BRANCH   2   9
ATOM      9  C   UNL     1       1.651   8.991  18.899  0.00  0.00    +0.000 A 
ATOM     10  C   UNL     1       2.190   8.225  17.881  0.00  0.00    +0.000 A 
ATOM     11  C   UNL     1       2.585   6.974  18.416  0.00  0.00    +0.000 A 
ATOM     12  C   UNL     1       3.273   5.869  17.885  0.00  0.00    +0.000 A 
ATOM     13  C   UNL     1       3.442   4.741  18.687  0.00  0.00    +0.000 A 
ATOM     14 CL   UNL     1       4.258   3.369  18.042  0.00  0.00    +0.000 Cl
ATOM     15  C   UNL     1       2.949   4.702  19.990  0.00  0.00    +0.000 A 
ATOM     16  C   UNL     1       2.291   5.806  20.545  0.00  0.00    +0.000 A 
ATOM     17  C   UNL     1       2.132   6.933  19.731  0.00  0.00    +0.000 A 
ATOM     18  N   UNL     1       1.542   8.150  19.988  0.00  0.00    +0.000 N 
ATOM     19  H   UNL     1       1.115   8.423  20.864  0.00  0.00    +0.000 HD
ENDBRANCH   2   9
BRANCH   6  20
ATOM     20  C   UNL     1      -3.743  11.470  18.007  0.00  0.00    +0.000 A 
ATOM     21  N   UNL     1      -4.682  10.549  17.934  0.00  0.00    +0.000 NA
ATOM     22  C   UNL     1      -5.604  10.874  18.900  0.00  0.00    +0.000 A 
ATOM     23  C   UNL     1      -6.794  10.228  19.268  0.00  0.00    +0.000 A 
ATOM     24  C   UNL     1      -7.557  10.766  20.314  0.00  0.00    +0.000 A 
ATOM     25  C   UNL     1      -7.143  11.928  20.975  0.00  0.00    +0.000 A 
ATOM     26  C   UNL     1      -5.962  12.591  20.617  0.00  0.00    +0.000 A 
ATOM     27  C   UNL     1      -5.223  12.025  19.575  0.00  0.00    +0.000 A 
ATOM     28  N   UNL     1      -4.045  12.392  18.982  0.00  0.00    +0.000 N 
ATOM     29  H   UNL     1      -3.494  13.203  19.218  0.00  0.00    +0.000 HD
ENDBRANCH   6  20
TORSDOF 2
ENDMDL
MODEL 8
REMARK VINA RESULT:      -8.2      1.660      2.452
REMARK  Name = 
REMARK  2 active torsions:
REMARK  status: ('A' for Active; 'I' for Inactive)
REMARK    1  A    between atoms: C_2  and  C_3
REMARK    2  A    between atoms: C_16  and  C_17
REMARK                            x       y       z     vdW  Elec       q    Type
REMARK                         _______ _______ _______ _____ _____    ______ ____
ROOT
ATOM      1  O   UNL     1       1.959   7.351  21.295  0.00  0.00    +0.000 OA
ATOM      2  C   UNL     1       1.849   7.756  20.137  0.00  0.00    +0.000 C 
ATOM      3  N   UNL     1       1.053   8.864  19.826  0.00  0.00    +0.000 N 
ATOM      4  C   UNL     1       0.998   9.535  18.529  0.00  0.00    +0.000 C 
ATOM      5  C   UNL     1       1.083  11.048  18.666  0.00  0.00    +0.000 C 
ATOM      6  C   UNL     1       0.081  11.614  19.669  0.00  0.00    +0.000 C 
ATOM      7  C   UNL     1       0.124  10.836  20.990  0.00  0.00    +0.000 C 
ATOM      8  C   UNL     1       0.064   9.322  20.797  0.00  0.00    +0.000 C 
ENDROOT
BRANCH   2   9
ATOM      9  C   UNL     1       2.600   7.108  19.077  0.00  0.00    +0.000 A 
ATOM     10  C   UNL     1       3.390   7.608  18.056  0.00  0.00    +0.000 A 
ATOM     11  C   UNL     1       3.984   6.522  17.369  0.00  0.00    +0.000 A 
ATOM     12  C   UNL     1       4.940   6.434  16.342  0.00  0.00    +0.000 A 
ATOM     13  C   UNL     1       5.262   5.174  15.836  0.00  0.00    +0.000 A 
ATOM     14 CL   UNL     1       6.411   5.052  14.560  0.00  0.00    +0.000 Cl
ATOM     15  C   UNL     1       4.660   4.021  16.336  0.00  0.00    +0.000 A 
ATOM     16  C   UNL     1       3.730   4.089  17.382  0.00  0.00    +0.000 A 
ATOM     17  C   UNL     1       3.419   5.358  17.882  0.00  0.00    +0.000 A 
ATOM     18  N   UNL     1       2.562   5.741  18.889  0.00  0.00    +0.000 N 
ATOM     19  H   UNL     1       2.001   5.115  19.454  0.00  0.00    +0.000 HD
ENDBRANCH   2   9
BRANCH   6  20
ATOM     20  C   UNL     1      -1.299  11.672  19.087  0.00  0.00    +0.000 A 
ATOM     21  N   UNL     1      -1.667  11.383  17.857  0.00  0.00    +0.000 NA
ATOM     22  C   UNL     1      -3.025  11.594  17.811  0.00  0.00    +0.000 A 
ATOM     23  C   UNL     1      -3.931  11.429  16.753  0.00  0.00    +0.000 A 
ATOM     24  C   UNL     1      -5.287  11.705  16.977  0.00  0.00    +0.000 A 
ATOM     25  C   UNL     1      -5.728  12.143  18.232  0.00  0.00    +0.000 A 
ATOM     26  C   UNL     1      -4.838  12.321  19.298  0.00  0.00    +0.000 A 
ATOM     27  C   UNL     1      -3.495  12.032  19.041  0.00  0.00    +0.000 A 
ATOM     28  N   UNL     1      -2.379  12.085  19.832  0.00  0.00    +0.000 N 
ATOM     29  H   UNL     1      -2.352  12.381  20.795  0.00  0.00    +0.000 HD
ENDBRANCH   6  20
TORSDOF 2
ENDMDL
MODEL 9
REMARK VINA RESULT:      -8.1      2.519      3.978
REMARK  Name = 
REMARK  2 active torsions:
REMARK  status: ('A' for Active; 'I' for Inactive)
REMARK    1  A    between atoms: C_2  and  C_3
REMARK    2  A    between atoms: C_16  and  C_17
REMARK                            x       y       z     vdW  Elec       q    Type
REMARK                         _______ _______ _______ _____ _____    ______ ____
ROOT
ATOM      1  O   UNL     1       2.736   5.661  20.749  0.00  0.00    +0.000 OA
ATOM      2  C   UNL     1       2.760   6.227  19.656  0.00  0.00    +0.000 C 
ATOM      3  N   UNL     1       2.018   7.390  19.423  0.00  0.00    +0.000 N 
ATOM      4  C   UNL     1       2.116   8.238  18.236  0.00  0.00    +0.000 C 
ATOM      5  C   UNL     1       2.205   9.714  18.596  0.00  0.00    +0.000 C 
ATOM      6  C   UNL     1       1.107  10.161  19.557  0.00  0.00    +0.000 C 
ATOM      7  C   UNL     1       0.993   9.205  20.750  0.00  0.00    +0.000 C 
ATOM      8  C   UNL     1       0.934   7.735  20.337  0.00  0.00    +0.000 C 
ENDROOT
BRANCH   2   9
ATOM      9  C   UNL     1       3.616   5.713  18.601  0.00  0.00    +0.000 A 
ATOM     10  C   UNL     1       3.346   4.989  17.453  0.00  0.00    +0.000 A 
ATOM     11  C   UNL     1       4.544   4.848  16.713  0.00  0.00    +0.000 A 
ATOM     12  C   UNL     1       4.842   4.315  15.446  0.00  0.00    +0.000 A 
ATOM     13  C   UNL     1       6.175   4.272  15.038  0.00  0.00    +0.000 A 
ATOM     14 CL   UNL     1       6.558   3.597  13.500  0.00  0.00    +0.000 Cl
ATOM     15  C   UNL     1       7.196   4.750  15.856  0.00  0.00    +0.000 A 
ATOM     16  C   UNL     1       6.913   5.314  17.107  0.00  0.00    +0.000 A 
ATOM     17  C   UNL     1       5.572   5.354  17.503  0.00  0.00    +0.000 A 
ATOM     18  N   UNL     1       4.989   5.840  18.652  0.00  0.00    +0.000 N 
ATOM     19  H   UNL     1       5.482   6.272  19.423  0.00  0.00    +0.000 HD
ENDBRANCH   2   9
BRANCH   6  20
ATOM     20  C   UNL     1      -0.200  10.341  18.844  0.00  0.00    +0.000 A 
ATOM     21  N   UNL     1      -0.555   9.848  17.676  0.00  0.00    +0.000 NA
ATOM     22  C   UNL     1      -1.836  10.294  17.453  0.00  0.00    +0.000 A 
ATOM     23  C   UNL     1      -2.700  10.061  16.373  0.00  0.00    +0.000 A 
ATOM     24  C   UNL     1      -3.980  10.631  16.399  0.00  0.00    +0.000 A 
ATOM     25  C   UNL     1      -4.388  11.422  17.479  0.00  0.00    +0.000 A 
ATOM     26  C   UNL     1      -3.537  11.673  18.563  0.00  0.00    +0.000 A 
ATOM     27  C   UNL     1      -2.270  11.086  18.507  0.00  0.00    +0.000 A 
ATOM     28  N   UNL     1      -1.210  11.111  19.372  0.00  0.00    +0.000 N 
ATOM     29  H   UNL     1      -1.174  11.611  20.247  0.00  0.00    +0.000 HD
ENDBRANCH   6  20
TORSDOF 2
ENDMDL
