MODEL 1
REMARK VINA RESULT:      -8.0      0.000      0.000
REMARK  Name = 
REMARK  10 active torsions:
REMARK  status: ('A' for Active; 'I' for Inactive)
REMARK    1  A    between atoms: C_1  and  C_2
REMARK    2  A    between atoms: C_2  and  C_3
REMARK    3  A    between atoms: C_2  and  C_4
REMARK    4  A    between atoms: C_2  and  C_5
REMARK    5  A    between atoms: C_5  and  C_6
REMARK    6  A    between atoms: C_9  and  C_10
REMARK    7  A    between atoms: C_15  and  O_16
REMARK    8  A    between atoms: O_16  and  C_17
REMARK    9  A    between atoms: C_17  and  C_18
REMARK   10  A    between atoms: N_20  and  C_21
REMARK                            x       y       z     vdW  Elec       q    Type
REMARK                         _______ _______ _______ _____ _____    ______ ____
ROOT
ATOM      1  C   UNL     1       3.448   3.988  19.281  0.00  0.00    +0.000 A 
ATOM      2  C   UNL     1       2.923   2.683  19.382  0.00  0.00    +0.000 A 
ATOM      3  C   UNL     1       1.745   2.421  20.082  0.00  0.00    +0.000 A 
ATOM      4  C   UNL     1       1.077   3.456  20.718  0.00  0.00    +0.000 A 
ATOM      5  C   UNL     1       1.570   4.757  20.625  0.00  0.00    +0.000 A 
ATOM      6  C   UNL     1       2.727   5.043  19.880  0.00  0.00    +0.000 A 
ENDROOT
BRANCH   1  10
ATOM      7  C   UNL     1       6.303   4.220  17.192  0.00  0.00    +0.000 A 
ATOM      8  N   UNL     1       6.878   4.572  18.348  0.00  0.00    +0.000 NA
ATOM      9  O   UNL     1       5.818   4.538  19.255  0.00  0.00    +0.000 OA
ATOM     10  C   UNL     1       4.709   4.149  18.555  0.00  0.00    +0.000 A 
ATOM     11  N   UNL     1       4.965   3.933  17.279  0.00  0.00    +0.000 NA
BRANCH   7  12
ATOM     12  C   UNL     1       7.062   4.115  15.915  0.00  0.00    +0.000 C 
BRANCH  12  14
ATOM     13  C   UNL     1       5.540   6.018  15.155  0.00  0.00    +0.000 C 
ATOM     14  C   UNL     1       6.425   4.843  14.701  0.00  0.00    +0.000 C 
ATOM     15  C   UNL     1       5.587   3.876  13.845  0.00  0.00    +0.000 C 
ATOM     16  C   UNL     1       7.559   5.406  13.821  0.00  0.00    +0.000 C 
ENDBRANCH  12  14
ENDBRANCH   7  12
ENDBRANCH   1  10
BRANCH   6  17
ATOM     17  O   UNL     1       3.192   6.326  19.715  0.00  0.00    +0.000 OA
BRANCH  17  18
ATOM     18  C   UNL     1       2.514   7.100  18.731  0.00  0.00    +0.000 C 
BRANCH  18  19
ATOM     19  C   UNL     1       1.741   8.286  19.299  0.00  0.00    +0.000 C 
ATOM     20  O   UNL     1       1.542   8.353  20.511  0.00  0.00    +0.000 OA
ATOM     21  N   UNL     1       1.288   9.179  18.350  0.00  0.00    +0.000 N 
ATOM     22  H   UNL     1       1.421   8.921  17.372  0.00  0.00    +0.000 HD
BRANCH  21  23
ATOM     23  C   UNL     1       0.542  10.352  18.589  0.00  0.00    +0.000 A 
ATOM     24  C   UNL     1      -0.832  10.357  18.841  0.00  0.00    +0.000 A 
ATOM     25  C   UNL     1      -1.513  11.562  19.036  0.00  0.00    +0.000 A 
ATOM     26  C   UNL     1      -0.827  12.774  18.987  0.00  0.00    +0.000 A 
ATOM     27  C   UNL     1       0.548  12.781  18.756  0.00  0.00    +0.000 A 
ATOM     28  C   UNL     1       1.218  11.576  18.568  0.00  0.00    +0.000 A 
ATOM     29  F   UNL     1       2.539  11.604  18.329  0.00  0.00    +0.000 F 
ENDBRANCH  21  23
ENDBRANCH  18  19
ENDBRANCH  17  18
ENDBRANCH   6  17
TORSDOF 7
ENDMDL
MODEL 2
REMARK VINA RESULT:      -8.0      1.137      1.654
REMARK  Name = 
REMARK  10 active torsions:
REMARK  status: ('A' for Active; 'I' for Inactive)
REMARK    1  A    between atoms: C_1  and  C_2
REMARK    2  A    between atoms: C_2  and  C_3
REMARK    3  A    between atoms: C_2  and  C_4
REMARK    4  A    between atoms: C_2  and  C_5
REMARK    5  A    between atoms: C_5  and  C_6
REMARK    6  A    between atoms: C_9  and  C_10
REMARK    7  A    between atoms: C_15  and  O_16
REMARK    8  A    between atoms: O_16  and  C_17
REMARK    9  A    between atoms: C_17  and  C_18
REMARK   10  A    between atoms: N_20  and  C_21
REMARK                            x       y       z     vdW  Elec       q    Type
REMARK                         _______ _______ _______ _____ _____    ______ ____
ROOT
ATOM      1  C   UNL     1       3.431   4.045  19.417  0.00  0.00    +0.000 A 
ATOM      2  C   UNL     1       3.098   2.718  19.755  0.00  0.00    +0.000 A 
ATOM      3  C   UNL     1       1.928   2.413  20.453  0.00  0.00    +0.000 A 
ATOM      4  C   UNL     1       1.078   3.433  20.849  0.00  0.00    +0.000 A 
ATOM      5  C   UNL     1       1.380   4.753  20.518  0.00  0.00    +0.000 A 
ATOM      6  C   UNL     1       2.528   5.069  19.771  0.00  0.00    +0.000 A 
ENDROOT
BRANCH   1  10
ATOM      7  C   UNL     1       6.323   4.383  17.391  0.00  0.00    +0.000 A 
ATOM      8  N   UNL     1       6.843   4.809  18.548  0.00  0.00    +0.000 NA
ATOM      9  O   UNL     1       5.764   4.739  19.429  0.00  0.00    +0.000 OA
ATOM     10  C   UNL     1       4.700   4.259  18.717  0.00  0.00    +0.000 A 
ATOM     11  N   UNL     1       5.002   4.017  17.456  0.00  0.00    +0.000 NA
BRANCH   7  12
ATOM     12  C   UNL     1       7.120   4.282  16.138  0.00  0.00    +0.000 C 
BRANCH  12  14
ATOM     13  C   UNL     1       5.533   3.862  14.183  0.00  0.00    +0.000 C 
ATOM     14  C   UNL     1       6.451   4.887  14.874  0.00  0.00    +0.000 C 
ATOM     15  C   UNL     1       7.503   5.387  13.868  0.00  0.00    +0.000 C 
ATOM     16  C   UNL     1       5.589   6.090  15.308  0.00  0.00    +0.000 C 
ENDBRANCH  12  14
ENDBRANCH   7  12
ENDBRANCH   1  10
BRANCH   6  17
ATOM     17  O   UNL     1       2.810   6.354  19.371  0.00  0.00    +0.000 OA
BRANCH  17  18
ATOM     18  C   UNL     1       2.085   7.377  20.046  0.00  0.00    +0.000 C 
BRANCH  18  19
ATOM     19  C   UNL     1       1.738   8.574  19.167  0.00  0.00    +0.000 C 
ATOM     20  O   UNL     1       2.114   8.593  17.995  0.00  0.00    +0.000 OA
ATOM     21  N   UNL     1       1.044   9.574  19.815  0.00  0.00    +0.000 N 
ATOM     22  H   UNL     1       0.915   9.471  20.821  0.00  0.00    +0.000 HD
BRANCH  21  23
ATOM     23  C   UNL     1       0.606  10.792  19.252  0.00  0.00    +0.000 A 
ATOM     24  C   UNL     1       1.426  11.912  19.099  0.00  0.00    +0.000 A 
ATOM     25  C   UNL     1       0.914  13.098  18.563  0.00  0.00    +0.000 A 
ATOM     26  C   UNL     1      -0.421  13.174  18.171  0.00  0.00    +0.000 A 
ATOM     27  C   UNL     1      -1.245  12.057  18.301  0.00  0.00    +0.000 A 
ATOM     28  C   UNL     1      -0.725  10.879  18.830  0.00  0.00    +0.000 A 
ATOM     29  F   UNL     1      -1.537   9.819  18.964  0.00  0.00    +0.000 F 
ENDBRANCH  21  23
ENDBRANCH  18  19
ENDBRANCH  17  18
ENDBRANCH   6  17
TORSDOF 7
ENDMDL
MODEL 3
REMARK VINA RESULT:      -8.0      1.804      2.002
REMARK  Name = 
REMARK  10 active torsions:
REMARK  status: ('A' for Active; 'I' for Inactive)
REMARK    1  A    between atoms: C_1  and  C_2
REMARK    2  A    between atoms: C_2  and  C_3
REMARK    3  A    between atoms: C_2  and  C_4
REMARK    4  A    between atoms: C_2  and  C_5
REMARK    5  A    between atoms: C_5  and  C_6
REMARK    6  A    between atoms: C_9  and  C_10
REMARK    7  A    between atoms: C_15  and  O_16
REMARK    8  A    between atoms: O_16  and  C_17
REMARK    9  A    between atoms: C_17  and  C_18
REMARK   10  A    between atoms: N_20  and  C_21
REMARK                            x       y       z     vdW  Elec       q    Type
REMARK                         _______ _______ _______ _____ _____    ______ ____
ROOT
ATOM      1  C   UNL     1       3.437   4.065  19.375  0.00  0.00    +0.000 A 
ATOM      2  C   UNL     1       2.968   2.753  19.594  0.00  0.00    +0.000 A 
ATOM      3  C   UNL     1       1.801   2.504  20.317  0.00  0.00    +0.000 A 
ATOM      4  C   UNL     1       1.088   3.562  20.859  0.00  0.00    +0.000 A 
ATOM      5  C   UNL     1       1.525   4.870  20.648  0.00  0.00    +0.000 A 
ATOM      6  C   UNL     1       2.670   5.137  19.878  0.00  0.00    +0.000 A 
ENDROOT
BRANCH   1  10
ATOM      7  C   UNL     1       6.274   4.263  17.257  0.00  0.00    +0.000 A 
ATOM      8  N   UNL     1       6.859   4.633  18.402  0.00  0.00    +0.000 NA
ATOM      9  O   UNL     1       5.807   4.613  19.319  0.00  0.00    +0.000 OA
ATOM     10  C   UNL     1       4.692   4.214  18.635  0.00  0.00    +0.000 A 
ATOM     11  N   UNL     1       4.936   3.978  17.361  0.00  0.00    +0.000 NA
BRANCH   7  12
ATOM     12  C   UNL     1       7.021   4.137  15.975  0.00  0.00    +0.000 C 
BRANCH  12  14
ATOM     13  C   UNL     1       5.541   6.073  15.212  0.00  0.00    +0.000 C 
ATOM     14  C   UNL     1       6.386   4.867  14.761  0.00  0.00    +0.000 C 
ATOM     15  C   UNL     1       5.508   3.913  13.931  0.00  0.00    +0.000 C 
ATOM     16  C   UNL     1       7.522   5.386  13.857  0.00  0.00    +0.000 C 
ENDBRANCH  12  14
ENDBRANCH   7  12
ENDBRANCH   1  10
BRANCH   6  17
ATOM     17  O   UNL     1       3.080   6.419  19.598  0.00  0.00    +0.000 OA
BRANCH  17  18
ATOM     18  C   UNL     1       2.453   7.029  18.474  0.00  0.00    +0.000 C 
BRANCH  18  19
ATOM     19  C   UNL     1       1.756   8.347  18.794  0.00  0.00    +0.000 C 
ATOM     20  O   UNL     1       1.546   9.155  17.889  0.00  0.00    +0.000 OA
ATOM     21  N   UNL     1       1.457   8.525  20.128  0.00  0.00    +0.000 N 
ATOM     22  H   UNL     1       1.808   7.823  20.779  0.00  0.00    +0.000 HD
BRANCH  21  23
ATOM     23  C   UNL     1       0.826   9.648  20.705  0.00  0.00    +0.000 A 
ATOM     24  C   UNL     1       1.169  10.968  20.403  0.00  0.00    +0.000 A 
ATOM     25  C   UNL     1       0.522  12.032  21.039  0.00  0.00    +0.000 A 
ATOM     26  C   UNL     1      -0.476  11.788  21.981  0.00  0.00    +0.000 A 
ATOM     27  C   UNL     1      -0.840  10.475  22.277  0.00  0.00    +0.000 A 
ATOM     28  C   UNL     1      -0.194   9.422  21.634  0.00  0.00    +0.000 A 
ATOM     29  F   UNL     1      -0.547   8.165  21.945  0.00  0.00    +0.000 F 
ENDBRANCH  21  23
ENDBRANCH  18  19
ENDBRANCH  17  18
ENDBRANCH   6  17
TORSDOF 7
ENDMDL
MODEL 4
REMARK VINA RESULT:      -8.0      0.909      1.221
REMARK  Name = 
REMARK  10 active torsions:
REMARK  status: ('A' for Active; 'I' for Inactive)
REMARK    1  A    between atoms: C_1  and  C_2
REMARK    2  A    between atoms: C_2  and  C_3
REMARK    3  A    between atoms: C_2  and  C_4
REMARK    4  A    between atoms: C_2  and  C_5
REMARK    5  A    between atoms: C_5  and  C_6
REMARK    6  A    between atoms: C_9  and  C_10
REMARK    7  A    between atoms: C_15  and  O_16
REMARK    8  A    between atoms: O_16  and  C_17
REMARK    9  A    between atoms: C_17  and  C_18
REMARK   10  A    between atoms: N_20  and  C_21
REMARK                            x       y       z     vdW  Elec       q    Type
REMARK                         _______ _______ _______ _____ _____    ______ ____
ROOT
ATOM      1  C   UNL     1       3.493   4.053  19.333  0.00  0.00    +0.000 A 
ATOM      2  C   UNL     1       2.996   2.740  19.459  0.00  0.00    +0.000 A 
ATOM      3  C   UNL     1       1.799   2.471  20.123  0.00  0.00    +0.000 A 
ATOM      4  C   UNL     1       1.082   3.510  20.697  0.00  0.00    +0.000 A 
ATOM      5  C   UNL     1       1.546   4.819  20.577  0.00  0.00    +0.000 A 
ATOM      6  C   UNL     1       2.724   5.109  19.867  0.00  0.00    +0.000 A 
ENDROOT
BRANCH   1  10
ATOM      7  C   UNL     1       6.406   4.341  17.332  0.00  0.00    +0.000 A 
ATOM      8  N   UNL     1       6.966   4.568  18.526  0.00  0.00    +0.000 NA
ATOM      9  O   UNL     1       5.883   4.501  19.404  0.00  0.00    +0.000 OA
ATOM     10  C   UNL     1       4.777   4.221  18.650  0.00  0.00    +0.000 A 
ATOM     11  N   UNL     1       5.055   4.106  17.366  0.00  0.00    +0.000 NA
BRANCH   7  12
ATOM     12  C   UNL     1       7.191   4.314  16.067  0.00  0.00    +0.000 C 
BRANCH  12  14
ATOM     13  C   UNL     1       5.542   6.053  15.189  0.00  0.00    +0.000 C 
ATOM     14  C   UNL     1       6.459   4.873  14.818  0.00  0.00    +0.000 C 
ATOM     15  C   UNL     1       5.627   3.782  14.121  0.00  0.00    +0.000 C 
ATOM     16  C   UNL     1       7.519   5.383  13.820  0.00  0.00    +0.000 C 
ENDBRANCH  12  14
ENDBRANCH   7  12
ENDBRANCH   1  10
BRANCH   6  17
ATOM     17  O   UNL     1       3.164   6.397  19.675  0.00  0.00    +0.000 OA
BRANCH  17  18
ATOM     18  C   UNL     1       2.462   7.141  18.684  0.00  0.00    +0.000 C 
BRANCH  18  19
ATOM     19  C   UNL     1       1.715   8.353  19.232  0.00  0.00    +0.000 C 
ATOM     20  O   UNL     1       1.532   8.453  20.445  0.00  0.00    +0.000 OA
ATOM     21  N   UNL     1       1.266   9.230  18.267  0.00  0.00    +0.000 N 
ATOM     22  H   UNL     1       1.383   8.947  17.294  0.00  0.00    +0.000 HD
BRANCH  21  23
ATOM     23  C   UNL     1       0.541  10.421  18.487  0.00  0.00    +0.000 A 
ATOM     24  C   UNL     1       1.051  11.520  19.181  0.00  0.00    +0.000 A 
ATOM     25  C   UNL     1       0.262  12.656  19.389  0.00  0.00    +0.000 A 
ATOM     26  C   UNL     1      -1.043  12.705  18.901  0.00  0.00    +0.000 A 
ATOM     27  C   UNL     1      -1.556  11.622  18.190  0.00  0.00    +0.000 A 
ATOM     28  C   UNL     1      -0.762  10.498  17.983  0.00  0.00    +0.000 A 
ATOM     29  F   UNL     1      -1.279   9.458  17.311  0.00  0.00    +0.000 F 
ENDBRANCH  21  23
ENDBRANCH  18  19
ENDBRANCH  17  18
ENDBRANCH   6  17
TORSDOF 7
ENDMDL
MODEL 5
REMARK VINA RESULT:      -7.8      4.326      7.001
REMARK  Name = 
REMARK  10 active torsions:
REMARK  status: ('A' for Active; 'I' for Inactive)
REMARK    1  A    between atoms: C_1  and  C_2
REMARK    2  A    between atoms: C_2  and  C_3
REMARK    3  A    between atoms: C_2  and  C_4
REMARK    4  A    between atoms: C_2  and  C_5
REMARK    5  A    between atoms: C_5  and  C_6
REMARK    6  A    between atoms: C_9  and  C_10
REMARK    7  A    between atoms: C_15  and  O_16
REMARK    8  A    between atoms: O_16  and  C_17
REMARK    9  A    between atoms: C_17  and  C_18
REMARK   10  A    between atoms: N_20  and  C_21
REMARK                            x       y       z     vdW  Elec       q    Type
REMARK                         _______ _______ _______ _____ _____    ______ ____
ROOT
ATOM      1  C   UNL     1       5.913   4.483  16.104  0.00  0.00    +0.000 A 
ATOM      2  C   UNL     1       5.359   3.710  15.062  0.00  0.00    +0.000 A 
ATOM      3  C   UNL     1       5.856   3.775  13.760  0.00  0.00    +0.000 A 
ATOM      4  C   UNL     1       6.903   4.634  13.465  0.00  0.00    +0.000 A 
ATOM      5  C   UNL     1       7.475   5.401  14.478  0.00  0.00    +0.000 A 
ATOM      6  C   UNL     1       7.018   5.307  15.805  0.00  0.00    +0.000 A 
ENDROOT
BRANCH   1  10
ATOM      7  C   UNL     1       4.070   4.369  19.131  0.00  0.00    +0.000 A 
ATOM      8  N   UNL     1       5.260   3.989  19.612  0.00  0.00    +0.000 NA
ATOM      9  O   UNL     1       6.073   3.975  18.478  0.00  0.00    +0.000 OA
ATOM     10  C   UNL     1       5.293   4.368  17.426  0.00  0.00    +0.000 A 
ATOM     11  N   UNL     1       4.051   4.629  17.785  0.00  0.00    +0.000 NA
BRANCH   7  12
ATOM     12  C   UNL     1       2.867   4.528  19.994  0.00  0.00    +0.000 C 
BRANCH  12  14
ATOM     13  C   UNL     1       0.552   3.453  19.934  0.00  0.00    +0.000 C 
ATOM     14  C   UNL     1       2.046   3.233  20.235  0.00  0.00    +0.000 C 
ATOM     15  C   UNL     1       2.205   2.729  21.681  0.00  0.00    +0.000 C 
ATOM     16  C   UNL     1       2.572   2.139  19.283  0.00  0.00    +0.000 C 
ENDBRANCH  12  14
ENDBRANCH   7  12
ENDBRANCH   1  10
BRANCH   6  17
ATOM     17  O   UNL     1       7.611   6.000  16.834  0.00  0.00    +0.000 OA
BRANCH  17  18
ATOM     18  C   UNL     1       7.121   7.320  17.043  0.00  0.00    +0.000 C 
BRANCH  18  19
ATOM     19  C   UNL     1       7.997   8.168  17.960  0.00  0.00    +0.000 C 
ATOM     20  O   UNL     1       8.608   7.629  18.881  0.00  0.00    +0.000 OA
ATOM     21  N   UNL     1       7.980   9.518  17.675  0.00  0.00    +0.000 N 
ATOM     22  H   UNL     1       7.324   9.832  16.960  0.00  0.00    +0.000 HD
BRANCH  21  23
ATOM     23  C   UNL     1       8.683  10.530  18.364  0.00  0.00    +0.000 A 
ATOM     24  C   UNL     1       9.513  10.287  19.460  0.00  0.00    +0.000 A 
ATOM     25  C   UNL     1      10.153  11.344  20.114  0.00  0.00    +0.000 A 
ATOM     26  C   UNL     1       9.972  12.655  19.676  0.00  0.00    +0.000 A 
ATOM     27  C   UNL     1       9.161  12.909  18.571  0.00  0.00    +0.000 A 
ATOM     28  C   UNL     1       8.532  11.849  17.923  0.00  0.00    +0.000 A 
ATOM     29  F   UNL     1       7.741  12.114  16.871  0.00  0.00    +0.000 F 
ENDBRANCH  21  23
ENDBRANCH  18  19
ENDBRANCH  17  18
ENDBRANCH   6  17
TORSDOF 7
ENDMDL
MODEL 6
REMARK VINA RESULT:      -7.8      1.274      1.654
REMARK  Name = 
REMARK  10 active torsions:
REMARK  status: ('A' for Active; 'I' for Inactive)
REMARK    1  A    between atoms: C_1  and  C_2
REMARK    2  A    between atoms: C_2  and  C_3
REMARK    3  A    between atoms: C_2  and  C_4
REMARK    4  A    between atoms: C_2  and  C_5
REMARK    5  A    between atoms: C_5  and  C_6
REMARK    6  A    between atoms: C_9  and  C_10
REMARK    7  A    between atoms: C_15  and  O_16
REMARK    8  A    between atoms: O_16  and  C_17
REMARK    9  A    between atoms: C_17  and  C_18
REMARK   10  A    between atoms: N_20  and  C_21
REMARK                            x       y       z     vdW  Elec       q    Type
REMARK                         _______ _______ _______ _____ _____    ______ ____
ROOT
ATOM      1  C   UNL     1       3.775   4.278  19.690  0.00  0.00    +0.000 A 
ATOM      2  C   UNL     1       3.480   2.963  20.103  0.00  0.00    +0.000 A 
ATOM      3  C   UNL     1       2.314   2.661  20.809  0.00  0.00    +0.000 A 
ATOM      4  C   UNL     1       1.428   3.675  21.139  0.00  0.00    +0.000 A 
ATOM      5  C   UNL     1       1.692   4.983  20.734  0.00  0.00    +0.000 A 
ATOM      6  C   UNL     1       2.836   5.291  19.978  0.00  0.00    +0.000 A 
ENDROOT
BRANCH   1  10
ATOM      7  C   UNL     1       6.639   4.693  17.642  0.00  0.00    +0.000 A 
ATOM      8  N   UNL     1       7.225   4.862  18.833  0.00  0.00    +0.000 NA
ATOM      9  O   UNL     1       6.164   4.741  19.731  0.00  0.00    +0.000 OA
ATOM     10  C   UNL     1       5.042   4.492  18.989  0.00  0.00    +0.000 A 
ATOM     11  N   UNL     1       5.291   4.445  17.694  0.00  0.00    +0.000 NA
BRANCH   7  12
ATOM     12  C   UNL     1       7.395   4.737  16.360  0.00  0.00    +0.000 C 
BRANCH  12  14
ATOM     13  C   UNL     1       7.396   5.092  13.831  0.00  0.00    +0.000 C 
ATOM     14  C   UNL     1       6.526   4.855  15.079  0.00  0.00    +0.000 C 
ATOM     15  C   UNL     1       5.495   5.991  15.204  0.00  0.00    +0.000 C 
ATOM     16  C   UNL     1       5.761   3.529  14.887  0.00  0.00    +0.000 C 
ENDBRANCH  12  14
ENDBRANCH   7  12
ENDBRANCH   1  10
BRANCH   6  17
ATOM     17  O   UNL     1       3.082   6.560  19.507  0.00  0.00    +0.000 OA
BRANCH  17  18
ATOM     18  C   UNL     1       2.419   6.900  18.294  0.00  0.00    +0.000 C 
BRANCH  18  19
ATOM     19  C   UNL     1       2.031   8.371  18.191  0.00  0.00    +0.000 C 
ATOM     20  O   UNL     1       2.534   9.069  17.311  0.00  0.00    +0.000 OA
ATOM     21  N   UNL     1       1.150   8.798  19.162  0.00  0.00    +0.000 N 
ATOM     22  H   UNL     1       0.919   8.134  19.902  0.00  0.00    +0.000 HD
BRANCH  21  23
ATOM     23  C   UNL     1       0.633  10.102  19.314  0.00  0.00    +0.000 A 
ATOM     24  C   UNL     1       1.069  10.998  20.292  0.00  0.00    +0.000 A 
ATOM     25  C   UNL     1       0.488  12.265  20.404  0.00  0.00    +0.000 A 
ATOM     26  C   UNL     1      -0.533  12.650  19.536  0.00  0.00    +0.000 A 
ATOM     27  C   UNL     1      -0.963  11.771  18.543  0.00  0.00    +0.000 A 
ATOM     28  C   UNL     1      -0.375  10.514  18.436  0.00  0.00    +0.000 A 
ATOM     29  F   UNL     1      -0.815   9.676  17.485  0.00  0.00    +0.000 F 
ENDBRANCH  21  23
ENDBRANCH  18  19
ENDBRANCH  17  18
ENDBRANCH   6  17
TORSDOF 7
ENDMDL
MODEL 7
REMARK VINA RESULT:      -7.7      0.952      1.263
REMARK  Name = 
REMARK  10 active torsions:
REMARK  status: ('A' for Active; 'I' for Inactive)
REMARK    1  A    between atoms: C_1  and  C_2
REMARK    2  A    between atoms: C_2  and  C_3
REMARK    3  A    between atoms: C_2  and  C_4
REMARK    4  A    between atoms: C_2  and  C_5
REMARK    5  A    between atoms: C_5  and  C_6
REMARK    6  A    between atoms: C_9  and  C_10
REMARK    7  A    between atoms: C_15  and  O_16
REMARK    8  A    between atoms: O_16  and  C_17
REMARK    9  A    between atoms: C_17  and  C_18
REMARK   10  A    between atoms: N_20  and  C_21
REMARK                            x       y       z     vdW  Elec       q    Type
REMARK                         _______ _______ _______ _____ _____    ______ ____
ROOT
ATOM      1  C   UNL     1       3.415   4.153  19.297  0.00  0.00    +0.000 A 
ATOM      2  C   UNL     1       3.381   2.949  20.029  0.00  0.00    +0.000 A 
ATOM      3  C   UNL     1       2.315   2.637  20.874  0.00  0.00    +0.000 A 
ATOM      4  C   UNL     1       1.270   3.536  21.025  0.00  0.00    +0.000 A 
ATOM      5  C   UNL     1       1.275   4.729  20.304  0.00  0.00    +0.000 A 
ATOM      6  C   UNL     1       2.317   5.031  19.410  0.00  0.00    +0.000 A 
ENDROOT
BRANCH   1  10
ATOM      7  C   UNL     1       6.146   4.432  17.052  0.00  0.00    +0.000 A 
ATOM      8  N   UNL     1       6.546   5.332  17.959  0.00  0.00    +0.000 NA
ATOM      9  O   UNL     1       5.512   5.321  18.896  0.00  0.00    +0.000 OA
ATOM     10  C   UNL     1       4.597   4.400  18.468  0.00  0.00    +0.000 A 
ATOM     11  N   UNL     1       4.952   3.820  17.337  0.00  0.00    +0.000 NA
BRANCH   7  12
ATOM     12  C   UNL     1       6.948   4.097  15.843  0.00  0.00    +0.000 C 
BRANCH  12  14
ATOM     13  C   UNL     1       5.697   3.715  13.651  0.00  0.00    +0.000 C 
ATOM     14  C   UNL     1       6.453   4.737  14.519  0.00  0.00    +0.000 C 
ATOM     15  C   UNL     1       7.623   5.326  13.709  0.00  0.00    +0.000 C 
ATOM     16  C   UNL     1       5.482   5.885  14.866  0.00  0.00    +0.000 C 
ENDBRANCH  12  14
ENDBRANCH   7  12
ENDBRANCH   1  10
BRANCH   6  17
ATOM     17  O   UNL     1       2.310   6.168  18.636  0.00  0.00    +0.000 OA
BRANCH  17  18
ATOM     18  C   UNL     1       2.396   7.396  19.352  0.00  0.00    +0.000 C 
BRANCH  18  19
ATOM     19  C   UNL     1       1.784   8.585  18.620  0.00  0.00    +0.000 C 
ATOM     20  O   UNL     1       2.099   8.803  17.451  0.00  0.00    +0.000 OA
ATOM     21  N   UNL     1       0.936   9.354  19.391  0.00  0.00    +0.000 N 
ATOM     22  H   UNL     1       0.873   9.121  20.382  0.00  0.00    +0.000 HD
BRANCH  21  23
ATOM     23  C   UNL     1       0.245  10.512  18.977  0.00  0.00    +0.000 A 
ATOM     24  C   UNL     1      -0.960  10.484  18.272  0.00  0.00    +0.000 A 
ATOM     25  C   UNL     1      -1.573  11.673  17.866  0.00  0.00    +0.000 A 
ATOM     26  C   UNL     1      -0.989  12.903  18.164  0.00  0.00    +0.000 A 
ATOM     27  C   UNL     1       0.204  12.945  18.884  0.00  0.00    +0.000 A 
ATOM     28  C   UNL     1       0.804  11.756  19.289  0.00  0.00    +0.000 A 
ATOM     29  F   UNL     1       1.961  11.816  19.966  0.00  0.00    +0.000 F 
ENDBRANCH  21  23
ENDBRANCH  18  19
ENDBRANCH  17  18
ENDBRANCH   6  17
TORSDOF 7
ENDMDL
MODEL 8
REMARK VINA RESULT:      -7.7      1.805      1.891
REMARK  Name = 
REMARK  10 active torsions:
REMARK  status: ('A' for Active; 'I' for Inactive)
REMARK    1  A    between atoms: C_1  and  C_2
REMARK    2  A    between atoms: C_2  and  C_3
REMARK    3  A    between atoms: C_2  and  C_4
REMARK    4  A    between atoms: C_2  and  C_5
REMARK    5  A    between atoms: C_5  and  C_6
REMARK    6  A    between atoms: C_9  and  C_10
REMARK    7  A    between atoms: C_15  and  O_16
REMARK    8  A    between atoms: O_16  and  C_17
REMARK    9  A    between atoms: C_17  and  C_18
REMARK   10  A    between atoms: N_20  and  C_21
REMARK                            x       y       z     vdW  Elec       q    Type
REMARK                         _______ _______ _______ _____ _____    ______ ____
ROOT
ATOM      1  C   UNL     1       3.502   3.977  19.616  0.00  0.00    +0.000 A 
ATOM      2  C   UNL     1       3.458   2.816  20.415  0.00  0.00    +0.000 A 
ATOM      3  C   UNL     1       2.350   2.515  21.207  0.00  0.00    +0.000 A 
ATOM      4  C   UNL     1       1.269   3.383  21.237  0.00  0.00    +0.000 A 
ATOM      5  C   UNL     1       1.284   4.533  20.449  0.00  0.00    +0.000 A 
ATOM      6  C   UNL     1       2.372   4.821  19.607  0.00  0.00    +0.000 A 
ENDROOT
BRANCH   1  10
ATOM      7  C   UNL     1       6.280   4.366  17.447  0.00  0.00    +0.000 A 
ATOM      8  N   UNL     1       6.841   4.835  18.568  0.00  0.00    +0.000 NA
ATOM      9  O   UNL     1       5.807   4.748  19.501  0.00  0.00    +0.000 OA
ATOM     10  C   UNL     1       4.728   4.217  18.851  0.00  0.00    +0.000 A 
ATOM     11  N   UNL     1       4.978   3.958  17.583  0.00  0.00    +0.000 NA
BRANCH   7  12
ATOM     12  C   UNL     1       7.020   4.264  16.158  0.00  0.00    +0.000 C 
BRANCH  12  14
ATOM     13  C   UNL     1       5.480   6.136  15.357  0.00  0.00    +0.000 C 
ATOM     14  C   UNL     1       6.319   4.916  14.936  0.00  0.00    +0.000 C 
ATOM     15  C   UNL     1       5.417   3.906  14.203  0.00  0.00    +0.000 C 
ATOM     16  C   UNL     1       7.405   5.396  13.951  0.00  0.00    +0.000 C 
ENDBRANCH  12  14
ENDBRANCH   7  12
ENDBRANCH   1  10
BRANCH   6  17
ATOM     17  O   UNL     1       2.380   5.911  18.768  0.00  0.00    +0.000 OA
BRANCH  17  18
ATOM     18  C   UNL     1       2.863   7.121  19.343  0.00  0.00    +0.000 C 
BRANCH  18  19
ATOM     19  C   UNL     1       1.768   8.126  19.683  0.00  0.00    +0.000 C 
ATOM     20  O   UNL     1       1.022   8.533  18.792  0.00  0.00    +0.000 OA
ATOM     21  N   UNL     1       1.751   8.526  21.003  0.00  0.00    +0.000 N 
ATOM     22  H   UNL     1       2.514   8.198  21.595  0.00  0.00    +0.000 HD
BRANCH  21  23
ATOM     23  C   UNL     1       0.859   9.449  21.590  0.00  0.00    +0.000 A 
ATOM     24  C   UNL     1       0.013   9.136  22.655  0.00  0.00    +0.000 A 
ATOM     25  C   UNL     1      -0.870  10.094  23.164  0.00  0.00    +0.000 A 
ATOM     26  C   UNL     1      -0.912  11.375  22.616  0.00  0.00    +0.000 A 
ATOM     27  C   UNL     1      -0.058  11.705  21.565  0.00  0.00    +0.000 A 
ATOM     28  C   UNL     1       0.821  10.746  21.068  0.00  0.00    +0.000 A 
ATOM     29  F   UNL     1       1.623  11.077  20.044  0.00  0.00    +0.000 F 
ENDBRANCH  21  23
ENDBRANCH  18  19
ENDBRANCH  17  18
ENDBRANCH   6  17
TORSDOF 7
ENDMDL
MODEL 9
REMARK VINA RESULT:      -7.6      4.811      7.418
REMARK  Name = 
REMARK  10 active torsions:
REMARK  status: ('A' for Active; 'I' for Inactive)
REMARK    1  A    between atoms: C_1  and  C_2
REMARK    2  A    between atoms: C_2  and  C_3
REMARK    3  A    between atoms: C_2  and  C_4
REMARK    4  A    between atoms: C_2  and  C_5
REMARK    5  A    between atoms: C_5  and  C_6
REMARK    6  A    between atoms: C_9  and  C_10
REMARK    7  A    between atoms: C_15  and  O_16
REMARK    8  A    between atoms: O_16  and  C_17
REMARK    9  A    between atoms: C_17  and  C_18
REMARK   10  A    between atoms: N_20  and  C_21
REMARK                            x       y       z     vdW  Elec       q    Type
REMARK                         _______ _______ _______ _____ _____    ______ ____
ROOT
ATOM      1  C   UNL     1       5.137   5.225  16.761  0.00  0.00    +0.000 A 
ATOM      2  C   UNL     1       4.914   4.221  15.796  0.00  0.00    +0.000 A 
ATOM      3  C   UNL     1       5.830   3.972  14.774  0.00  0.00    +0.000 A 
ATOM      4  C   UNL     1       6.981   4.739  14.679  0.00  0.00    +0.000 A 
ATOM      5  C   UNL     1       7.231   5.731  15.626  0.00  0.00    +0.000 A 
ATOM      6  C   UNL     1       6.341   5.957  16.691  0.00  0.00    +0.000 A 
ENDROOT
BRANCH   1  10
ATOM      7  C   UNL     1       2.623   5.308  19.260  0.00  0.00    +0.000 A 
ATOM      8  N   UNL     1       2.573   6.593  18.889  0.00  0.00    +0.000 NA
ATOM      9  O   UNL     1       3.559   6.680  17.906  0.00  0.00    +0.000 OA
ATOM     10  C   UNL     1       4.095   5.430  17.769  0.00  0.00    +0.000 A 
ATOM     11  N   UNL     1       3.541   4.549  18.579  0.00  0.00    +0.000 NA
BRANCH   7  12
ATOM     12  C   UNL     1       1.731   4.736  20.306  0.00  0.00    +0.000 C 
BRANCH  12  14
ATOM     13  C   UNL     1       1.213   2.734  21.803  0.00  0.00    +0.000 C 
ATOM     14  C   UNL     1       1.772   3.191  20.443  0.00  0.00    +0.000 C 
ATOM     15  C   UNL     1       3.204   2.651  20.275  0.00  0.00    +0.000 C 
ATOM     16  C   UNL     1       0.893   2.581  19.332  0.00  0.00    +0.000 C 
ENDBRANCH  12  14
ENDBRANCH   7  12
ENDBRANCH   1  10
BRANCH   6  17
ATOM     17  O   UNL     1       6.600   6.881  17.677  0.00  0.00    +0.000 OA
BRANCH  17  18
ATOM     18  C   UNL     1       7.287   8.053  17.250  0.00  0.00    +0.000 C 
BRANCH  18  19
ATOM     19  C   UNL     1       8.297   8.583  18.263  0.00  0.00    +0.000 C 
ATOM     20  O   UNL     1       8.788   7.812  19.087  0.00  0.00    +0.000 OA
ATOM     21  N   UNL     1       8.534   9.938  18.176  0.00  0.00    +0.000 N 
ATOM     22  H   UNL     1       7.955  10.469  17.525  0.00  0.00    +0.000 HD
BRANCH  21  23
ATOM     23  C   UNL     1       9.406  10.693  18.990  0.00  0.00    +0.000 A 
ATOM     24  C   UNL     1       9.190  10.922  20.350  0.00  0.00    +0.000 A 
ATOM     25  C   UNL     1      10.081  11.708  21.087  0.00  0.00    +0.000 A 
ATOM     26  C   UNL     1      11.199  12.269  20.472  0.00  0.00    +0.000 A 
ATOM     27  C   UNL     1      11.436  12.031  19.119  0.00  0.00    +0.000 A 
ATOM     28  C   UNL     1      10.546  11.243  18.395  0.00  0.00    +0.000 A 
ATOM     29  F   UNL     1      10.781  11.039  17.090  0.00  0.00    +0.000 F 
ENDBRANCH  21  23
ENDBRANCH  18  19
ENDBRANCH  17  18
ENDBRANCH   6  17
TORSDOF 7
ENDMDL
