MODEL 1
REMARK VINA RESULT:      -8.8      0.000      0.000
REMARK  Name = 
REMARK  3 active torsions:
REMARK  status: ('A' for Active; 'I' for Inactive)
REMARK    1  A    between atoms: C_1  and  C_2
REMARK    2  A    between atoms: C_10  and  S_11
REMARK    3  A    between atoms: S_11  and  N_14
REMARK                            x       y       z     vdW  Elec       q    Type
REMARK                         _______ _______ _______ _____ _____    ______ ____
ROOT
ATOM      1  C   UNL     1       0.692  12.322  20.888  0.00  0.00    +0.000 C 
ATOM      2  C   UNL     1       0.816  11.655  19.540  0.00  0.00    +0.000 C 
ATOM      3  O   UNL     1       1.150  12.322  18.561  0.00  0.00    +0.000 OA
ATOM      4  N   UNL     1       0.572  10.287  19.475  0.00  0.00    +0.000 N 
ATOM      5  C   UNL     1       0.160   9.452  20.605  0.00  0.00    +0.000 C 
ATOM      6  C   UNL     1       1.274   8.550  21.137  0.00  0.00    +0.000 C 
ATOM      7  C   UNL     1       1.571   7.336  20.282  0.00  0.00    +0.000 A 
ATOM      8  C   UNL     1       1.454   6.059  20.862  0.00  0.00    +0.000 A 
ATOM      9  C   UNL     1       1.839   4.913  20.166  0.00  0.00    +0.000 A 
ATOM     10  C   UNL     1       2.376   5.033  18.887  0.00  0.00    +0.000 A 
ATOM     11  C   UNL     1       2.424   6.284  18.263  0.00  0.00    +0.000 A 
ATOM     12  C   UNL     1       2.022   7.448  18.951  0.00  0.00    +0.000 A 
ATOM     13  C   UNL     1       2.146   8.789  18.255  0.00  0.00    +0.000 C 
ATOM     14  C   UNL     1       0.838   9.589  18.214  0.00  0.00    +0.000 C 
ENDROOT
BRANCH  10  15
ATOM     15  S   UNL     1       2.939   3.572  18.031  0.00  0.00    +0.000 S 
ATOM     16  O   UNL     1       3.244   2.595  19.062  0.00  0.00    +0.000 OA
ATOM     17  O   UNL     1       1.959   3.274  17.009  0.00  0.00    +0.000 OA
BRANCH  15  18
ATOM     18  N   UNL     1       4.377   4.026  17.312  0.00  0.00    +0.000 N 
ATOM     19  C   UNL     1       4.669   3.779  15.882  0.00  0.00    +0.000 C 
ATOM     20  C   UNL     1       6.186   4.004  15.715  0.00  0.00    +0.000 C 
ATOM     21  C   UNL     1       6.580   4.597  17.031  0.00  0.00    +0.000 A 
ATOM     22  C   UNL     1       7.795   5.183  17.365  0.00  0.00    +0.000 A 
ATOM     23  C   UNL     1       7.955   5.673  18.661  0.00  0.00    +0.000 A 
ATOM     24  C   UNL     1       6.925   5.547  19.604  0.00  0.00    +0.000 A 
ATOM     25  C   UNL     1       5.707   4.949  19.257  0.00  0.00    +0.000 A 
ATOM     26  C   UNL     1       5.547   4.488  17.963  0.00  0.00    +0.000 A 
ENDBRANCH  15  18
ENDBRANCH  10  15
TORSDOF 2
ENDMDL
MODEL 2
REMARK VINA RESULT:      -8.8      1.647      2.911
REMARK  Name = 
REMARK  3 active torsions:
REMARK  status: ('A' for Active; 'I' for Inactive)
REMARK    1  A    between atoms: C_1  and  C_2
REMARK    2  A    between atoms: C_10  and  S_11
REMARK    3  A    between atoms: S_11  and  N_14
REMARK                            x       y       z     vdW  Elec       q    Type
REMARK                         _______ _______ _______ _____ _____    ______ ____
ROOT
ATOM      1  C   UNL     1      -1.176  12.357  21.518  0.00  0.00    +0.000 C 
ATOM      2  C   UNL     1      -0.517  11.221  22.260  0.00  0.00    +0.000 C 
ATOM      3  O   UNL     1      -0.952  10.880  23.360  0.00  0.00    +0.000 OA
ATOM      4  N   UNL     1       0.552  10.581  21.639  0.00  0.00    +0.000 N 
ATOM      5  C   UNL     1       1.116  10.955  20.341  0.00  0.00    +0.000 C 
ATOM      6  C   UNL     1       0.750   9.988  19.214  0.00  0.00    +0.000 C 
ATOM      7  C   UNL     1       1.515   8.681  19.227  0.00  0.00    +0.000 A 
ATOM      8  C   UNL     1       2.277   8.335  18.095  0.00  0.00    +0.000 A 
ATOM      9  C   UNL     1       2.895   7.089  17.995  0.00  0.00    +0.000 A 
ATOM     10  C   UNL     1       2.733   6.157  19.017  0.00  0.00    +0.000 A 
ATOM     11  C   UNL     1       2.047   6.511  20.184  0.00  0.00    +0.000 A 
ATOM     12  C   UNL     1       1.432   7.774  20.303  0.00  0.00    +0.000 A 
ATOM     13  C   UNL     1       0.652   8.092  21.563  0.00  0.00    +0.000 C 
ATOM     14  C   UNL     1       1.105   9.377  22.265  0.00  0.00    +0.000 C 
ENDROOT
BRANCH  10  15
ATOM     15  S   UNL     1       3.461   4.536  18.850  0.00  0.00    +0.000 S 
ATOM     16  O   UNL     1       3.551   3.997  20.196  0.00  0.00    +0.000 OA
ATOM     17  O   UNL     1       2.710   3.836  17.831  0.00  0.00    +0.000 OA
BRANCH  15  18
ATOM     18  N   UNL     1       5.014   4.820  18.306  0.00  0.00    +0.000 N 
ATOM     19  C   UNL     1       6.088   5.335  19.185  0.00  0.00    +0.000 C 
ATOM     20  C   UNL     1       7.222   5.792  18.245  0.00  0.00    +0.000 C 
ATOM     21  C   UNL     1       6.780   5.270  16.913  0.00  0.00    +0.000 A 
ATOM     22  C   UNL     1       7.519   5.216  15.738  0.00  0.00    +0.000 A 
ATOM     23  C   UNL     1       6.908   4.690  14.600  0.00  0.00    +0.000 A 
ATOM     24  C   UNL     1       5.575   4.257  14.642  0.00  0.00    +0.000 A 
ATOM     25  C   UNL     1       4.839   4.321  15.831  0.00  0.00    +0.000 A 
ATOM     26  C   UNL     1       5.460   4.821  16.961  0.00  0.00    +0.000 A 
ENDBRANCH  15  18
ENDBRANCH  10  15
TORSDOF 2
ENDMDL
MODEL 3
REMARK VINA RESULT:      -8.7      0.761      1.935
REMARK  Name = 
REMARK  3 active torsions:
REMARK  status: ('A' for Active; 'I' for Inactive)
REMARK    1  A    between atoms: C_1  and  C_2
REMARK    2  A    between atoms: C_10  and  S_11
REMARK    3  A    between atoms: S_11  and  N_14
REMARK                            x       y       z     vdW  Elec       q    Type
REMARK                         _______ _______ _______ _____ _____    ______ ____
ROOT
ATOM      1  C   UNL     1       0.416  12.434  20.698  0.00  0.00    +0.000 C 
ATOM      2  C   UNL     1       0.670  11.734  19.387  0.00  0.00    +0.000 C 
ATOM      3  O   UNL     1       1.025  12.390  18.407  0.00  0.00    +0.000 OA
ATOM      4  N   UNL     1       0.519  10.351  19.356  0.00  0.00    +0.000 N 
ATOM      5  C   UNL     1       0.088   9.528  20.487  0.00  0.00    +0.000 C 
ATOM      6  C   UNL     1       1.219   8.719  21.122  0.00  0.00    +0.000 C 
ATOM      7  C   UNL     1       1.649   7.500  20.333  0.00  0.00    +0.000 A 
ATOM      8  C   UNL     1       1.575   6.238  20.950  0.00  0.00    +0.000 A 
ATOM      9  C   UNL     1       2.078   5.098  20.323  0.00  0.00    +0.000 A 
ATOM     10  C   UNL     1       2.690   5.212  19.078  0.00  0.00    +0.000 A 
ATOM     11  C   UNL     1       2.699   6.443  18.413  0.00  0.00    +0.000 A 
ATOM     12  C   UNL     1       2.179   7.599  19.031  0.00  0.00    +0.000 A 
ATOM     13  C   UNL     1       2.263   8.921  18.295  0.00  0.00    +0.000 C 
ATOM     14  C   UNL     1       0.913   9.632  18.142  0.00  0.00    +0.000 C 
ENDROOT
BRANCH  10  15
ATOM     15  S   UNL     1       3.400   3.764  18.313  0.00  0.00    +0.000 S 
ATOM     16  O   UNL     1       3.498   2.764  19.362  0.00  0.00    +0.000 OA
ATOM     17  O   UNL     1       2.633   3.495  17.116  0.00  0.00    +0.000 OA
BRANCH  15  18
ATOM     18  N   UNL     1       4.951   4.221  17.893  0.00  0.00    +0.000 N 
ATOM     19  C   UNL     1       5.952   4.664  18.890  0.00  0.00    +0.000 C 
ATOM     20  C   UNL     1       7.088   5.325  18.083  0.00  0.00    +0.000 C 
ATOM     21  C   UNL     1       6.736   4.981  16.670  0.00  0.00    +0.000 A 
ATOM     22  C   UNL     1       7.523   5.149  15.537  0.00  0.00    +0.000 A 
ATOM     23  C   UNL     1       6.995   4.762  14.306  0.00  0.00    +0.000 A 
ATOM     24  C   UNL     1       5.694   4.246  14.218  0.00  0.00    +0.000 A 
ATOM     25  C   UNL     1       4.908   4.088  15.366  0.00  0.00    +0.000 A 
ATOM     26  C   UNL     1       5.448   4.450  16.586  0.00  0.00    +0.000 A 
ENDBRANCH  15  18
ENDBRANCH  10  15
TORSDOF 2
ENDMDL
MODEL 4
REMARK VINA RESULT:      -8.5      2.843      4.047
REMARK  Name = 
REMARK  3 active torsions:
REMARK  status: ('A' for Active; 'I' for Inactive)
REMARK    1  A    between atoms: C_1  and  C_2
REMARK    2  A    between atoms: C_10  and  S_11
REMARK    3  A    between atoms: S_11  and  N_14
REMARK                            x       y       z     vdW  Elec       q    Type
REMARK                         _______ _______ _______ _____ _____    ______ ____
ROOT
ATOM      1  C   UNL     1      -1.833  11.898  21.803  0.00  0.00    +0.000 C 
ATOM      2  C   UNL     1      -0.801  10.959  22.377  0.00  0.00    +0.000 C 
ATOM      3  O   UNL     1      -0.971  10.482  23.499  0.00  0.00    +0.000 OA
ATOM      4  N   UNL     1       0.299  10.648  21.582  0.00  0.00    +0.000 N 
ATOM      5  C   UNL     1       0.554  11.198  20.249  0.00  0.00    +0.000 C 
ATOM      6  C   UNL     1       0.297  10.202  19.118  0.00  0.00    +0.000 C 
ATOM      7  C   UNL     1       1.371   9.148  18.944  0.00  0.00    +0.000 A 
ATOM      8  C   UNL     1       2.028   9.053  17.703  0.00  0.00    +0.000 A 
ATOM      9  C   UNL     1       2.930   8.022  17.442  0.00  0.00    +0.000 A 
ATOM     10  C   UNL     1       3.164   7.051  18.412  0.00  0.00    +0.000 A 
ATOM     11  C   UNL     1       2.583   7.173  19.679  0.00  0.00    +0.000 A 
ATOM     12  C   UNL     1       1.682   8.222  19.960  0.00  0.00    +0.000 A 
ATOM     13  C   UNL     1       1.034   8.281  21.329  0.00  0.00    +0.000 C 
ATOM     14  C   UNL     1       1.231   9.620  22.050  0.00  0.00    +0.000 C 
ENDROOT
BRANCH  10  15
ATOM     15  S   UNL     1       4.259   5.691  18.045  0.00  0.00    +0.000 S 
ATOM     16  O   UNL     1       4.565   5.792  16.629  0.00  0.00    +0.000 OA
ATOM     17  O   UNL     1       5.322   5.724  19.026  0.00  0.00    +0.000 OA
BRANCH  15  18
ATOM     18  N   UNL     1       3.330   4.321  18.273  0.00  0.00    +0.000 N 
ATOM     19  C   UNL     1       2.904   3.449  17.156  0.00  0.00    +0.000 C 
ATOM     20  C   UNL     1       1.795   2.541  17.726  0.00  0.00    +0.000 C 
ATOM     21  C   UNL     1       1.860   2.822  19.195  0.00  0.00    +0.000 A 
ATOM     22  C   UNL     1       1.222   2.131  20.217  0.00  0.00    +0.000 A 
ATOM     23  C   UNL     1       1.417   2.566  21.528  0.00  0.00    +0.000 A 
ATOM     24  C   UNL     1       2.212   3.689  21.795  0.00  0.00    +0.000 A 
ATOM     25  C   UNL     1       2.844   4.382  20.756  0.00  0.00    +0.000 A 
ATOM     26  C   UNL     1       2.667   3.929  19.462  0.00  0.00    +0.000 A 
ENDBRANCH  15  18
ENDBRANCH  10  15
TORSDOF 2
ENDMDL
MODEL 5
REMARK VINA RESULT:      -8.3      3.108      8.710
REMARK  Name = 
REMARK  3 active torsions:
REMARK  status: ('A' for Active; 'I' for Inactive)
REMARK    1  A    between atoms: C_1  and  C_2
REMARK    2  A    between atoms: C_10  and  S_11
REMARK    3  A    between atoms: S_11  and  N_14
REMARK                            x       y       z     vdW  Elec       q    Type
REMARK                         _______ _______ _______ _____ _____    ______ ____
ROOT
ATOM      1  C   UNL     1       4.319   2.409  19.695  0.00  0.00    +0.000 C 
ATOM      2  C   UNL     1       3.115   3.048  20.339  0.00  0.00    +0.000 C 
ATOM      3  O   UNL     1       2.735   2.655  21.442  0.00  0.00    +0.000 OA
ATOM      4  N   UNL     1       2.498   4.093  19.656  0.00  0.00    +0.000 N 
ATOM      5  C   UNL     1       2.902   4.588  18.339  0.00  0.00    +0.000 C 
ATOM      6  C   UNL     1       3.624   5.935  18.387  0.00  0.00    +0.000 C 
ATOM      7  C   UNL     1       2.724   7.131  18.618  0.00  0.00    +0.000 A 
ATOM      8  C   UNL     1       2.711   8.160  17.658  0.00  0.00    +0.000 A 
ATOM      9  C   UNL     1       2.005   9.342  17.878  0.00  0.00    +0.000 A 
ATOM     10  C   UNL     1       1.324   9.523  19.079  0.00  0.00    +0.000 A 
ATOM     11  C   UNL     1       1.258   8.481  20.010  0.00  0.00    +0.000 A 
ATOM     12  C   UNL     1       1.955   7.274  19.790  0.00  0.00    +0.000 A 
ATOM     13  C   UNL     1       1.900   6.195  20.853  0.00  0.00    +0.000 C 
ATOM     14  C   UNL     1       1.428   4.833  20.329  0.00  0.00    +0.000 C 
ENDROOT
BRANCH  10  15
ATOM     15  S   UNL     1       0.486  11.068  19.388  0.00  0.00    +0.000 S 
ATOM     16  O   UNL     1       0.374  11.181  20.832  0.00  0.00    +0.000 OA
ATOM     17  O   UNL     1       1.176  12.086  18.627  0.00  0.00    +0.000 OA
BRANCH  15  18
ATOM     18  N   UNL     1      -1.051  10.851  18.770  0.00  0.00    +0.000 N 
ATOM     19  C   UNL     1      -1.333   9.957  17.624  0.00  0.00    +0.000 C 
ATOM     20  C   UNL     1      -2.756  10.314  17.149  0.00  0.00    +0.000 C 
ATOM     21  C   UNL     1      -3.249  11.223  18.231  0.00  0.00    +0.000 A 
ATOM     22  C   UNL     1      -4.545  11.684  18.424  0.00  0.00    +0.000 A 
ATOM     23  C   UNL     1      -4.787  12.534  19.503  0.00  0.00    +0.000 A 
ATOM     24  C   UNL     1      -3.741  12.932  20.347  0.00  0.00    +0.000 A 
ATOM     25  C   UNL     1      -2.438  12.465  20.139  0.00  0.00    +0.000 A 
ATOM     26  C   UNL     1      -2.210  11.603  19.083  0.00  0.00    +0.000 A 
ENDBRANCH  15  18
ENDBRANCH  10  15
TORSDOF 2
ENDMDL
MODEL 6
REMARK VINA RESULT:      -8.1      1.568      2.288
REMARK  Name = 
REMARK  3 active torsions:
REMARK  status: ('A' for Active; 'I' for Inactive)
REMARK    1  A    between atoms: C_1  and  C_2
REMARK    2  A    between atoms: C_10  and  S_11
REMARK    3  A    between atoms: S_11  and  N_14
REMARK                            x       y       z     vdW  Elec       q    Type
REMARK                         _______ _______ _______ _____ _____    ______ ____
ROOT
ATOM      1  C   UNL     1      -0.915  12.954  21.344  0.00  0.00    +0.000 C 
ATOM      2  C   UNL     1      -0.465  11.764  22.155  0.00  0.00    +0.000 C 
ATOM      3  O   UNL     1      -1.003  11.528  23.237  0.00  0.00    +0.000 OA
ATOM      4  N   UNL     1       0.534  10.959  21.617  0.00  0.00    +0.000 N 
ATOM      5  C   UNL     1       1.214  11.202  20.343  0.00  0.00    +0.000 C 
ATOM      6  C   UNL     1       0.776  10.256  19.225  0.00  0.00    +0.000 C 
ATOM      7  C   UNL     1       1.346   8.855  19.320  0.00  0.00    +0.000 A 
ATOM      8  C   UNL     1       2.111   8.365  18.245  0.00  0.00    +0.000 A 
ATOM      9  C   UNL     1       2.550   7.042  18.217  0.00  0.00    +0.000 A 
ATOM     10  C   UNL     1       2.202   6.180  19.254  0.00  0.00    +0.000 A 
ATOM     11  C   UNL     1       1.511   6.669  20.368  0.00  0.00    +0.000 A 
ATOM     12  C   UNL     1       1.077   8.010  20.415  0.00  0.00    +0.000 A 
ATOM     13  C   UNL     1       0.283   8.479  21.617  0.00  0.00    +0.000 C 
ATOM     14  C   UNL     1       0.876   9.713  22.308  0.00  0.00    +0.000 C 
ENDROOT
BRANCH  10  15
ATOM     15  S   UNL     1       2.700   4.468  19.176  0.00  0.00    +0.000 S 
ATOM     16  O   UNL     1       3.224   4.143  20.492  0.00  0.00    +0.000 OA
ATOM     17  O   UNL     1       1.585   3.725  18.630  0.00  0.00    +0.000 OA
BRANCH  15  18
ATOM     18  N   UNL     1       3.974   4.442  18.096  0.00  0.00    +0.000 N 
ATOM     19  C   UNL     1       3.845   3.908  16.721  0.00  0.00    +0.000 C 
ATOM     20  C   UNL     1       5.286   3.732  16.200  0.00  0.00    +0.000 C 
ATOM     21  C   UNL     1       6.105   4.415  17.250  0.00  0.00    +0.000 A 
ATOM     22  C   UNL     1       7.455   4.737  17.194  0.00  0.00    +0.000 A 
ATOM     23  C   UNL     1       8.026   5.374  18.296  0.00  0.00    +0.000 A 
ATOM     24  C   UNL     1       7.260   5.651  19.436  0.00  0.00    +0.000 A 
ATOM     25  C   UNL     1       5.901   5.316  19.484  0.00  0.00    +0.000 A 
ATOM     26  C   UNL     1       5.336   4.708  18.378  0.00  0.00    +0.000 A 
ENDBRANCH  15  18
ENDBRANCH  10  15
TORSDOF 2
ENDMDL
MODEL 7
REMARK VINA RESULT:      -8.0      2.779      8.335
REMARK  Name = 
REMARK  3 active torsions:
REMARK  status: ('A' for Active; 'I' for Inactive)
REMARK    1  A    between atoms: C_1  and  C_2
REMARK    2  A    between atoms: C_10  and  S_11
REMARK    3  A    between atoms: S_11  and  N_14
REMARK                            x       y       z     vdW  Elec       q    Type
REMARK                         _______ _______ _______ _____ _____    ______ ____
ROOT
ATOM      1  C   UNL     1       2.764   2.319  19.026  0.00  0.00    +0.000 C 
ATOM      2  C   UNL     1       3.378   3.538  18.384  0.00  0.00    +0.000 C 
ATOM      3  O   UNL     1       3.855   3.454  17.252  0.00  0.00    +0.000 OA
ATOM      4  N   UNL     1       3.347   4.729  19.104  0.00  0.00    +0.000 N 
ATOM      5  C   UNL     1       2.804   4.880  20.455  0.00  0.00    +0.000 C 
ATOM      6  C   UNL     1       1.455   5.598  20.496  0.00  0.00    +0.000 C 
ATOM      7  C   UNL     1       1.529   7.099  20.304  0.00  0.00    +0.000 A 
ATOM      8  C   UNL     1       1.019   7.933  21.316  0.00  0.00    +0.000 A 
ATOM      9  C   UNL     1       0.939   9.315  21.139  0.00  0.00    +0.000 A 
ATOM     10  C   UNL     1       1.344   9.877  19.932  0.00  0.00    +0.000 A 
ATOM     11  C   UNL     1       1.929   9.075  18.946  0.00  0.00    +0.000 A 
ATOM     12  C   UNL     1       2.029   7.679  19.121  0.00  0.00    +0.000 A 
ATOM     13  C   UNL     1       2.618   6.843  18.002  0.00  0.00    +0.000 C 
ATOM     14  C   UNL     1       3.791   5.958  18.442  0.00  0.00    +0.000 C 
ENDROOT
BRANCH  10  15
ATOM     15  S   UNL     1       1.169  11.636  19.681  0.00  0.00    +0.000 S 
ATOM     16  O   UNL     1       1.558  12.260  20.934  0.00  0.00    +0.000 OA
ATOM     17  O   UNL     1       1.866  11.962  18.456  0.00  0.00    +0.000 OA
BRANCH  15  18
ATOM     18  N   UNL     1      -0.471  11.877  19.474  0.00  0.00    +0.000 N 
ATOM     19  C   UNL     1      -1.256  12.803  20.321  0.00  0.00    +0.000 C 
ATOM     20  C   UNL     1      -2.737  12.465  20.056  0.00  0.00    +0.000 C 
ATOM     21  C   UNL     1      -2.661  11.529  18.891  0.00  0.00    +0.000 A 
ATOM     22  C   UNL     1      -3.710  11.068  18.106  0.00  0.00    +0.000 A 
ATOM     23  C   UNL     1      -3.416  10.189  17.063  0.00  0.00    +0.000 A 
ATOM     24  C   UNL     1      -2.099   9.764  16.839  0.00  0.00    +0.000 A 
ATOM     25  C   UNL     1      -1.051  10.231  17.641  0.00  0.00    +0.000 A 
ATOM     26  C   UNL     1      -1.347  11.121  18.656  0.00  0.00    +0.000 A 
ENDBRANCH  15  18
ENDBRANCH  10  15
TORSDOF 2
ENDMDL
MODEL 8
REMARK VINA RESULT:      -7.9      2.766      7.702
REMARK  Name = 
REMARK  3 active torsions:
REMARK  status: ('A' for Active; 'I' for Inactive)
REMARK    1  A    between atoms: C_1  and  C_2
REMARK    2  A    between atoms: C_10  and  S_11
REMARK    3  A    between atoms: S_11  and  N_14
REMARK                            x       y       z     vdW  Elec       q    Type
REMARK                         _______ _______ _______ _____ _____    ______ ____
ROOT
ATOM      1  C   UNL     1       5.390   3.952  15.112  0.00  0.00    +0.000 C 
ATOM      2  C   UNL     1       5.486   5.373  15.609  0.00  0.00    +0.000 C 
ATOM      3  O   UNL     1       5.890   6.256  14.852  0.00  0.00    +0.000 OA
ATOM      4  N   UNL     1       5.076   5.627  16.915  0.00  0.00    +0.000 N 
ATOM      5  C   UNL     1       4.601   4.613  17.858  0.00  0.00    +0.000 C 
ATOM      6  C   UNL     1       3.090   4.651  18.087  0.00  0.00    +0.000 C 
ATOM      7  C   UNL     1       2.611   5.778  18.978  0.00  0.00    +0.000 A 
ATOM      8  C   UNL     1       1.900   5.455  20.149  0.00  0.00    +0.000 A 
ATOM      9  C   UNL     1       1.321   6.449  20.938  0.00  0.00    +0.000 A 
ATOM     10  C   UNL     1       1.422   7.782  20.548  0.00  0.00    +0.000 A 
ATOM     11  C   UNL     1       2.192   8.129  19.433  0.00  0.00    +0.000 A 
ATOM     12  C   UNL     1       2.795   7.133  18.637  0.00  0.00    +0.000 A 
ATOM     13  C   UNL     1       3.573   7.554  17.406  0.00  0.00    +0.000 C 
ATOM     14  C   UNL     1       5.010   7.019  17.368  0.00  0.00    +0.000 C 
ENDROOT
BRANCH  10  15
ATOM     15  S   UNL     1       0.614   9.044  21.519  0.00  0.00    +0.000 S 
ATOM     16  O   UNL     1      -0.712   8.532  21.818  0.00  0.00    +0.000 OA
ATOM     17  O   UNL     1       1.519   9.400  22.590  0.00  0.00    +0.000 OA
BRANCH  15  18
ATOM     18  N   UNL     1       0.442  10.338  20.477  0.00  0.00    +0.000 N 
ATOM     19  C   UNL     1       1.239  11.579  20.605  0.00  0.00    +0.000 C 
ATOM     20  C   UNL     1       0.538  12.626  19.715  0.00  0.00    +0.000 C 
ATOM     21  C   UNL     1      -0.467  11.806  18.967  0.00  0.00    +0.000 A 
ATOM     22  C   UNL     1      -1.238  12.198  17.880  0.00  0.00    +0.000 A 
ATOM     23  C   UNL     1      -2.123  11.269  17.333  0.00  0.00    +0.000 A 
ATOM     24  C   UNL     1      -2.248   9.989  17.889  0.00  0.00    +0.000 A 
ATOM     25  C   UNL     1      -1.470   9.608  18.989  0.00  0.00    +0.000 A 
ATOM     26  C   UNL     1      -0.576  10.525  19.510  0.00  0.00    +0.000 A 
ENDBRANCH  15  18
ENDBRANCH  10  15
TORSDOF 2
ENDMDL
MODEL 9
REMARK VINA RESULT:      -7.6      2.876      8.562
REMARK  Name = 
REMARK  3 active torsions:
REMARK  status: ('A' for Active; 'I' for Inactive)
REMARK    1  A    between atoms: C_1  and  C_2
REMARK    2  A    between atoms: C_10  and  S_11
REMARK    3  A    between atoms: S_11  and  N_14
REMARK                            x       y       z     vdW  Elec       q    Type
REMARK                         _______ _______ _______ _____ _____    ______ ____
ROOT
ATOM      1  C   UNL     1       4.454   2.160  20.164  0.00  0.00    +0.000 C 
ATOM      2  C   UNL     1       3.222   2.834  20.714  0.00  0.00    +0.000 C 
ATOM      3  O   UNL     1       2.795   2.509  21.822  0.00  0.00    +0.000 OA
ATOM      4  N   UNL     1       2.634   3.830  19.940  0.00  0.00    +0.000 N 
ATOM      5  C   UNL     1       3.094   4.244  18.613  0.00  0.00    +0.000 C 
ATOM      6  C   UNL     1       3.812   5.594  18.608  0.00  0.00    +0.000 C 
ATOM      7  C   UNL     1       2.900   6.798  18.724  0.00  0.00    +0.000 A 
ATOM      8  C   UNL     1       2.928   7.764  17.701  0.00  0.00    +0.000 A 
ATOM      9  C   UNL     1       2.211   8.956  17.815  0.00  0.00    +0.000 A 
ATOM     10  C   UNL     1       1.478   9.208  18.971  0.00  0.00    +0.000 A 
ATOM     11  C   UNL     1       1.373   8.227  19.962  0.00  0.00    +0.000 A 
ATOM     12  C   UNL     1       2.081   7.012  19.850  0.00  0.00    +0.000 A 
ATOM     13  C   UNL     1       1.981   6.001  20.976  0.00  0.00    +0.000 C 
ATOM     14  C   UNL     1       1.535   4.607  20.519  0.00  0.00    +0.000 C 
ENDROOT
BRANCH  10  15
ATOM     15  S   UNL     1       0.625  10.766  19.146  0.00  0.00    +0.000 S 
ATOM     16  O   UNL     1       1.635  11.797  18.984  0.00  0.00    +0.000 OA
ATOM     17  O   UNL     1      -0.523  10.723  18.267  0.00  0.00    +0.000 OA
BRANCH  15  18
ATOM     18  N   UNL     1       0.112  10.796  20.736  0.00  0.00    +0.000 N 
ATOM     19  C   UNL     1       0.722   9.953  21.788  0.00  0.00    +0.000 C 
ATOM     20  C   UNL     1      -0.248  10.004  22.987  0.00  0.00    +0.000 C 
ATOM     21  C   UNL     1      -1.214  11.075  22.586  0.00  0.00    +0.000 A 
ATOM     22  C   UNL     1      -2.182  11.680  23.378  0.00  0.00    +0.000 A 
ATOM     23  C   UNL     1      -2.985  12.662  22.799  0.00  0.00    +0.000 A 
ATOM     24  C   UNL     1      -2.835  13.002  21.447  0.00  0.00    +0.000 A 
ATOM     25  C   UNL     1      -1.860  12.380  20.658  0.00  0.00    +0.000 A 
ATOM     26  C   UNL     1      -1.050  11.426  21.245  0.00  0.00    +0.000 A 
ENDBRANCH  15  18
ENDBRANCH  10  15
TORSDOF 2
ENDMDL
