MODEL 1
REMARK VINA RESULT:      -8.3      0.000      0.000
REMARK  Name = 
REMARK  3 active torsions:
REMARK  status: ('A' for Active; 'I' for Inactive)
REMARK    1  A    between atoms: C_1  and  C_2
REMARK    2  A    between atoms: C_5  and  C_6
REMARK    3  A    between atoms: C_9  and  C_10
REMARK                            x       y       z     vdW  Elec       q    Type
REMARK                         _______ _______ _______ _____ _____    ______ ____
ROOT
ATOM      1  C   UNL     1       2.445   7.057  18.802  0.00  0.00    +0.000 A 
ATOM      2  C   UNL     1       1.905   7.252  20.081  0.00  0.00    +0.000 A 
ATOM      3  C   UNL     1       1.331   8.480  20.424  0.00  0.00    +0.000 A 
ATOM      4  C   UNL     1       1.288   9.525  19.492  0.00  0.00    +0.000 A 
ATOM      5  C   UNL     1       1.842   9.347  18.224  0.00  0.00    +0.000 A 
ATOM      6  C   UNL     1       2.392   8.112  17.878  0.00  0.00    +0.000 A 
ENDROOT
BRANCH   4   7
ATOM      7  C   UNL     1       0.770  10.840  19.933  0.00  0.00    +0.000 C 
ATOM      8  O   UNL     1       1.033  11.176  21.090  0.00  0.00    +0.000 OA
ATOM      9  N   UNL     1       0.056  11.659  19.031  0.00  0.00    +0.000 N 
ATOM     10  C   UNL     1      -0.285  12.996  19.595  0.00  0.00    +0.000 C 
ATOM     11  C   UNL     1      -1.736  12.841  20.021  0.00  0.00    +0.000 C 
ATOM     12  C   UNL     1      -2.031  12.800  21.501  0.00  0.00    +0.000 C 
ATOM     13  C   UNL     1      -2.536  13.939  20.656  0.00  0.00    +0.000 C 
ATOM     14  C   UNL     1      -2.267  11.791  19.109  0.00  0.00    +0.000 A 
ATOM     15  C   UNL     1      -3.563  11.447  18.756  0.00  0.00    +0.000 A 
ATOM     16  C   UNL     1      -3.760  10.488  17.760  0.00  0.00    +0.000 A 
ATOM     17  C   UNL     1      -2.666   9.884  17.123  0.00  0.00    +0.000 A 
ATOM     18  C   UNL     1      -1.358  10.201  17.500  0.00  0.00    +0.000 A 
ATOM     19  C   UNL     1      -1.177  11.142  18.499  0.00  0.00    +0.000 A 
ENDBRANCH   4   7
BRANCH   1  24
ATOM     20  C   UNL     1       3.054   2.222  17.845  0.00  0.00    +0.000 C 
ATOM     21  C   UNL     1       3.354   3.658  17.996  0.00  0.00    +0.000 A 
ATOM     22  N   UNL     1       4.503   4.262  17.802  0.00  0.00    +0.000 NA
ATOM     23  N   UNL     1       4.326   5.598  18.080  0.00  0.00    +0.000 NA
ATOM     24  C   UNL     1       3.065   5.796  18.411  0.00  0.00    +0.000 A 
ATOM     25  N   UNL     1       2.427   4.583  18.383  0.00  0.00    +0.000 N 
ATOM     26  H   UNL     1       1.469   4.402  18.640  0.00  0.00    +0.000 HD
ENDBRANCH   1  24
TORSDOF 2
ENDMDL
MODEL 2
REMARK VINA RESULT:      -8.2      0.735      1.001
REMARK  Name = 
REMARK  3 active torsions:
REMARK  status: ('A' for Active; 'I' for Inactive)
REMARK    1  A    between atoms: C_1  and  C_2
REMARK    2  A    between atoms: C_5  and  C_6
REMARK    3  A    between atoms: C_9  and  C_10
REMARK                            x       y       z     vdW  Elec       q    Type
REMARK                         _______ _______ _______ _____ _____    ______ ____
ROOT
ATOM      1  C   UNL     1       2.438   7.275  18.701  0.00  0.00    +0.000 A 
ATOM      2  C   UNL     1       1.908   7.432  19.990  0.00  0.00    +0.000 A 
ATOM      3  C   UNL     1       1.295   8.633  20.357  0.00  0.00    +0.000 A 
ATOM      4  C   UNL     1       1.203   9.690  19.441  0.00  0.00    +0.000 A 
ATOM      5  C   UNL     1       1.746   9.550  18.164  0.00  0.00    +0.000 A 
ATOM      6  C   UNL     1       2.336   8.340  17.793  0.00  0.00    +0.000 A 
ENDROOT
BRANCH   4   7
ATOM      7  C   UNL     1       0.643  10.978  19.907  0.00  0.00    +0.000 C 
ATOM      8  O   UNL     1       0.903  11.304  21.068  0.00  0.00    +0.000 OA
ATOM      9  N   UNL     1      -0.105  11.787  19.024  0.00  0.00    +0.000 N 
ATOM     10  C   UNL     1      -0.487  13.103  19.612  0.00  0.00    +0.000 C 
ATOM     11  C   UNL     1      -1.928  12.891  20.046  0.00  0.00    +0.000 C 
ATOM     12  C   UNL     1      -2.211  12.816  21.527  0.00  0.00    +0.000 C 
ATOM     13  C   UNL     1      -2.761  13.951  20.704  0.00  0.00    +0.000 C 
ATOM     14  C   UNL     1      -2.430  11.839  19.120  0.00  0.00    +0.000 A 
ATOM     15  C   UNL     1      -3.717  11.456  18.770  0.00  0.00    +0.000 A 
ATOM     16  C   UNL     1      -3.889  10.508  17.760  0.00  0.00    +0.000 A 
ATOM     17  C   UNL     1      -2.779   9.952  17.106  0.00  0.00    +0.000 A 
ATOM     18  C   UNL     1      -1.480  10.307  17.479  0.00  0.00    +0.000 A 
ATOM     19  C   UNL     1      -1.324  11.238  18.492  0.00  0.00    +0.000 A 
ENDBRANCH   4   7
BRANCH   1  24
ATOM     20  C   UNL     1       5.429   4.138  16.275  0.00  0.00    +0.000 C 
ATOM     21  C   UNL     1       4.406   4.641  17.211  0.00  0.00    +0.000 A 
ATOM     22  N   UNL     1       3.669   3.943  18.044  0.00  0.00    +0.000 NA
ATOM     23  N   UNL     1       2.837   4.819  18.703  0.00  0.00    +0.000 NA
ATOM     24  C   UNL     1       3.098   6.043  18.285  0.00  0.00    +0.000 A 
ATOM     25  N   UNL     1       4.076   5.961  17.327  0.00  0.00    +0.000 N 
ATOM     26  H   UNL     1       4.449   6.723  16.783  0.00  0.00    +0.000 HD
ENDBRANCH   1  24
TORSDOF 2
ENDMDL
MODEL 3
REMARK VINA RESULT:      -8.1      0.304      1.012
REMARK  Name = 
REMARK  3 active torsions:
REMARK  status: ('A' for Active; 'I' for Inactive)
REMARK    1  A    between atoms: C_1  and  C_2
REMARK    2  A    between atoms: C_5  and  C_6
REMARK    3  A    between atoms: C_9  and  C_10
REMARK                            x       y       z     vdW  Elec       q    Type
REMARK                         _______ _______ _______ _____ _____    ______ ____
ROOT
ATOM      1  C   UNL     1       2.328   7.183  18.587  0.00  0.00    +0.000 A 
ATOM      2  C   UNL     1       2.315   8.320  17.766  0.00  0.00    +0.000 A 
ATOM      3  C   UNL     1       1.836   9.537  18.257  0.00  0.00    +0.000 A 
ATOM      4  C   UNL     1       1.368   9.634  19.575  0.00  0.00    +0.000 A 
ATOM      5  C   UNL     1       1.358   8.503  20.392  0.00  0.00    +0.000 A 
ATOM      6  C   UNL     1       1.860   7.295  19.905  0.00  0.00    +0.000 A 
ENDROOT
BRANCH   4   7
ATOM      7  C   UNL     1       0.771  10.914  20.017  0.00  0.00    +0.000 C 
ATOM      8  O   UNL     1       0.979  11.245  21.187  0.00  0.00    +0.000 OA
ATOM      9  N   UNL     1       0.048  11.711  19.103  0.00  0.00    +0.000 N 
ATOM     10  C   UNL     1      -0.377  13.022  19.673  0.00  0.00    +0.000 C 
ATOM     11  C   UNL     1      -1.832  12.789  20.048  0.00  0.00    +0.000 C 
ATOM     12  C   UNL     1      -2.174  12.711  21.517  0.00  0.00    +0.000 C 
ATOM     13  C   UNL     1      -2.706  13.837  20.670  0.00  0.00    +0.000 C 
ATOM     14  C   UNL     1      -2.279  11.729  19.104  0.00  0.00    +0.000 A 
ATOM     15  C   UNL     1      -3.545  11.327  18.702  0.00  0.00    +0.000 A 
ATOM     16  C   UNL     1      -3.662  10.376  17.687  0.00  0.00    +0.000 A 
ATOM     17  C   UNL     1      -2.518   9.836  17.079  0.00  0.00    +0.000 A 
ATOM     18  C   UNL     1      -1.240  10.210  17.505  0.00  0.00    +0.000 A 
ATOM     19  C   UNL     1      -1.140  11.144  18.522  0.00  0.00    +0.000 A 
ENDBRANCH   4   7
BRANCH   1  24
ATOM     20  C   UNL     1       2.622   2.293  17.768  0.00  0.00    +0.000 C 
ATOM     21  C   UNL     1       2.957   3.729  17.747  0.00  0.00    +0.000 A 
ATOM     22  N   UNL     1       4.005   4.300  17.201  0.00  0.00    +0.000 NA
ATOM     23  N   UNL     1       3.920   5.652  17.442  0.00  0.00    +0.000 NA
ATOM     24  C   UNL     1       2.807   5.892  18.107  0.00  0.00    +0.000 A 
ATOM     25  N   UNL     1       2.182   4.692  18.329  0.00  0.00    +0.000 N 
ATOM     26  H   UNL     1       1.337   4.543  18.858  0.00  0.00    +0.000 HD
ENDBRANCH   1  24
TORSDOF 2
ENDMDL
MODEL 4
REMARK VINA RESULT:      -8.1      2.302      8.235
REMARK  Name = 
REMARK  3 active torsions:
REMARK  status: ('A' for Active; 'I' for Inactive)
REMARK    1  A    between atoms: C_1  and  C_2
REMARK    2  A    between atoms: C_5  and  C_6
REMARK    3  A    between atoms: C_9  and  C_10
REMARK                            x       y       z     vdW  Elec       q    Type
REMARK                         _______ _______ _______ _____ _____    ______ ____
ROOT
ATOM      1  C   UNL     1       0.323   9.813  19.897  0.00  0.00    +0.000 A 
ATOM      2  C   UNL     1       0.697   9.822  18.546  0.00  0.00    +0.000 A 
ATOM      3  C   UNL     1       1.639   8.906  18.070  0.00  0.00    +0.000 A 
ATOM      4  C   UNL     1       2.216   7.968  18.938  0.00  0.00    +0.000 A 
ATOM      5  C   UNL     1       1.865   7.966  20.288  0.00  0.00    +0.000 A 
ATOM      6  C   UNL     1       0.906   8.867  20.754  0.00  0.00    +0.000 A 
ENDROOT
BRANCH   4   7
ATOM      7  C   UNL     1       3.286   7.090  18.414  0.00  0.00    +0.000 C 
ATOM      8  O   UNL     1       3.852   7.465  17.384  0.00  0.00    +0.000 OA
ATOM      9  N   UNL     1       3.646   5.917  19.113  0.00  0.00    +0.000 N 
ATOM     10  C   UNL     1       4.821   5.216  18.521  0.00  0.00    +0.000 C 
ATOM     11  C   UNL     1       4.192   4.095  17.710  0.00  0.00    +0.000 C 
ATOM     12  C   UNL     1       4.247   4.202  16.205  0.00  0.00    +0.000 C 
ATOM     13  C   UNL     1       4.986   3.099  16.917  0.00  0.00    +0.000 C 
ATOM     14  C   UNL     1       2.906   3.826  18.409  0.00  0.00    +0.000 A 
ATOM     15  C   UNL     1       2.055   2.730  18.383  0.00  0.00    +0.000 A 
ATOM     16  C   UNL     1       0.966   2.700  19.257  0.00  0.00    +0.000 A 
ATOM     17  C   UNL     1       0.736   3.758  20.148  0.00  0.00    +0.000 A 
ATOM     18  C   UNL     1       1.568   4.881  20.153  0.00  0.00    +0.000 A 
ATOM     19  C   UNL     1       2.636   4.904  19.272  0.00  0.00    +0.000 A 
ENDBRANCH   4   7
BRANCH   1  24
ATOM     20  C   UNL     1      -2.366  12.454  23.132  0.00  0.00    +0.000 C 
ATOM     21  C   UNL     1      -1.852  11.927  21.854  0.00  0.00    +0.000 A 
ATOM     22  N   UNL     1      -2.254  12.232  20.642  0.00  0.00    +0.000 NA
ATOM     23  N   UNL     1      -1.511  11.488  19.754  0.00  0.00    +0.000 NA
ATOM     24  C   UNL     1      -0.646  10.761  20.435  0.00  0.00    +0.000 A 
ATOM     25  N   UNL     1      -0.848  11.005  21.769  0.00  0.00    +0.000 N 
ATOM     26  H   UNL     1      -0.377  10.558  22.539  0.00  0.00    +0.000 HD
ENDBRANCH   1  24
TORSDOF 2
ENDMDL
MODEL 5
REMARK VINA RESULT:      -7.9      2.078      8.274
REMARK  Name = 
REMARK  3 active torsions:
REMARK  status: ('A' for Active; 'I' for Inactive)
REMARK    1  A    between atoms: C_1  and  C_2
REMARK    2  A    between atoms: C_5  and  C_6
REMARK    3  A    between atoms: C_9  and  C_10
REMARK                            x       y       z     vdW  Elec       q    Type
REMARK                         _______ _______ _______ _____ _____    ______ ____
ROOT
ATOM      1  C   UNL     1       0.511   9.629  19.681  0.00  0.00    +0.000 A 
ATOM      2  C   UNL     1       0.890   9.705  18.334  0.00  0.00    +0.000 A 
ATOM      3  C   UNL     1       1.860   8.836  17.825  0.00  0.00    +0.000 A 
ATOM      4  C   UNL     1       2.460   7.879  18.657  0.00  0.00    +0.000 A 
ATOM      5  C   UNL     1       2.104   7.811  20.003  0.00  0.00    +0.000 A 
ATOM      6  C   UNL     1       1.118   8.665  20.502  0.00  0.00    +0.000 A 
ENDROOT
BRANCH   4   7
ATOM      7  C   UNL     1       3.557   7.055  18.102  0.00  0.00    +0.000 C 
ATOM      8  O   UNL     1       4.151   7.514  17.124  0.00  0.00    +0.000 OA
ATOM      9  N   UNL     1       3.907   5.835  18.720  0.00  0.00    +0.000 N 
ATOM     10  C   UNL     1       5.109   5.192  18.115  0.00  0.00    +0.000 C 
ATOM     11  C   UNL     1       4.520   4.132  17.199  0.00  0.00    +0.000 C 
ATOM     12  C   UNL     1       4.622   4.356  15.709  0.00  0.00    +0.000 C 
ATOM     13  C   UNL     1       5.350   3.208  16.358  0.00  0.00    +0.000 C 
ATOM     14  C   UNL     1       3.215   3.797  17.832  0.00  0.00    +0.000 A 
ATOM     15  C   UNL     1       2.378   2.699  17.694  0.00  0.00    +0.000 A 
ATOM     16  C   UNL     1       1.262   2.592  18.526  0.00  0.00    +0.000 A 
ATOM     17  C   UNL     1       0.991   3.575  19.488  0.00  0.00    +0.000 A 
ATOM     18  C   UNL     1       1.810   4.702  19.607  0.00  0.00    +0.000 A 
ATOM     19  C   UNL     1       2.905   4.803  18.766  0.00  0.00    +0.000 A 
ENDBRANCH   4   7
BRANCH   1  24
ATOM     20  C   UNL     1      -3.265  12.834  20.041  0.00  0.00    +0.000 C 
ATOM     21  C   UNL     1      -2.146  11.955  20.427  0.00  0.00    +0.000 A 
ATOM     22  N   UNL     1      -1.661  11.756  21.631  0.00  0.00    +0.000 NA
ATOM     23  N   UNL     1      -0.610  10.875  21.519  0.00  0.00    +0.000 NA
ATOM     24  C   UNL     1      -0.486  10.526  20.253  0.00  0.00    +0.000 A 
ATOM     25  N   UNL     1      -1.434  11.206  19.534  0.00  0.00    +0.000 N 
ATOM     26  H   UNL     1      -1.555  11.190  18.533  0.00  0.00    +0.000 HD
ENDBRANCH   1  24
TORSDOF 2
ENDMDL
MODEL 6
REMARK VINA RESULT:      -7.8      0.831      1.013
REMARK  Name = 
REMARK  3 active torsions:
REMARK  status: ('A' for Active; 'I' for Inactive)
REMARK    1  A    between atoms: C_1  and  C_2
REMARK    2  A    between atoms: C_5  and  C_6
REMARK    3  A    between atoms: C_9  and  C_10
REMARK                            x       y       z     vdW  Elec       q    Type
REMARK                         _______ _______ _______ _____ _____    ______ ____
ROOT
ATOM      1  C   UNL     1       2.029   6.709  19.767  0.00  0.00    +0.000 A 
ATOM      2  C   UNL     1       1.361   7.117  20.929  0.00  0.00    +0.000 A 
ATOM      3  C   UNL     1       0.932   8.441  21.067  0.00  0.00    +0.000 A 
ATOM      4  C   UNL     1       1.164   9.370  20.043  0.00  0.00    +0.000 A 
ATOM      5  C   UNL     1       1.847   8.977  18.892  0.00  0.00    +0.000 A 
ATOM      6  C   UNL     1       2.252   7.649  18.749  0.00  0.00    +0.000 A 
ENDROOT
BRANCH   4   7
ATOM      7  C   UNL     1       0.789  10.782  20.278  0.00  0.00    +0.000 C 
ATOM      8  O   UNL     1       1.026  11.237  21.400  0.00  0.00    +0.000 OA
ATOM      9  N   UNL     1       0.235  11.551  19.231  0.00  0.00    +0.000 N 
ATOM     10  C   UNL     1       0.032  12.983  19.596  0.00  0.00    +0.000 C 
ATOM     11  C   UNL     1      -1.449  13.055  19.933  0.00  0.00    +0.000 C 
ATOM     12  C   UNL     1      -1.830  13.246  21.382  0.00  0.00    +0.000 C 
ATOM     13  C   UNL     1      -2.141  14.313  20.365  0.00  0.00    +0.000 C 
ATOM     14  C   UNL     1      -2.054  11.962  19.124  0.00  0.00    +0.000 A 
ATOM     15  C   UNL     1      -3.361  11.726  18.724  0.00  0.00    +0.000 A 
ATOM     16  C   UNL     1      -3.619  10.673  17.844  0.00  0.00    +0.000 A 
ATOM     17  C   UNL     1      -2.575   9.867  17.369  0.00  0.00    +0.000 A 
ATOM     18  C   UNL     1      -1.261  10.076  17.797  0.00  0.00    +0.000 A 
ATOM     19  C   UNL     1      -1.021  11.115  18.680  0.00  0.00    +0.000 A 
ENDBRANCH   4   7
BRANCH   1  24
ATOM     20  C   UNL     1       3.289   2.415  17.612  0.00  0.00    +0.000 C 
ATOM     21  C   UNL     1       3.054   3.431  18.654  0.00  0.00    +0.000 A 
ATOM     22  N   UNL     1       3.225   3.306  19.950  0.00  0.00    +0.000 NA
ATOM     23  N   UNL     1       2.864   4.496  20.538  0.00  0.00    +0.000 NA
ATOM     24  C   UNL     1       2.505   5.342  19.592  0.00  0.00    +0.000 A 
ATOM     25  N   UNL     1       2.599   4.692  18.388  0.00  0.00    +0.000 N 
ATOM     26  H   UNL     1       2.341   5.058  17.485  0.00  0.00    +0.000 HD
ENDBRANCH   1  24
TORSDOF 2
ENDMDL
MODEL 7
REMARK VINA RESULT:      -7.8      1.386      1.714
REMARK  Name = 
REMARK  3 active torsions:
REMARK  status: ('A' for Active; 'I' for Inactive)
REMARK    1  A    between atoms: C_1  and  C_2
REMARK    2  A    between atoms: C_5  and  C_6
REMARK    3  A    between atoms: C_9  and  C_10
REMARK                            x       y       z     vdW  Elec       q    Type
REMARK                         _______ _______ _______ _____ _____    ______ ____
ROOT
ATOM      1  C   UNL     1       1.968   5.709  19.186  0.00  0.00    +0.000 A 
ATOM      2  C   UNL     1       1.399   5.863  20.457  0.00  0.00    +0.000 A 
ATOM      3  C   UNL     1       1.171   7.141  20.977  0.00  0.00    +0.000 A 
ATOM      4  C   UNL     1       1.508   8.279  20.230  0.00  0.00    +0.000 A 
ATOM      5  C   UNL     1       2.094   8.135  18.973  0.00  0.00    +0.000 A 
ATOM      6  C   UNL     1       2.297   6.857  18.448  0.00  0.00    +0.000 A 
ENDROOT
BRANCH   4   7
ATOM      7  C   UNL     1       1.349   9.607  20.863  0.00  0.00    +0.000 C 
ATOM      8  O   UNL     1       1.517   9.660  22.084  0.00  0.00    +0.000 OA
ATOM      9  N   UNL     1       1.068  10.741  20.071  0.00  0.00    +0.000 N 
ATOM     10  C   UNL     1       1.064  12.015  20.845  0.00  0.00    +0.000 C 
ATOM     11  C   UNL     1      -0.413  12.278  21.086  0.00  0.00    +0.000 C 
ATOM     12  C   UNL     1      -0.936  12.112  22.493  0.00  0.00    +0.000 C 
ATOM     13  C   UNL     1      -0.933  13.468  21.837  0.00  0.00    +0.000 C 
ATOM     14  C   UNL     1      -1.087  11.610  19.939  0.00  0.00    +0.000 A 
ATOM     15  C   UNL     1      -2.355  11.765  19.398  0.00  0.00    +0.000 A 
ATOM     16  C   UNL     1      -2.675  11.086  18.220  0.00  0.00    +0.000 A 
ATOM     17  C   UNL     1      -1.729  10.262  17.592  0.00  0.00    +0.000 A 
ATOM     18  C   UNL     1      -0.463  10.074  18.152  0.00  0.00    +0.000 A 
ATOM     19  C   UNL     1      -0.164  10.742  19.327  0.00  0.00    +0.000 A 
ENDBRANCH   4   7
BRANCH   1  24
ATOM     20  C   UNL     1       3.924   1.196  18.501  0.00  0.00    +0.000 C 
ATOM     21  C   UNL     1       3.100   2.400  18.291  0.00  0.00    +0.000 A 
ATOM     22  N   UNL     1       2.254   2.633  17.315  0.00  0.00    +0.000 NA
ATOM     23  N   UNL     1       1.725   3.889  17.507  0.00  0.00    +0.000 NA
ATOM     24  C   UNL     1       2.234   4.394  18.615  0.00  0.00    +0.000 A 
ATOM     25  N   UNL     1       3.120   3.481  19.126  0.00  0.00    +0.000 N 
ATOM     26  H   UNL     1       3.707   3.602  19.937  0.00  0.00    +0.000 HD
ENDBRANCH   1  24
TORSDOF 2
ENDMDL
MODEL 8
REMARK VINA RESULT:      -7.8      1.284      1.836
REMARK  Name = 
REMARK  3 active torsions:
REMARK  status: ('A' for Active; 'I' for Inactive)
REMARK    1  A    between atoms: C_1  and  C_2
REMARK    2  A    between atoms: C_5  and  C_6
REMARK    3  A    between atoms: C_9  and  C_10
REMARK                            x       y       z     vdW  Elec       q    Type
REMARK                         _______ _______ _______ _____ _____    ______ ____
ROOT
ATOM      1  C   UNL     1       2.011   5.830  19.142  0.00  0.00    +0.000 A 
ATOM      2  C   UNL     1       2.368   6.998  18.455  0.00  0.00    +0.000 A 
ATOM      3  C   UNL     1       2.145   8.251  19.034  0.00  0.00    +0.000 A 
ATOM      4  C   UNL     1       1.567   8.350  20.307  0.00  0.00    +0.000 A 
ATOM      5  C   UNL     1       1.190   7.193  20.988  0.00  0.00    +0.000 A 
ATOM      6  C   UNL     1       1.436   5.943  20.417  0.00  0.00    +0.000 A 
ENDROOT
BRANCH   4   7
ATOM      7  C   UNL     1       1.252   9.697  20.833  0.00  0.00    +0.000 C 
ATOM      8  O   UNL     1       1.319   9.841  22.056  0.00  0.00    +0.000 OA
ATOM      9  N   UNL     1       0.942  10.749  19.944  0.00  0.00    +0.000 N 
ATOM     10  C   UNL     1       0.774  12.065  20.626  0.00  0.00    +0.000 C 
ATOM     11  C   UNL     1      -0.735  12.213  20.740  0.00  0.00    +0.000 C 
ATOM     12  C   UNL     1      -1.350  12.092  22.113  0.00  0.00    +0.000 C 
ATOM     13  C   UNL     1      -1.407  13.399  21.367  0.00  0.00    +0.000 C 
ATOM     14  C   UNL     1      -1.260  11.419  19.596  0.00  0.00    +0.000 A 
ATOM     15  C   UNL     1      -2.490  11.429  18.955  0.00  0.00    +0.000 A 
ATOM     16  C   UNL     1      -2.660  10.651  17.807  0.00  0.00    +0.000 A 
ATOM     17  C   UNL     1      -1.604   9.874  17.308  0.00  0.00    +0.000 A 
ATOM     18  C   UNL     1      -0.374   9.832  17.971  0.00  0.00    +0.000 A 
ATOM     19  C   UNL     1      -0.224  10.597  19.115  0.00  0.00    +0.000 A 
ENDBRANCH   4   7
BRANCH   1  24
ATOM     20  C   UNL     1       3.834   1.275  18.365  0.00  0.00    +0.000 C 
ATOM     21  C   UNL     1       3.019   2.493  18.202  0.00  0.00    +0.000 A 
ATOM     22  N   UNL     1       2.112   2.734  17.284  0.00  0.00    +0.000 NA
ATOM     23  N   UNL     1       1.621   4.000  17.501  0.00  0.00    +0.000 NA
ATOM     24  C   UNL     1       2.214   4.505  18.566  0.00  0.00    +0.000 A 
ATOM     25  N   UNL     1       3.117   3.580  19.023  0.00  0.00    +0.000 N 
ATOM     26  H   UNL     1       3.760   3.697  19.790  0.00  0.00    +0.000 HD
ENDBRANCH   1  24
TORSDOF 2
ENDMDL
MODEL 9
REMARK VINA RESULT:      -7.8      2.430      8.263
REMARK  Name = 
REMARK  3 active torsions:
REMARK  status: ('A' for Active; 'I' for Inactive)
REMARK    1  A    between atoms: C_1  and  C_2
REMARK    2  A    between atoms: C_5  and  C_6
REMARK    3  A    between atoms: C_9  and  C_10
REMARK                            x       y       z     vdW  Elec       q    Type
REMARK                         _______ _______ _______ _____ _____    ______ ____
ROOT
ATOM      1  C   UNL     1       0.343   9.597  20.789  0.00  0.00    +0.000 A 
ATOM      2  C   UNL     1       0.626   9.749  19.425  0.00  0.00    +0.000 A 
ATOM      3  C   UNL     1       1.532   8.891  18.795  0.00  0.00    +0.000 A 
ATOM      4  C   UNL     1       2.163   7.870  19.520  0.00  0.00    +0.000 A 
ATOM      5  C   UNL     1       1.902   7.726  20.882  0.00  0.00    +0.000 A 
ATOM      6  C   UNL     1       0.979   8.569  21.502  0.00  0.00    +0.000 A 
ENDROOT
BRANCH   4   7
ATOM      7  C   UNL     1       3.194   7.057  18.837  0.00  0.00    +0.000 C 
ATOM      8  O   UNL     1       3.713   7.553  17.834  0.00  0.00    +0.000 OA
ATOM      9  N   UNL     1       3.571   5.803  19.365  0.00  0.00    +0.000 N 
ATOM     10  C   UNL     1       4.705   5.172  18.632  0.00  0.00    +0.000 C 
ATOM     11  C   UNL     1       4.022   4.166  17.720  0.00  0.00    +0.000 C 
ATOM     12  C   UNL     1       4.003   4.460  16.239  0.00  0.00    +0.000 C 
ATOM     13  C   UNL     1       4.761   3.271  16.770  0.00  0.00    +0.000 C 
ATOM     14  C   UNL     1       2.768   3.821  18.445  0.00  0.00    +0.000 A 
ATOM     15  C   UNL     1       1.901   2.744  18.326  0.00  0.00    +0.000 A 
ATOM     16  C   UNL     1       0.856   2.614  19.243  0.00  0.00    +0.000 A 
ATOM     17  C   UNL     1       0.685   3.554  20.270  0.00  0.00    +0.000 A 
ATOM     18  C   UNL     1       1.533   4.661  20.372  0.00  0.00    +0.000 A 
ATOM     19  C   UNL     1       2.556   4.785  19.447  0.00  0.00    +0.000 A 
ENDBRANCH   4   7
BRANCH   1  24
ATOM     20  C   UNL     1      -2.836  13.308  21.682  0.00  0.00    +0.000 C 
ATOM     21  C   UNL     1      -1.983  12.124  21.900  0.00  0.00    +0.000 A 
ATOM     22  N   UNL     1      -1.794  11.467  23.021  0.00  0.00    +0.000 NA
ATOM     23  N   UNL     1      -0.905  10.449  22.766  0.00  0.00    +0.000 NA
ATOM     24  C   UNL     1      -0.585  10.480  21.487  0.00  0.00    +0.000 A 
ATOM     25  N   UNL     1      -1.239  11.540  20.914  0.00  0.00    +0.000 N 
ATOM     26  H   UNL     1      -1.154  11.855  19.961  0.00  0.00    +0.000 HD
ENDBRANCH   1  24
TORSDOF 2
ENDMDL
