MODEL 1
REMARK VINA RESULT:      -9.1      0.000      0.000
REMARK  Name = 
REMARK  5 active torsions:
REMARK  status: ('A' for Active; 'I' for Inactive)
REMARK    1  A    between atoms: C_2  and  C_14
REMARK    2  A    between atoms: N_3  and  C_4
REMARK    3  A    between atoms: C_4  and  C_5
REMARK    4  A    between atoms: C_14  and  C_15
REMARK    5  A    between atoms: C_19  and  C_20
REMARK                            x       y       z     vdW  Elec       q    Type
REMARK                         _______ _______ _______ _____ _____    ______ ____
ROOT
ATOM      1  C   UNL     1       2.455   5.296  19.558  0.00  0.00    +0.000 C 
ATOM      2  C   UNL     1       1.210   4.438  19.222  0.00  0.00    +0.000 C 
ATOM      3  C   UNL     1       1.307   3.193  20.109  0.00  0.00    +0.000 C 
ATOM      4  C   UNL     1       2.239   3.561  21.257  0.00  0.00    +0.000 C 
ATOM      5  C   UNL     1       2.516   5.050  21.083  0.00  0.00    +0.000 C 
ENDROOT
BRANCH   1   6
ATOM      6  C   UNL     1       3.701   4.851  18.762  0.00  0.00    +0.000 A 
ATOM      7  C   UNL     1       3.552   4.175  17.536  0.00  0.00    +0.000 A 
ATOM      8  C   UNL     1       4.650   3.927  16.706  0.00  0.00    +0.000 A 
ATOM      9  C   UNL     1       5.924   4.341  17.085  0.00  0.00    +0.000 A 
ATOM     10  C   UNL     1       6.117   4.967  18.319  0.00  0.00    +0.000 A 
ATOM     11  C   UNL     1       5.006   5.193  19.153  0.00  0.00    +0.000 A 
BRANCH  10  12
ATOM     12  C   UNL     1       7.475   5.465  18.751  0.00  0.00    +0.000 C 
ATOM     13  F   UNL     1       7.583   5.670  20.093  0.00  0.00    +0.000 F 
ATOM     14  F   UNL     1       8.467   4.588  18.427  0.00  0.00    +0.000 F 
ATOM     15  F   UNL     1       7.815   6.644  18.161  0.00  0.00    +0.000 F 
ENDBRANCH  10  12
ENDBRANCH   1   6
BRANCH   1  17
ATOM     16  O   UNL     1       2.387   7.300  18.145  0.00  0.00    +0.000 OA
ATOM     17  C   UNL     1       2.174   6.799  19.249  0.00  0.00    +0.000 C 
ATOM     18  N   UNL     1       1.786   7.567  20.325  0.00  0.00    +0.000 N 
ATOM     19  H   UNL     1       1.387   7.125  21.143  0.00  0.00    +0.000 HD
BRANCH  18  20
ATOM     20  C   UNL     1       1.550   8.995  20.206  0.00  0.00    +0.000 C 
BRANCH  20  21
ATOM     21  C   UNL     1       0.856   9.469  21.433  0.00  0.00    +0.000 A 
ATOM     22  N   UNL     1       1.068   9.030  22.663  0.00  0.00    +0.000 NA
ATOM     23  N   UNL     1       0.217   9.695  23.514  0.00  0.00    +0.000 NA
ATOM     24  C   UNL     1      -0.502  10.526  22.793  0.00  0.00    +0.000 A 
ATOM     25  C   UNL     1      -1.531  11.450  23.133  0.00  0.00    +0.000 A 
ATOM     26  C   UNL     1      -2.104  12.192  22.164  0.00  0.00    +0.000 A 
ATOM     27  C   UNL     1      -1.695  12.070  20.774  0.00  0.00    +0.000 A 
ATOM     28  C   UNL     1      -0.722  11.192  20.450  0.00  0.00    +0.000 A 
ATOM     29  N   UNL     1      -0.135  10.430  21.458  0.00  0.00    +0.000 N 
ENDBRANCH  20  21
ENDBRANCH  18  20
ENDBRANCH   1  17
TORSDOF 5
ENDMDL
MODEL 2
REMARK VINA RESULT:      -9.0      1.662      2.290
REMARK  Name = 
REMARK  5 active torsions:
REMARK  status: ('A' for Active; 'I' for Inactive)
REMARK    1  A    between atoms: C_2  and  C_14
REMARK    2  A    between atoms: N_3  and  C_4
REMARK    3  A    between atoms: C_4  and  C_5
REMARK    4  A    between atoms: C_14  and  C_15
REMARK    5  A    between atoms: C_19  and  C_20
REMARK                            x       y       z     vdW  Elec       q    Type
REMARK                         _______ _______ _______ _____ _____    ______ ____
ROOT
ATOM      1  C   UNL     1       2.946   4.095  19.236  0.00  0.00    +0.000 C 
ATOM      2  C   UNL     1       1.759   3.769  18.296  0.00  0.00    +0.000 C 
ATOM      3  C   UNL     1       2.165   2.506  17.530  0.00  0.00    +0.000 C 
ATOM      4  C   UNL     1       3.264   1.845  18.352  0.00  0.00    +0.000 C 
ATOM      5  C   UNL     1       3.339   2.656  19.641  0.00  0.00    +0.000 C 
ENDROOT
BRANCH   1   6
ATOM      6  C   UNL     1       4.046   4.909  18.521  0.00  0.00    +0.000 A 
ATOM      7  C   UNL     1       3.706   5.803  17.488  0.00  0.00    +0.000 A 
ATOM      8  C   UNL     1       4.650   6.687  16.954  0.00  0.00    +0.000 A 
ATOM      9  C   UNL     1       5.957   6.692  17.431  0.00  0.00    +0.000 A 
ATOM     10  C   UNL     1       6.343   5.781  18.419  0.00  0.00    +0.000 A 
ATOM     11  C   UNL     1       5.389   4.885  18.934  0.00  0.00    +0.000 A 
BRANCH  10  12
ATOM     12  C   UNL     1       7.740   5.779  18.991  0.00  0.00    +0.000 C 
ATOM     13  F   UNL     1       7.779   5.625  20.343  0.00  0.00    +0.000 F 
ATOM     14  F   UNL     1       8.500   4.769  18.480  0.00  0.00    +0.000 F 
ATOM     15  F   UNL     1       8.421   6.927  18.723  0.00  0.00    +0.000 F 
ENDBRANCH  10  12
ENDBRANCH   1   6
BRANCH   1  17
ATOM     16  O   UNL     1       2.220   4.378  21.562  0.00  0.00    +0.000 OA
ATOM     17  C   UNL     1       2.449   4.905  20.473  0.00  0.00    +0.000 C 
ATOM     18  N   UNL     1       2.162   6.232  20.241  0.00  0.00    +0.000 N 
ATOM     19  H   UNL     1       2.569   6.704  19.444  0.00  0.00    +0.000 HD
BRANCH  18  20
ATOM     20  C   UNL     1       1.631   7.097  21.279  0.00  0.00    +0.000 C 
BRANCH  20  21
ATOM     21  C   UNL     1       1.205   8.381  20.661  0.00  0.00    +0.000 A 
ATOM     22  N   UNL     1       1.496   8.785  19.435  0.00  0.00    +0.000 NA
ATOM     23  N   UNL     1       0.945  10.031  19.247  0.00  0.00    +0.000 NA
ATOM     24  C   UNL     1       0.330  10.369  20.357  0.00  0.00    +0.000 A 
ATOM     25  C   UNL     1      -0.399  11.533  20.736  0.00  0.00    +0.000 A 
ATOM     26  C   UNL     1      -0.936  11.607  21.970  0.00  0.00    +0.000 A 
ATOM     27  C   UNL     1      -0.786  10.524  22.929  0.00  0.00    +0.000 A 
ATOM     28  C   UNL     1      -0.093   9.423  22.572  0.00  0.00    +0.000 A 
ATOM     29  N   UNL     1       0.458   9.353  21.295  0.00  0.00    +0.000 N 
ENDBRANCH  20  21
ENDBRANCH  18  20
ENDBRANCH   1  17
TORSDOF 5
ENDMDL
MODEL 3
REMARK VINA RESULT:      -9.0      1.666      2.145
REMARK  Name = 
REMARK  5 active torsions:
REMARK  status: ('A' for Active; 'I' for Inactive)
REMARK    1  A    between atoms: C_2  and  C_14
REMARK    2  A    between atoms: N_3  and  C_4
REMARK    3  A    between atoms: C_4  and  C_5
REMARK    4  A    between atoms: C_14  and  C_15
REMARK    5  A    between atoms: C_19  and  C_20
REMARK                            x       y       z     vdW  Elec       q    Type
REMARK                         _______ _______ _______ _____ _____    ______ ____
ROOT
ATOM      1  C   UNL     1       2.800   5.846  18.768  0.00  0.00    +0.000 C 
ATOM      2  C   UNL     1       1.784   5.019  17.942  0.00  0.00    +0.000 C 
ATOM      3  C   UNL     1       1.724   3.641  18.608  0.00  0.00    +0.000 C 
ATOM      4  C   UNL     1       2.249   3.832  20.025  0.00  0.00    +0.000 C 
ATOM      5  C   UNL     1       2.437   5.336  20.181  0.00  0.00    +0.000 C 
ENDROOT
BRANCH   1   6
ATOM      6  C   UNL     1       4.256   5.591  18.321  0.00  0.00    +0.000 A 
ATOM      7  C   UNL     1       5.288   5.530  19.276  0.00  0.00    +0.000 A 
ATOM      8  C   UNL     1       6.578   5.117  18.926  0.00  0.00    +0.000 A 
ATOM      9  C   UNL     1       6.869   4.766  17.611  0.00  0.00    +0.000 A 
ATOM     10  C   UNL     1       5.883   4.867  16.625  0.00  0.00    +0.000 A 
ATOM     11  C   UNL     1       4.595   5.301  16.989  0.00  0.00    +0.000 A 
BRANCH  10  12
ATOM     12  C   UNL     1       6.147   4.459  15.197  0.00  0.00    +0.000 C 
ATOM     13  F   UNL     1       7.367   4.847  14.732  0.00  0.00    +0.000 F 
ATOM     14  F   UNL     1       6.099   3.107  15.033  0.00  0.00    +0.000 F 
ATOM     15  F   UNL     1       5.233   4.970  14.326  0.00  0.00    +0.000 F 
ENDBRANCH  10  12
ENDBRANCH   1   6
BRANCH   1  17
ATOM     16  O   UNL     1       2.991   8.070  17.749  0.00  0.00    +0.000 OA
ATOM     17  C   UNL     1       2.494   7.370  18.631  0.00  0.00    +0.000 C 
ATOM     18  N   UNL     1       1.725   7.916  19.635  0.00  0.00    +0.000 N 
ATOM     19  H   UNL     1       1.135   7.320  20.200  0.00  0.00    +0.000 HD
BRANCH  18  20
ATOM     20  C   UNL     1       1.410   9.333  19.679  0.00  0.00    +0.000 C 
BRANCH  20  21
ATOM     21  C   UNL     1       0.843   9.656  21.015  0.00  0.00    +0.000 A 
ATOM     22  N   UNL     1       1.216   9.122  22.166  0.00  0.00    +0.000 NA
ATOM     23  N   UNL     1       0.439   9.659  23.166  0.00  0.00    +0.000 NA
ATOM     24  C   UNL     1      -0.395  10.509  22.612  0.00  0.00    +0.000 A 
ATOM     25  C   UNL     1      -1.419  11.339  23.151  0.00  0.00    +0.000 A 
ATOM     26  C   UNL     1      -2.134  12.131  22.327  0.00  0.00    +0.000 A 
ATOM     27  C   UNL     1      -1.885  12.157  20.894  0.00  0.00    +0.000 A 
ATOM     28  C   UNL     1      -0.917  11.368  20.382  0.00  0.00    +0.000 A 
ATOM     29  N   UNL     1      -0.182  10.553  21.241  0.00  0.00    +0.000 N 
ENDBRANCH  20  21
ENDBRANCH  18  20
ENDBRANCH   1  17
TORSDOF 5
ENDMDL
MODEL 4
REMARK VINA RESULT:      -8.8      0.716      1.062
REMARK  Name = 
REMARK  5 active torsions:
REMARK  status: ('A' for Active; 'I' for Inactive)
REMARK    1  A    between atoms: C_2  and  C_14
REMARK    2  A    between atoms: N_3  and  C_4
REMARK    3  A    between atoms: C_4  and  C_5
REMARK    4  A    between atoms: C_14  and  C_15
REMARK    5  A    between atoms: C_19  and  C_20
REMARK                            x       y       z     vdW  Elec       q    Type
REMARK                         _______ _______ _______ _____ _____    ______ ____
ROOT
ATOM      1  C   UNL     1       2.685   5.449  18.641  0.00  0.00    +0.000 C 
ATOM      2  C   UNL     1       1.549   4.703  17.898  0.00  0.00    +0.000 C 
ATOM      3  C   UNL     1       1.424   3.339  18.583  0.00  0.00    +0.000 C 
ATOM      4  C   UNL     1       2.062   3.494  19.958  0.00  0.00    +0.000 C 
ATOM      5  C   UNL     1       2.382   4.979  20.083  0.00  0.00    +0.000 C 
ENDROOT
BRANCH   1   6
ATOM      6  C   UNL     1       4.080   5.072  18.097  0.00  0.00    +0.000 A 
ATOM      7  C   UNL     1       4.213   4.533  16.804  0.00  0.00    +0.000 A 
ATOM      8  C   UNL     1       5.471   4.359  16.216  0.00  0.00    +0.000 A 
ATOM      9  C   UNL     1       6.625   4.711  16.910  0.00  0.00    +0.000 A 
ATOM     10  C   UNL     1       6.533   5.199  18.217  0.00  0.00    +0.000 A 
ATOM     11  C   UNL     1       5.263   5.351  18.803  0.00  0.00    +0.000 A 
BRANCH  10  12
ATOM     12  C   UNL     1       7.757   5.627  18.989  0.00  0.00    +0.000 C 
ATOM     13  F   UNL     1       8.259   6.831  18.599  0.00  0.00    +0.000 F 
ATOM     14  F   UNL     1       7.503   5.745  20.324  0.00  0.00    +0.000 F 
ATOM     15  F   UNL     1       8.784   4.739  18.884  0.00  0.00    +0.000 F 
ENDBRANCH  10  12
ENDBRANCH   1   6
BRANCH   1  17
ATOM     16  O   UNL     1       3.017   7.649  17.608  0.00  0.00    +0.000 OA
ATOM     17  C   UNL     1       2.495   6.992  18.508  0.00  0.00    +0.000 C 
ATOM     18  N   UNL     1       1.805   7.598  19.535  0.00  0.00    +0.000 N 
ATOM     19  H   UNL     1       1.189   7.051  20.121  0.00  0.00    +0.000 HD
BRANCH  18  20
ATOM     20  C   UNL     1       1.604   9.035  19.583  0.00  0.00    +0.000 C 
BRANCH  20  21
ATOM     21  C   UNL     1       1.025   9.394  20.904  0.00  0.00    +0.000 A 
ATOM     22  N   UNL     1       1.345   8.847  22.066  0.00  0.00    +0.000 NA
ATOM     23  N   UNL     1       0.576   9.428  23.046  0.00  0.00    +0.000 NA
ATOM     24  C   UNL     1      -0.202  10.317  22.470  0.00  0.00    +0.000 A 
ATOM     25  C   UNL     1      -1.194  11.201  22.984  0.00  0.00    +0.000 A 
ATOM     26  C   UNL     1      -1.849  12.024  22.141  0.00  0.00    +0.000 A 
ATOM     27  C   UNL     1      -1.568  12.030  20.714  0.00  0.00    +0.000 A 
ATOM     28  C   UNL     1      -0.630  11.190  20.227  0.00  0.00    +0.000 A 
ATOM     29  N   UNL     1       0.043  10.344  21.104  0.00  0.00    +0.000 N 
ENDBRANCH  20  21
ENDBRANCH  18  20
ENDBRANCH   1  17
TORSDOF 5
ENDMDL
MODEL 5
REMARK VINA RESULT:      -8.8      2.492      3.283
REMARK  Name = 
REMARK  5 active torsions:
REMARK  status: ('A' for Active; 'I' for Inactive)
REMARK    1  A    between atoms: C_2  and  C_14
REMARK    2  A    between atoms: N_3  and  C_4
REMARK    3  A    between atoms: C_4  and  C_5
REMARK    4  A    between atoms: C_14  and  C_15
REMARK    5  A    between atoms: C_19  and  C_20
REMARK                            x       y       z     vdW  Elec       q    Type
REMARK                         _______ _______ _______ _____ _____    ______ ____
ROOT
ATOM      1  C   UNL     1       3.511   4.045  18.225  0.00  0.00    +0.000 C 
ATOM      2  C   UNL     1       2.845   2.732  17.745  0.00  0.00    +0.000 C 
ATOM      3  C   UNL     1       3.520   1.606  18.535  0.00  0.00    +0.000 C 
ATOM      4  C   UNL     1       4.138   2.261  19.763  0.00  0.00    +0.000 C 
ATOM      5  C   UNL     1       3.660   3.708  19.726  0.00  0.00    +0.000 C 
ENDROOT
BRANCH   1   6
ATOM      6  C   UNL     1       4.829   4.337  17.474  0.00  0.00    +0.000 A 
ATOM      7  C   UNL     1       6.016   4.568  18.193  0.00  0.00    +0.000 A 
ATOM      8  C   UNL     1       7.253   4.648  17.545  0.00  0.00    +0.000 A 
ATOM      9  C   UNL     1       7.332   4.510  16.162  0.00  0.00    +0.000 A 
ATOM     10  C   UNL     1       6.166   4.333  15.411  0.00  0.00    +0.000 A 
ATOM     11  C   UNL     1       4.927   4.273  16.074  0.00  0.00    +0.000 A 
BRANCH  10  12
ATOM     12  C   UNL     1       6.211   4.141  13.914  0.00  0.00    +0.000 C 
ATOM     13  F   UNL     1       6.545   2.877  13.533  0.00  0.00    +0.000 F 
ATOM     14  F   UNL     1       5.007   4.400  13.329  0.00  0.00    +0.000 F 
ATOM     15  F   UNL     1       7.105   4.967  13.304  0.00  0.00    +0.000 F 
ENDBRANCH  10  12
ENDBRANCH   1   6
BRANCH   1  17
ATOM     16  O   UNL     1       1.392   5.111  17.600  0.00  0.00    +0.000 OA
ATOM     17  C   UNL     1       2.541   5.249  18.019  0.00  0.00    +0.000 C 
ATOM     18  N   UNL     1       3.089   6.497  18.220  0.00  0.00    +0.000 N 
ATOM     19  H   UNL     1       3.924   6.597  18.781  0.00  0.00    +0.000 HD
BRANCH  18  20
ATOM     20  C   UNL     1       2.328   7.715  18.005  0.00  0.00    +0.000 C 
BRANCH  20  21
ATOM     21  C   UNL     1       1.784   8.176  19.310  0.00  0.00    +0.000 A 
ATOM     22  N   UNL     1       1.968   7.585  20.480  0.00  0.00    +0.000 NA
ATOM     23  N   UNL     1       1.286   8.298  21.438  0.00  0.00    +0.000 NA
ATOM     24  C   UNL     1       0.696   9.309  20.841  0.00  0.00    +0.000 A 
ATOM     25  C   UNL     1      -0.137  10.357  21.326  0.00  0.00    +0.000 A 
ATOM     26  C   UNL     1      -0.611  11.281  20.466  0.00  0.00    +0.000 A 
ATOM     27  C   UNL     1      -0.292  11.231  19.048  0.00  0.00    +0.000 A 
ATOM     28  C   UNL     1       0.495  10.235  18.587  0.00  0.00    +0.000 A 
ATOM     29  N   UNL     1       0.981   9.286  19.482  0.00  0.00    +0.000 N 
ENDBRANCH  20  21
ENDBRANCH  18  20
ENDBRANCH   1  17
TORSDOF 5
ENDMDL
MODEL 6
REMARK VINA RESULT:      -8.7      2.331      3.333
REMARK  Name = 
REMARK  5 active torsions:
REMARK  status: ('A' for Active; 'I' for Inactive)
REMARK    1  A    between atoms: C_2  and  C_14
REMARK    2  A    between atoms: N_3  and  C_4
REMARK    3  A    between atoms: C_4  and  C_5
REMARK    4  A    between atoms: C_14  and  C_15
REMARK    5  A    between atoms: C_19  and  C_20
REMARK                            x       y       z     vdW  Elec       q    Type
REMARK                         _______ _______ _______ _____ _____    ______ ____
ROOT
ATOM      1  C   UNL     1       3.316   3.946  19.065  0.00  0.00    +0.000 C 
ATOM      2  C   UNL     1       2.262   3.568  17.995  0.00  0.00    +0.000 C 
ATOM      3  C   UNL     1       2.624   2.154  17.532  0.00  0.00    +0.000 C 
ATOM      4  C   UNL     1       3.486   1.553  18.635  0.00  0.00    +0.000 C 
ATOM      5  C   UNL     1       3.456   2.575  19.765  0.00  0.00    +0.000 C 
ENDROOT
BRANCH   1   6
ATOM      6  C   UNL     1       4.609   4.507  18.435  0.00  0.00    +0.000 A 
ATOM      7  C   UNL     1       5.661   4.953  19.257  0.00  0.00    +0.000 A 
ATOM      8  C   UNL     1       6.909   5.289  18.721  0.00  0.00    +0.000 A 
ATOM      9  C   UNL     1       7.132   5.196  17.351  0.00  0.00    +0.000 A 
ATOM     10  C   UNL     1       6.094   4.808  16.498  0.00  0.00    +0.000 A 
ATOM     11  C   UNL     1       4.839   4.492  17.049  0.00  0.00    +0.000 A 
BRANCH  10  12
ATOM     12  C   UNL     1       6.306   4.658  15.012  0.00  0.00    +0.000 C 
ATOM     13  F   UNL     1       7.527   5.083  14.585  0.00  0.00    +0.000 F 
ATOM     14  F   UNL     1       6.203   3.359  14.609  0.00  0.00    +0.000 F 
ATOM     15  F   UNL     1       5.389   5.347  14.277  0.00  0.00    +0.000 F 
ENDBRANCH  10  12
ENDBRANCH   1   6
BRANCH   1  17
ATOM     16  O   UNL     1       2.372   4.737  21.188  0.00  0.00    +0.000 OA
ATOM     17  C   UNL     1       2.733   5.013  20.044  0.00  0.00    +0.000 C 
ATOM     18  N   UNL     1       2.532   6.266  19.508  0.00  0.00    +0.000 N 
ATOM     19  H   UNL     1       3.038   6.548  18.679  0.00  0.00    +0.000 HD
BRANCH  18  20
ATOM     20  C   UNL     1       1.938   7.345  20.277  0.00  0.00    +0.000 C 
BRANCH  20  21
ATOM     21  C   UNL     1       1.720   8.510  19.379  0.00  0.00    +0.000 A 
ATOM     22  N   UNL     1       2.271   8.686  18.189  0.00  0.00    +0.000 NA
ATOM     23  N   UNL     1       1.841   9.891  17.686  0.00  0.00    +0.000 NA
ATOM     24  C   UNL     1       1.039  10.433  18.574  0.00  0.00    +0.000 A 
ATOM     25  C   UNL     1       0.317  11.661  18.593  0.00  0.00    +0.000 A 
ATOM     26  C   UNL     1      -0.449  11.963  19.661  0.00  0.00    +0.000 A 
ATOM     27  C   UNL     1      -0.556  11.062  20.798  0.00  0.00    +0.000 A 
ATOM     28  C   UNL     1       0.130   9.900  20.781  0.00  0.00    +0.000 A 
ATOM     29  N   UNL     1       0.918   9.594  19.674  0.00  0.00    +0.000 N 
ENDBRANCH  20  21
ENDBRANCH  18  20
ENDBRANCH   1  17
TORSDOF 5
ENDMDL
MODEL 7
REMARK VINA RESULT:      -8.5      4.201      7.755
REMARK  Name = 
REMARK  5 active torsions:
REMARK  status: ('A' for Active; 'I' for Inactive)
REMARK    1  A    between atoms: C_2  and  C_14
REMARK    2  A    between atoms: N_3  and  C_4
REMARK    3  A    between atoms: C_4  and  C_5
REMARK    4  A    between atoms: C_14  and  C_15
REMARK    5  A    between atoms: C_19  and  C_20
REMARK                            x       y       z     vdW  Elec       q    Type
REMARK                         _______ _______ _______ _____ _____    ______ ____
ROOT
ATOM      1  C   UNL     1       2.806   4.328  19.646  0.00  0.00    +0.000 C 
ATOM      2  C   UNL     1       2.284   3.771  20.993  0.00  0.00    +0.000 C 
ATOM      3  C   UNL     1       0.807   3.436  20.764  0.00  0.00    +0.000 C 
ATOM      4  C   UNL     1       0.631   3.298  19.257  0.00  0.00    +0.000 C 
ATOM      5  C   UNL     1       2.040   3.394  18.682  0.00  0.00    +0.000 C 
ENDROOT
BRANCH   1   6
ATOM      6  C   UNL     1       2.512   5.836  19.486  0.00  0.00    +0.000 A 
ATOM      7  C   UNL     1       2.695   6.464  18.240  0.00  0.00    +0.000 A 
ATOM      8  C   UNL     1       2.261   7.776  18.018  0.00  0.00    +0.000 A 
ATOM      9  C   UNL     1       1.643   8.493  19.039  0.00  0.00    +0.000 A 
ATOM     10  C   UNL     1       1.493   7.919  20.304  0.00  0.00    +0.000 A 
ATOM     11  C   UNL     1       1.951   6.606  20.519  0.00  0.00    +0.000 A 
BRANCH  10  12
ATOM     12  C   UNL     1       0.795   8.648  21.426  0.00  0.00    +0.000 C 
ATOM     13  F   UNL     1      -0.378   8.072  21.809  0.00  0.00    +0.000 F 
ATOM     14  F   UNL     1       1.563   8.711  22.551  0.00  0.00    +0.000 F 
ATOM     15  F   UNL     1       0.495   9.939  21.109  0.00  0.00    +0.000 F 
ENDBRANCH  10  12
ENDBRANCH   1   6
BRANCH   1  17
ATOM     16  O   UNL     1       4.872   3.006  19.707  0.00  0.00    +0.000 OA
ATOM     17  C   UNL     1       4.346   4.105  19.529  0.00  0.00    +0.000 C 
ATOM     18  N   UNL     1       5.100   5.241  19.333  0.00  0.00    +0.000 N 
ATOM     19  H   UNL     1       4.669   6.074  18.954  0.00  0.00    +0.000 HD
BRANCH  18  20
ATOM     20  C   UNL     1       6.550   5.200  19.268  0.00  0.00    +0.000 C 
BRANCH  20  21
ATOM     21  C   UNL     1       6.979   5.595  17.900  0.00  0.00    +0.000 A 
ATOM     22  N   UNL     1       7.724   6.645  17.594  0.00  0.00    +0.000 NA
ATOM     23  N   UNL     1       7.881   6.682  16.228  0.00  0.00    +0.000 NA
ATOM     24  C   UNL     1       7.230   5.660  15.722  0.00  0.00    +0.000 A 
ATOM     25  C   UNL     1       7.042   5.208  14.385  0.00  0.00    +0.000 A 
ATOM     26  C   UNL     1       6.309   4.099  14.156  0.00  0.00    +0.000 A 
ATOM     27  C   UNL     1       5.704   3.351  15.246  0.00  0.00    +0.000 A 
ATOM     28  C   UNL     1       5.880   3.781  16.513  0.00  0.00    +0.000 A 
ATOM     29  N   UNL     1       6.638   4.926  16.742  0.00  0.00    +0.000 N 
ENDBRANCH  20  21
ENDBRANCH  18  20
ENDBRANCH   1  17
TORSDOF 5
ENDMDL
MODEL 8
REMARK VINA RESULT:      -8.4      2.462      3.809
REMARK  Name = 
REMARK  5 active torsions:
REMARK  status: ('A' for Active; 'I' for Inactive)
REMARK    1  A    between atoms: C_2  and  C_14
REMARK    2  A    between atoms: N_3  and  C_4
REMARK    3  A    between atoms: C_4  and  C_5
REMARK    4  A    between atoms: C_14  and  C_15
REMARK    5  A    between atoms: C_19  and  C_20
REMARK                            x       y       z     vdW  Elec       q    Type
REMARK                         _______ _______ _______ _____ _____    ______ ____
ROOT
ATOM      1  C   UNL     1       3.710   6.041  18.062  0.00  0.00    +0.000 C 
ATOM      2  C   UNL     1       4.938   6.175  18.996  0.00  0.00    +0.000 C 
ATOM      3  C   UNL     1       5.912   5.072  18.570  0.00  0.00    +0.000 C 
ATOM      4  C   UNL     1       5.518   4.684  17.150  0.00  0.00    +0.000 C 
ATOM      5  C   UNL     1       4.442   5.685  16.748  0.00  0.00    +0.000 C 
ENDROOT
BRANCH   1   6
ATOM      6  C   UNL     1       2.705   4.985  18.571  0.00  0.00    +0.000 A 
ATOM      7  C   UNL     1       1.836   4.343  17.669  0.00  0.00    +0.000 A 
ATOM      8  C   UNL     1       1.051   3.256  18.066  0.00  0.00    +0.000 A 
ATOM      9  C   UNL     1       1.107   2.791  19.378  0.00  0.00    +0.000 A 
ATOM     10  C   UNL     1       1.918   3.439  20.314  0.00  0.00    +0.000 A 
ATOM     11  C   UNL     1       2.688   4.543  19.905  0.00  0.00    +0.000 A 
BRANCH  10  12
ATOM     12  C   UNL     1       2.036   2.944  21.735  0.00  0.00    +0.000 C 
ATOM     13  F   UNL     1       0.897   2.372  22.214  0.00  0.00    +0.000 F 
ATOM     14  F   UNL     1       3.011   2.000  21.868  0.00  0.00    +0.000 F 
ATOM     15  F   UNL     1       2.357   3.935  22.613  0.00  0.00    +0.000 F 
ENDBRANCH  10  12
ENDBRANCH   1   6
BRANCH   1  17
ATOM     16  O   UNL     1       3.163   8.180  16.993  0.00  0.00    +0.000 OA
ATOM     17  C   UNL     1       2.976   7.411  17.936  0.00  0.00    +0.000 C 
ATOM     18  N   UNL     1       2.190   7.768  19.010  0.00  0.00    +0.000 N 
ATOM     19  H   UNL     1       1.852   7.057  19.646  0.00  0.00    +0.000 HD
BRANCH  18  20
ATOM     20  C   UNL     1       1.495   9.041  19.065  0.00  0.00    +0.000 C 
BRANCH  20  21
ATOM     21  C   UNL     1       1.022   9.268  20.457  0.00  0.00    +0.000 A 
ATOM     22  N   UNL     1       1.372   8.563  21.520  0.00  0.00    +0.000 NA
ATOM     23  N   UNL     1       0.705   9.064  22.613  0.00  0.00    +0.000 NA
ATOM     24  C   UNL     1      -0.042  10.064  22.202  0.00  0.00    +0.000 A 
ATOM     25  C   UNL     1      -0.937  10.937  22.884  0.00  0.00    +0.000 A 
ATOM     26  C   UNL     1      -1.583  11.897  22.192  0.00  0.00    +0.000 A 
ATOM     27  C   UNL     1      -1.388  12.063  20.760  0.00  0.00    +0.000 A 
ATOM     28  C   UNL     1      -0.542  11.233  20.113  0.00  0.00    +0.000 A 
ATOM     29  N   UNL     1       0.122  10.244  20.835  0.00  0.00    +0.000 N 
ENDBRANCH  20  21
ENDBRANCH  18  20
ENDBRANCH   1  17
TORSDOF 5
ENDMDL
MODEL 9
REMARK VINA RESULT:      -8.4      4.639      8.360
REMARK  Name = 
REMARK  5 active torsions:
REMARK  status: ('A' for Active; 'I' for Inactive)
REMARK    1  A    between atoms: C_2  and  C_14
REMARK    2  A    between atoms: N_3  and  C_4
REMARK    3  A    between atoms: C_4  and  C_5
REMARK    4  A    between atoms: C_14  and  C_15
REMARK    5  A    between atoms: C_19  and  C_20
REMARK                            x       y       z     vdW  Elec       q    Type
REMARK                         _______ _______ _______ _____ _____    ______ ____
ROOT
ATOM      1  C   UNL     1       2.501   4.085  19.019  0.00  0.00    +0.000 C 
ATOM      2  C   UNL     1       3.391   3.494  20.140  0.00  0.00    +0.000 C 
ATOM      3  C   UNL     1       2.520   3.474  21.400  0.00  0.00    +0.000 C 
ATOM      4  C   UNL     1       1.075   3.538  20.919  0.00  0.00    +0.000 C 
ATOM      5  C   UNL     1       1.156   3.425  19.401  0.00  0.00    +0.000 C 
ENDROOT
BRANCH   1   6
ATOM      6  C   UNL     1       2.510   5.629  19.023  0.00  0.00    +0.000 A 
ATOM      7  C   UNL     1       3.016   6.336  17.915  0.00  0.00    +0.000 A 
ATOM      8  C   UNL     1       2.866   7.723  17.810  0.00  0.00    +0.000 A 
ATOM      9  C   UNL     1       2.216   8.438  18.812  0.00  0.00    +0.000 A 
ATOM     10  C   UNL     1       1.749   7.775  19.951  0.00  0.00    +0.000 A 
ATOM     11  C   UNL     1       1.923   6.383  20.053  0.00  0.00    +0.000 A 
BRANCH  10  12
ATOM     12  C   UNL     1       1.006   8.506  21.043  0.00  0.00    +0.000 C 
ATOM     13  F   UNL     1       1.757   8.745  22.154  0.00  0.00    +0.000 F 
ATOM     14  F   UNL     1       0.558   9.726  20.628  0.00  0.00    +0.000 F 
ATOM     15  F   UNL     1      -0.097   7.833  21.471  0.00  0.00    +0.000 F 
ENDBRANCH  10  12
ENDBRANCH   1   6
BRANCH   1  17
ATOM     16  O   UNL     1       2.211   3.227  16.738  0.00  0.00    +0.000 OA
ATOM     17  C   UNL     1       2.988   3.586  17.623  0.00  0.00    +0.000 C 
ATOM     18  N   UNL     1       4.352   3.454  17.480  0.00  0.00    +0.000 N 
ATOM     19  H   UNL     1       4.975   3.963  18.093  0.00  0.00    +0.000 HD
BRANCH  18  20
ATOM     20  C   UNL     1       4.951   2.941  16.261  0.00  0.00    +0.000 C 
BRANCH  20  21
ATOM     21  C   UNL     1       5.953   3.924  15.769  0.00  0.00    +0.000 A 
ATOM     22  N   UNL     1       6.588   4.820  16.507  0.00  0.00    +0.000 NA
ATOM     23  N   UNL     1       7.408   5.556  15.685  0.00  0.00    +0.000 NA
ATOM     24  C   UNL     1       7.261   5.101  14.461  0.00  0.00    +0.000 A 
ATOM     25  C   UNL     1       7.847   5.481  13.219  0.00  0.00    +0.000 A 
ATOM     26  C   UNL     1       7.503   4.821  12.095  0.00  0.00    +0.000 A 
ATOM     27  C   UNL     1       6.545   3.728  12.120  0.00  0.00    +0.000 A 
ATOM     28  C   UNL     1       5.988   3.370  13.296  0.00  0.00    +0.000 A 
ATOM     29  N   UNL     1       6.349   4.056  14.453  0.00  0.00    +0.000 N 
ENDBRANCH  20  21
ENDBRANCH  18  20
ENDBRANCH   1  17
TORSDOF 5
ENDMDL
