MODEL 1
REMARK VINA RESULT:      -8.5      0.000      0.000
REMARK  Name = 
REMARK  7 active torsions:
REMARK  status: ('A' for Active; 'I' for Inactive)
REMARK    1  A    between atoms: C_1  and  C_2
REMARK    2  A    between atoms: C_4  and  C_5
REMARK    3  A    between atoms: N_7  and  C_8
REMARK    4  A    between atoms: C_8  and  C_9
REMARK    5  A    between atoms: C_9  and  C_10
REMARK    6  A    between atoms: C_9  and  N_16
REMARK    7  A    between atoms: C_13  and  C_14
REMARK                            x       y       z     vdW  Elec       q    Type
REMARK                         _______ _______ _______ _____ _____    ______ ____
ROOT
ATOM      1  C   UNL     1       1.973   9.002  18.005  0.00  0.00    +0.000 C 
ATOM      2  O   UNL     1       2.660   9.710  17.276  0.00  0.00    +0.000 OA
ATOM      3  N   UNL     1       2.274   7.668  18.209  0.00  0.00    +0.000 N 
ATOM      4  H   UNL     1       1.799   7.126  18.919  0.00  0.00    +0.000 HD
ENDROOT
BRANCH   1   8
ATOM      5  C   UNL     1      -2.256  11.661  17.777  0.00  0.00    +0.000 C 
ATOM      6  C   UNL     1      -1.257  10.839  18.537  0.00  0.00    +0.000 A 
ATOM      7  C   UNL     1      -0.184  10.236  17.900  0.00  0.00    +0.000 A 
ATOM      8  C   UNL     1       0.754   9.546  18.679  0.00  0.00    +0.000 A 
ATOM      9  C   UNL     1       0.603   9.496  20.097  0.00  0.00    +0.000 A 
ATOM     10  C   UNL     1       1.505   8.862  21.001  0.00  0.00    +0.000 A 
ATOM     11  C   UNL     1       1.308   8.923  22.378  0.00  0.00    +0.000 A 
ATOM     12  C   UNL     1       0.190   9.569  22.867  0.00  0.00    +0.000 A 
ATOM     13  F   UNL     1      -0.007   9.641  24.189  0.00  0.00    +0.000 F 
ATOM     14  C   UNL     1      -0.722  10.158  22.002  0.00  0.00    +0.000 A 
ATOM     15  C   UNL     1      -0.529  10.138  20.631  0.00  0.00    +0.000 A 
ATOM     16  N   UNL     1      -1.434  10.774  19.872  0.00  0.00    +0.000 NA
ENDBRANCH   1   8
BRANCH   3  17
ATOM     17  C   UNL     1       3.443   7.107  17.543  0.00  0.00    +0.000 C 
BRANCH  17  18
ATOM     18  C   UNL     1       4.036   5.822  18.186  0.00  0.00    +0.000 C 
BRANCH  18  19
ATOM     19  C   UNL     1       2.988   4.751  18.316  0.00  0.00    +0.000 A 
ATOM     20  C   UNL     1       2.533   3.737  17.492  0.00  0.00    +0.000 A 
ATOM     21  C   UNL     1       1.698   2.915  18.287  0.00  0.00    +0.000 A 
ATOM     22  C   UNL     1       1.645   3.506  19.530  0.00  0.00    +0.000 A 
ATOM     23  C   UNL     1       1.120   3.072  20.840  0.00  0.00    +0.000 C 
ATOM     24  O   UNL     1       2.345   4.675  19.520  0.00  0.00    +0.000 OA
ENDBRANCH  18  19
BRANCH  18  25
ATOM     25  N   UNL     1       5.280   5.416  17.472  0.00  0.00    +0.000 NA
ATOM     26  C   UNL     1       6.299   4.683  18.243  0.00  0.00    +0.000 C 
ATOM     27  C   UNL     1       7.231   5.583  19.064  0.00  0.00    +0.000 C 
ATOM     28  O   UNL     1       7.913   6.515  18.219  0.00  0.00    +0.000 OA
ATOM     29  C   UNL     1       6.996   7.310  17.455  0.00  0.00    +0.000 C 
ATOM     30  C   UNL     1       5.950   6.473  16.693  0.00  0.00    +0.000 C 
ENDBRANCH  18  25
ENDBRANCH  17  18
ENDBRANCH   3  17
TORSDOF 5
ENDMDL
MODEL 2
REMARK VINA RESULT:      -8.4      2.358      3.022
REMARK  Name = 
REMARK  7 active torsions:
REMARK  status: ('A' for Active; 'I' for Inactive)
REMARK    1  A    between atoms: C_1  and  C_2
REMARK    2  A    between atoms: C_4  and  C_5
REMARK    3  A    between atoms: N_7  and  C_8
REMARK    4  A    between atoms: C_8  and  C_9
REMARK    5  A    between atoms: C_9  and  C_10
REMARK    6  A    between atoms: C_9  and  N_16
REMARK    7  A    between atoms: C_13  and  C_14
REMARK                            x       y       z     vdW  Elec       q    Type
REMARK                         _______ _______ _______ _____ _____    ______ ____
ROOT
ATOM      1  C   UNL     1       1.322   9.158  18.693  0.00  0.00    +0.000 C 
ATOM      2  O   UNL     1       0.779   9.284  17.600  0.00  0.00    +0.000 OA
ATOM      3  N   UNL     1       2.196   8.118  18.950  0.00  0.00    +0.000 N 
ATOM      4  H   UNL     1       2.752   8.098  19.796  0.00  0.00    +0.000 HD
ENDROOT
BRANCH   1   8
ATOM      5  C   UNL     1      -0.768  10.077  23.142  0.00  0.00    +0.000 C 
ATOM      6  C   UNL     1       0.006  10.518  21.935  0.00  0.00    +0.000 A 
ATOM      7  C   UNL     1       0.378   9.620  20.947  0.00  0.00    +0.000 A 
ATOM      8  C   UNL     1       1.032  10.110  19.809  0.00  0.00    +0.000 A 
ATOM      9  C   UNL     1       1.280  11.509  19.678  0.00  0.00    +0.000 A 
ATOM     10  C   UNL     1       1.901  12.136  18.557  0.00  0.00    +0.000 A 
ATOM     11  C   UNL     1       2.041  13.519  18.491  0.00  0.00    +0.000 A 
ATOM     12  C   UNL     1       1.613  14.288  19.555  0.00  0.00    +0.000 A 
ATOM     13  F   UNL     1       1.736  15.620  19.500  0.00  0.00    +0.000 F 
ATOM     14  C   UNL     1       1.045  13.695  20.674  0.00  0.00    +0.000 A 
ATOM     15  C   UNL     1       0.866  12.323  20.747  0.00  0.00    +0.000 A 
ATOM     16  N   UNL     1       0.262  11.839  21.843  0.00  0.00    +0.000 NA
ENDBRANCH   1   8
BRANCH   3  17
ATOM     17  C   UNL     1       2.475   7.162  17.886  0.00  0.00    +0.000 C 
BRANCH  17  18
ATOM     18  C   UNL     1       3.234   5.875  18.316  0.00  0.00    +0.000 C 
BRANCH  18  19
ATOM     19  C   UNL     1       2.272   4.801  18.745  0.00  0.00    +0.000 A 
ATOM     20  C   UNL     1       1.442   3.920  18.074  0.00  0.00    +0.000 A 
ATOM     21  C   UNL     1       0.974   2.993  19.036  0.00  0.00    +0.000 A 
ATOM     22  C   UNL     1       1.495   3.396  20.245  0.00  0.00    +0.000 A 
ATOM     23  C   UNL     1       1.552   2.776  21.585  0.00  0.00    +0.000 C 
ATOM     24  O   UNL     1       2.201   4.551  20.087  0.00  0.00    +0.000 OA
ENDBRANCH  18  19
BRANCH  18  25
ATOM     25  N   UNL     1       4.210   5.477  17.262  0.00  0.00    +0.000 NA
ATOM     26  C   UNL     1       5.178   4.419  17.596  0.00  0.00    +0.000 C 
ATOM     27  C   UNL     1       6.415   4.917  18.354  0.00  0.00    +0.000 C 
ATOM     28  O   UNL     1       7.106   5.917  17.599  0.00  0.00    +0.000 OA
ATOM     29  C   UNL     1       6.250   7.016  17.261  0.00  0.00    +0.000 C 
ATOM     30  C   UNL     1       4.928   6.580  16.599  0.00  0.00    +0.000 C 
ENDBRANCH  18  25
ENDBRANCH  17  18
ENDBRANCH   3  17
TORSDOF 5
ENDMDL
MODEL 3
REMARK VINA RESULT:      -8.3      0.918      1.288
REMARK  Name = 
REMARK  7 active torsions:
REMARK  status: ('A' for Active; 'I' for Inactive)
REMARK    1  A    between atoms: C_1  and  C_2
REMARK    2  A    between atoms: C_4  and  C_5
REMARK    3  A    between atoms: N_7  and  C_8
REMARK    4  A    between atoms: C_8  and  C_9
REMARK    5  A    between atoms: C_9  and  C_10
REMARK    6  A    between atoms: C_9  and  N_16
REMARK    7  A    between atoms: C_13  and  C_14
REMARK                            x       y       z     vdW  Elec       q    Type
REMARK                         _______ _______ _______ _____ _____    ______ ____
ROOT
ATOM      1  C   UNL     1       2.065   8.678  18.082  0.00  0.00    +0.000 C 
ATOM      2  O   UNL     1       2.784   9.269  17.284  0.00  0.00    +0.000 OA
ATOM      3  N   UNL     1       2.312   7.365  18.441  0.00  0.00    +0.000 N 
ATOM      4  H   UNL     1       1.811   6.927  19.203  0.00  0.00    +0.000 HD
ENDROOT
BRANCH   1   8
ATOM      5  C   UNL     1      -1.936  11.629  17.549  0.00  0.00    +0.000 C 
ATOM      6  C   UNL     1      -1.034  10.773  18.388  0.00  0.00    +0.000 A 
ATOM      7  C   UNL     1       0.015  10.062  17.827  0.00  0.00    +0.000 A 
ATOM      8  C   UNL     1       0.865   9.342  18.677  0.00  0.00    +0.000 A 
ATOM      9  C   UNL     1       0.654   9.373  20.087  0.00  0.00    +0.000 A 
ATOM     10  C   UNL     1       1.468   8.718  21.059  0.00  0.00    +0.000 A 
ATOM     11  C   UNL     1       1.220   8.860  22.421  0.00  0.00    +0.000 A 
ATOM     12  C   UNL     1       0.137   9.610  22.831  0.00  0.00    +0.000 A 
ATOM     13  F   UNL     1      -0.108   9.761  24.139  0.00  0.00    +0.000 F 
ATOM     14  C   UNL     1      -0.693  10.223  21.901  0.00  0.00    +0.000 A 
ATOM     15  C   UNL     1      -0.447  10.122  20.541  0.00  0.00    +0.000 A 
ATOM     16  N   UNL     1      -1.269  10.786  19.716  0.00  0.00    +0.000 NA
ENDBRANCH   1   8
BRANCH   3  17
ATOM     17  C   UNL     1       3.461   6.686  17.856  0.00  0.00    +0.000 C 
BRANCH  17  18
ATOM     18  C   UNL     1       4.122   5.590  18.739  0.00  0.00    +0.000 C 
BRANCH  18  19
ATOM     19  C   UNL     1       3.081   4.798  19.482  0.00  0.00    +0.000 A 
ATOM     20  C   UNL     1       2.425   4.955  20.689  0.00  0.00    +0.000 A 
ATOM     21  C   UNL     1       1.381   3.999  20.710  0.00  0.00    +0.000 A 
ATOM     22  C   UNL     1       1.498   3.276  19.544  0.00  0.00    +0.000 A 
ATOM     23  C   UNL     1       0.634   2.283  18.872  0.00  0.00    +0.000 C 
ATOM     24  O   UNL     1       2.591   3.692  18.844  0.00  0.00    +0.000 OA
ENDBRANCH  18  19
BRANCH  18  25
ATOM     25  N   UNL     1       5.082   4.787  17.930  0.00  0.00    +0.000 NA
ATOM     26  C   UNL     1       6.517   4.960  18.209  0.00  0.00    +0.000 C 
ATOM     27  C   UNL     1       7.152   6.166  17.505  0.00  0.00    +0.000 C 
ATOM     28  O   UNL     1       6.993   6.069  16.086  0.00  0.00    +0.000 OA
ATOM     29  C   UNL     1       5.615   5.939  15.712  0.00  0.00    +0.000 C 
ATOM     30  C   UNL     1       4.879   4.817  16.471  0.00  0.00    +0.000 C 
ENDBRANCH  18  25
ENDBRANCH  17  18
ENDBRANCH   3  17
TORSDOF 5
ENDMDL
MODEL 4
REMARK VINA RESULT:      -8.3      1.649      1.986
REMARK  Name = 
REMARK  7 active torsions:
REMARK  status: ('A' for Active; 'I' for Inactive)
REMARK    1  A    between atoms: C_1  and  C_2
REMARK    2  A    between atoms: C_4  and  C_5
REMARK    3  A    between atoms: N_7  and  C_8
REMARK    4  A    between atoms: C_8  and  C_9
REMARK    5  A    between atoms: C_9  and  C_10
REMARK    6  A    between atoms: C_9  and  N_16
REMARK    7  A    between atoms: C_13  and  C_14
REMARK                            x       y       z     vdW  Elec       q    Type
REMARK                         _______ _______ _______ _____ _____    ______ ____
ROOT
ATOM      1  C   UNL     1       1.958   8.457  18.066  0.00  0.00    +0.000 C 
ATOM      2  O   UNL     1       1.114   7.738  17.542  0.00  0.00    +0.000 OA
ATOM      3  N   UNL     1       3.284   8.072  18.148  0.00  0.00    +0.000 N 
ATOM      4  H   UNL     1       4.000   8.722  18.445  0.00  0.00    +0.000 HD
ENDROOT
BRANCH   1   8
ATOM      5  C   UNL     1       2.324  13.444  18.120  0.00  0.00    +0.000 C 
ATOM      6  C   UNL     1       1.792  12.157  18.677  0.00  0.00    +0.000 A 
ATOM      7  C   UNL     1       2.042  10.942  18.058  0.00  0.00    +0.000 A 
ATOM      8  C   UNL     1       1.581   9.771  18.672  0.00  0.00    +0.000 A 
ATOM      9  C   UNL     1       0.891   9.845  19.919  0.00  0.00    +0.000 A 
ATOM     10  C   UNL     1       0.408   8.727  20.662  0.00  0.00    +0.000 A 
ATOM     11  C   UNL     1      -0.197   8.896  21.905  0.00  0.00    +0.000 A 
ATOM     12  C   UNL     1      -0.371  10.173  22.398  0.00  0.00    +0.000 A 
ATOM     13  F   UNL     1      -0.944  10.348  23.596  0.00  0.00    +0.000 F 
ATOM     14  C   UNL     1       0.055  11.277  21.673  0.00  0.00    +0.000 A 
ATOM     15  C   UNL     1       0.688  11.132  20.449  0.00  0.00    +0.000 A 
ATOM     16  N   UNL     1       1.113  12.248  19.839  0.00  0.00    +0.000 NA
ENDBRANCH   1   8
BRANCH   3  17
ATOM     17  C   UNL     1       3.673   6.785  17.588  0.00  0.00    +0.000 C 
BRANCH  17  18
ATOM     18  C   UNL     1       4.201   5.735  18.606  0.00  0.00    +0.000 C 
BRANCH  18  19
ATOM     19  C   UNL     1       3.064   5.061  19.323  0.00  0.00    +0.000 A 
ATOM     20  C   UNL     1       2.224   5.424  20.361  0.00  0.00    +0.000 A 
ATOM     21  C   UNL     1       1.199   4.448  20.412  0.00  0.00    +0.000 A 
ATOM     22  C   UNL     1       1.504   3.518  19.443  0.00  0.00    +0.000 A 
ATOM     23  C   UNL     1       0.766   2.380  18.858  0.00  0.00    +0.000 C 
ATOM     24  O   UNL     1       2.690   3.834  18.850  0.00  0.00    +0.000 OA
ENDBRANCH  18  19
BRANCH  18  25
ATOM     25  N   UNL     1       5.173   4.820  17.944  0.00  0.00    +0.000 NA
ATOM     26  C   UNL     1       6.595   4.967  18.297  0.00  0.00    +0.000 C 
ATOM     27  C   UNL     1       7.323   6.071  17.520  0.00  0.00    +0.000 C 
ATOM     28  O   UNL     1       7.246   5.838  16.111  0.00  0.00    +0.000 OA
ATOM     29  C   UNL     1       5.889   5.722  15.663  0.00  0.00    +0.000 C 
ATOM     30  C   UNL     1       5.061   4.710  16.478  0.00  0.00    +0.000 C 
ENDBRANCH  18  25
ENDBRANCH  17  18
ENDBRANCH   3  17
TORSDOF 5
ENDMDL
MODEL 5
REMARK VINA RESULT:      -8.2      2.403      3.487
REMARK  Name = 
REMARK  7 active torsions:
REMARK  status: ('A' for Active; 'I' for Inactive)
REMARK    1  A    between atoms: C_1  and  C_2
REMARK    2  A    between atoms: C_4  and  C_5
REMARK    3  A    between atoms: N_7  and  C_8
REMARK    4  A    between atoms: C_8  and  C_9
REMARK    5  A    between atoms: C_9  and  C_10
REMARK    6  A    between atoms: C_9  and  N_16
REMARK    7  A    between atoms: C_13  and  C_14
REMARK                            x       y       z     vdW  Elec       q    Type
REMARK                         _______ _______ _______ _____ _____    ______ ____
ROOT
ATOM      1  C   UNL     1       1.319   9.676  18.299  0.00  0.00    +0.000 C 
ATOM      2  O   UNL     1       2.083  10.106  17.442  0.00  0.00    +0.000 OA
ATOM      3  N   UNL     1       1.392   8.368  18.741  0.00  0.00    +0.000 N 
ATOM      4  H   UNL     1       0.863   8.056  19.546  0.00  0.00    +0.000 HD
ENDROOT
BRANCH   1   8
ATOM      5  C   UNL     1      -0.350  12.557  22.030  0.00  0.00    +0.000 C 
ATOM      6  C   UNL     1      -0.526  11.903  20.692  0.00  0.00    +0.000 A 
ATOM      7  C   UNL     1       0.501  11.192  20.093  0.00  0.00    +0.000 A 
ATOM      8  C   UNL     1       0.246  10.542  18.878  0.00  0.00    +0.000 A 
ATOM      9  C   UNL     1      -1.055  10.604  18.298  0.00  0.00    +0.000 A 
ATOM     10  C   UNL     1      -1.452   9.956  17.090  0.00  0.00    +0.000 A 
ATOM     11  C   UNL     1      -2.767  10.021  16.636  0.00  0.00    +0.000 A 
ATOM     12  C   UNL     1      -3.686  10.767  17.347  0.00  0.00    +0.000 A 
ATOM     13  F   UNL     1      -4.955  10.831  16.925  0.00  0.00    +0.000 F 
ATOM     14  C   UNL     1      -3.311  11.438  18.503  0.00  0.00    +0.000 A 
ATOM     15  C   UNL     1      -2.017  11.362  18.991  0.00  0.00    +0.000 A 
ATOM     16  N   UNL     1      -1.754  12.000  20.140  0.00  0.00    +0.000 NA
ENDBRANCH   1   8
BRANCH   3  17
ATOM     17  C   UNL     1       2.412   7.496  18.174  0.00  0.00    +0.000 C 
BRANCH  17  18
ATOM     18  C   UNL     1       3.045   6.467  19.153  0.00  0.00    +0.000 C 
BRANCH  18  19
ATOM     19  C   UNL     1       2.199   5.228  19.253  0.00  0.00    +0.000 A 
ATOM     20  C   UNL     1       1.598   4.390  18.331  0.00  0.00    +0.000 A 
ATOM     21  C   UNL     1       1.146   3.257  19.049  0.00  0.00    +0.000 A 
ATOM     22  C   UNL     1       1.443   3.495  20.373  0.00  0.00    +0.000 A 
ATOM     23  C   UNL     1       1.414   2.656  21.588  0.00  0.00    +0.000 C 
ATOM     24  O   UNL     1       1.991   4.735  20.512  0.00  0.00    +0.000 OA
ENDBRANCH  18  19
BRANCH  18  25
ATOM     25  N   UNL     1       4.476   6.240  18.807  0.00  0.00    +0.000 NA
ATOM     26  C   UNL     1       4.851   6.303  17.385  0.00  0.00    +0.000 C 
ATOM     27  C   UNL     1       4.605   5.001  16.613  0.00  0.00    +0.000 C 
ATOM     28  O   UNL     1       5.324   3.915  17.204  0.00  0.00    +0.000 OA
ATOM     29  C   UNL     1       4.991   3.747  18.589  0.00  0.00    +0.000 C 
ATOM     30  C   UNL     1       5.103   5.048  19.407  0.00  0.00    +0.000 C 
ENDBRANCH  18  25
ENDBRANCH  17  18
ENDBRANCH   3  17
TORSDOF 5
ENDMDL
MODEL 6
REMARK VINA RESULT:      -8.2      1.991      3.191
REMARK  Name = 
REMARK  7 active torsions:
REMARK  status: ('A' for Active; 'I' for Inactive)
REMARK    1  A    between atoms: C_1  and  C_2
REMARK    2  A    between atoms: C_4  and  C_5
REMARK    3  A    between atoms: N_7  and  C_8
REMARK    4  A    between atoms: C_8  and  C_9
REMARK    5  A    between atoms: C_9  and  C_10
REMARK    6  A    between atoms: C_9  and  N_16
REMARK    7  A    between atoms: C_13  and  C_14
REMARK                            x       y       z     vdW  Elec       q    Type
REMARK                         _______ _______ _______ _____ _____    ______ ____
ROOT
ATOM      1  C   UNL     1       1.596   9.300  18.157  0.00  0.00    +0.000 C 
ATOM      2  O   UNL     1       2.254   9.823  17.265  0.00  0.00    +0.000 OA
ATOM      3  N   UNL     1       1.812   7.989  18.541  0.00  0.00    +0.000 N 
ATOM      4  H   UNL     1       1.374   7.607  19.369  0.00  0.00    +0.000 HD
ENDROOT
BRANCH   1   8
ATOM      5  C   UNL     1      -0.203  11.459  22.294  0.00  0.00    +0.000 C 
ATOM      6  C   UNL     1      -0.333  11.062  20.853  0.00  0.00    +0.000 A 
ATOM      7  C   UNL     1       0.716  10.467  20.170  0.00  0.00    +0.000 A 
ATOM      8  C   UNL     1       0.504  10.052  18.849  0.00  0.00    +0.000 A 
ATOM      9  C   UNL     1      -0.777  10.225  18.245  0.00  0.00    +0.000 A 
ATOM     10  C   UNL     1      -1.132   9.812  16.927  0.00  0.00    +0.000 A 
ATOM     11  C   UNL     1      -2.430   9.966  16.447  0.00  0.00    +0.000 A 
ATOM     12  C   UNL     1      -3.373  10.574  17.251  0.00  0.00    +0.000 A 
ATOM     13  F   UNL     1      -4.627  10.721  16.804  0.00  0.00    +0.000 F 
ATOM     14  C   UNL     1      -3.039  11.020  18.522  0.00  0.00    +0.000 A 
ATOM     15  C   UNL     1      -1.763  10.849  19.032  0.00  0.00    +0.000 A 
ATOM     16  N   UNL     1      -1.541  11.265  20.287  0.00  0.00    +0.000 NA
ENDBRANCH   1   8
BRANCH   3  17
ATOM     17  C   UNL     1       2.854   7.227  17.865  0.00  0.00    +0.000 C 
BRANCH  17  18
ATOM     18  C   UNL     1       3.615   6.195  18.744  0.00  0.00    +0.000 C 
BRANCH  18  19
ATOM     19  C   UNL     1       2.655   5.271  19.443  0.00  0.00    +0.000 A 
ATOM     20  C   UNL     1       1.895   5.359  20.595  0.00  0.00    +0.000 A 
ATOM     21  C   UNL     1       1.011   4.253  20.581  0.00  0.00    +0.000 A 
ATOM     22  C   UNL     1       1.323   3.524  19.455  0.00  0.00    +0.000 A 
ATOM     23  C   UNL     1       0.674   2.392  18.764  0.00  0.00    +0.000 C 
ATOM     24  O   UNL     1       2.389   4.086  18.816  0.00  0.00    +0.000 OA
ENDBRANCH  18  19
BRANCH  18  25
ATOM     25  N   UNL     1       4.681   5.526  17.946  0.00  0.00    +0.000 NA
ATOM     26  C   UNL     1       5.714   4.778  18.682  0.00  0.00    +0.000 C 
ATOM     27  C   UNL     1       6.858   5.649  19.217  0.00  0.00    +0.000 C 
ATOM     28  O   UNL     1       7.505   6.350  18.151  0.00  0.00    +0.000 OA
ATOM     29  C   UNL     1       6.581   7.146  17.398  0.00  0.00    +0.000 C 
ATOM     30  C   UNL     1       5.341   6.360  16.925  0.00  0.00    +0.000 C 
ENDBRANCH  18  25
ENDBRANCH  17  18
ENDBRANCH   3  17
TORSDOF 5
ENDMDL
MODEL 7
REMARK VINA RESULT:      -8.2      1.637      2.873
REMARK  Name = 
REMARK  7 active torsions:
REMARK  status: ('A' for Active; 'I' for Inactive)
REMARK    1  A    between atoms: C_1  and  C_2
REMARK    2  A    between atoms: C_4  and  C_5
REMARK    3  A    between atoms: N_7  and  C_8
REMARK    4  A    between atoms: C_8  and  C_9
REMARK    5  A    between atoms: C_9  and  C_10
REMARK    6  A    between atoms: C_9  and  N_16
REMARK    7  A    between atoms: C_13  and  C_14
REMARK                            x       y       z     vdW  Elec       q    Type
REMARK                         _______ _______ _______ _____ _____    ______ ____
ROOT
ATOM      1  C   UNL     1       1.751   9.126  18.498  0.00  0.00    +0.000 C 
ATOM      2  O   UNL     1       2.004   9.741  17.468  0.00  0.00    +0.000 OA
ATOM      3  N   UNL     1       2.279   7.871  18.739  0.00  0.00    +0.000 N 
ATOM      4  H   UNL     1       2.189   7.430  19.645  0.00  0.00    +0.000 HD
ENDROOT
BRANCH   1   8
ATOM      5  C   UNL     1       0.326   9.504  23.277  0.00  0.00    +0.000 C 
ATOM      6  C   UNL     1       0.163   9.840  21.824  0.00  0.00    +0.000 A 
ATOM      7  C   UNL     1       1.078   9.412  20.875  0.00  0.00    +0.000 A 
ATOM      8  C   UNL     1       0.827   9.696  19.527  0.00  0.00    +0.000 A 
ATOM      9  C   UNL     1      -0.362  10.391  19.156  0.00  0.00    +0.000 A 
ATOM     10  C   UNL     1      -0.751  10.706  17.820  0.00  0.00    +0.000 A 
ATOM     11  C   UNL     1      -1.966  11.332  17.551  0.00  0.00    +0.000 A 
ATOM     12  C   UNL     1      -2.780  11.695  18.605  0.00  0.00    +0.000 A 
ATOM     13  F   UNL     1      -3.954  12.291  18.360  0.00  0.00    +0.000 F 
ATOM     14  C   UNL     1      -2.401  11.435  19.915  0.00  0.00    +0.000 A 
ATOM     15  C   UNL     1      -1.213  10.784  20.204  0.00  0.00    +0.000 A 
ATOM     16  N   UNL     1      -0.949  10.529  21.494  0.00  0.00    +0.000 NA
ENDBRANCH   1   8
BRANCH   3  17
ATOM     17  C   UNL     1       3.163   7.283  17.740  0.00  0.00    +0.000 C 
BRANCH  17  18
ATOM     18  C   UNL     1       3.721   5.872  18.078  0.00  0.00    +0.000 C 
BRANCH  18  19
ATOM     19  C   UNL     1       2.608   4.919  18.418  0.00  0.00    +0.000 A 
ATOM     20  C   UNL     1       1.783   4.091  17.677  0.00  0.00    +0.000 A 
ATOM     21  C   UNL     1       1.105   3.263  18.604  0.00  0.00    +0.000 A 
ATOM     22  C   UNL     1       1.508   3.673  19.855  0.00  0.00    +0.000 A 
ATOM     23  C   UNL     1       1.332   3.118  21.213  0.00  0.00    +0.000 C 
ATOM     24  O   UNL     1       2.343   4.745  19.748  0.00  0.00    +0.000 OA
ENDBRANCH  18  19
BRANCH  18  25
ATOM     25  N   UNL     1       4.650   5.415  17.006  0.00  0.00    +0.000 NA
ATOM     26  C   UNL     1       5.535   4.279  17.311  0.00  0.00    +0.000 C 
ATOM     27  C   UNL     1       6.817   4.666  18.060  0.00  0.00    +0.000 C 
ATOM     28  O   UNL     1       7.575   5.620  17.312  0.00  0.00    +0.000 OA
ATOM     29  C   UNL     1       6.805   6.789  17.002  0.00  0.00    +0.000 C 
ATOM     30  C   UNL     1       5.445   6.469  16.350  0.00  0.00    +0.000 C 
ENDBRANCH  18  25
ENDBRANCH  17  18
ENDBRANCH   3  17
TORSDOF 5
ENDMDL
MODEL 8
REMARK VINA RESULT:      -8.2      1.533      1.667
REMARK  Name = 
REMARK  7 active torsions:
REMARK  status: ('A' for Active; 'I' for Inactive)
REMARK    1  A    between atoms: C_1  and  C_2
REMARK    2  A    between atoms: C_4  and  C_5
REMARK    3  A    between atoms: N_7  and  C_8
REMARK    4  A    between atoms: C_8  and  C_9
REMARK    5  A    between atoms: C_9  and  C_10
REMARK    6  A    between atoms: C_9  and  N_16
REMARK    7  A    between atoms: C_13  and  C_14
REMARK                            x       y       z     vdW  Elec       q    Type
REMARK                         _______ _______ _______ _____ _____    ______ ____
ROOT
ATOM      1  C   UNL     1       1.754   9.109  17.975  0.00  0.00    +0.000 C 
ATOM      2  O   UNL     1       0.922   8.590  17.239  0.00  0.00    +0.000 OA
ATOM      3  N   UNL     1       3.017   8.568  18.134  0.00  0.00    +0.000 N 
ATOM      4  H   UNL     1       3.746   9.073  18.621  0.00  0.00    +0.000 HD
ENDROOT
BRANCH   1   8
ATOM      5  C   UNL     1       2.298  14.023  18.732  0.00  0.00    +0.000 C 
ATOM      6  C   UNL     1       1.721  12.689  19.105  0.00  0.00    +0.000 A 
ATOM      7  C   UNL     1       1.927  11.567  18.318  0.00  0.00    +0.000 A 
ATOM      8  C   UNL     1       1.425  10.337  18.763  0.00  0.00    +0.000 A 
ATOM      9  C   UNL     1       0.740  10.258  20.012  0.00  0.00    +0.000 A 
ATOM     10  C   UNL     1       0.217   9.064  20.593  0.00  0.00    +0.000 A 
ATOM     11  C   UNL     1      -0.380   9.076  21.851  0.00  0.00    +0.000 A 
ATOM     12  C   UNL     1      -0.508  10.276  22.521  0.00  0.00    +0.000 A 
ATOM     13  F   UNL     1      -1.073  10.300  23.734  0.00  0.00    +0.000 F 
ATOM     14  C   UNL     1      -0.043  11.456  21.956  0.00  0.00    +0.000 A 
ATOM     15  C   UNL     1       0.584  11.463  20.720  0.00  0.00    +0.000 A 
ATOM     16  N   UNL     1       1.047  12.639  20.272  0.00  0.00    +0.000 NA
ENDBRANCH   1   8
BRANCH   3  17
ATOM     17  C   UNL     1       3.355   7.358  17.396  0.00  0.00    +0.000 C 
BRANCH  17  18
ATOM     18  C   UNL     1       3.873   6.167  18.250  0.00  0.00    +0.000 C 
BRANCH  18  19
ATOM     19  C   UNL     1       2.756   5.217  18.585  0.00  0.00    +0.000 A 
ATOM     20  C   UNL     1       1.854   4.481  17.837  0.00  0.00    +0.000 A 
ATOM     21  C   UNL     1       1.215   3.592  18.734  0.00  0.00    +0.000 A 
ATOM     22  C   UNL     1       1.719   3.877  19.984  0.00  0.00    +0.000 A 
ATOM     23  C   UNL     1       1.619   3.208  21.297  0.00  0.00    +0.000 C 
ATOM     24  O   UNL     1       2.579   4.932  19.911  0.00  0.00    +0.000 OA
ENDBRANCH  18  19
BRANCH  18  25
ATOM     25  N   UNL     1       5.066   5.550  17.604  0.00  0.00    +0.000 NA
ATOM     26  C   UNL     1       5.960   4.746  18.453  0.00  0.00    +0.000 C 
ATOM     27  C   UNL     1       6.989   5.570  19.237  0.00  0.00    +0.000 C 
ATOM     28  O   UNL     1       7.806   6.341  18.351  0.00  0.00    +0.000 OA
ATOM     29  C   UNL     1       7.020   7.193  17.507  0.00  0.00    +0.000 C 
ATOM     30  C   UNL     1       5.887   6.449  16.774  0.00  0.00    +0.000 C 
ENDBRANCH  18  25
ENDBRANCH  17  18
ENDBRANCH   3  17
TORSDOF 5
ENDMDL
MODEL 9
REMARK VINA RESULT:      -8.1      3.863      7.772
REMARK  Name = 
REMARK  7 active torsions:
REMARK  status: ('A' for Active; 'I' for Inactive)
REMARK    1  A    between atoms: C_1  and  C_2
REMARK    2  A    between atoms: C_4  and  C_5
REMARK    3  A    between atoms: N_7  and  C_8
REMARK    4  A    between atoms: C_8  and  C_9
REMARK    5  A    between atoms: C_9  and  C_10
REMARK    6  A    between atoms: C_9  and  N_16
REMARK    7  A    between atoms: C_13  and  C_14
REMARK                            x       y       z     vdW  Elec       q    Type
REMARK                         _______ _______ _______ _____ _____    ______ ____
ROOT
ATOM      1  C   UNL     1       5.287   4.378  19.099  0.00  0.00    +0.000 C 
ATOM      2  O   UNL     1       5.505   3.206  19.388  0.00  0.00    +0.000 OA
ATOM      3  N   UNL     1       4.200   5.060  19.615  0.00  0.00    +0.000 N 
ATOM      4  H   UNL     1       4.104   6.060  19.494  0.00  0.00    +0.000 HD
ENDROOT
BRANCH   1   8
ATOM      5  C   UNL     1       8.213   8.303  18.078  0.00  0.00    +0.000 C 
ATOM      6  C   UNL     1       7.555   7.013  17.684  0.00  0.00    +0.000 A 
ATOM      7  C   UNL     1       6.825   6.266  18.595  0.00  0.00    +0.000 A 
ATOM      8  C   UNL     1       6.173   5.112  18.143  0.00  0.00    +0.000 A 
ATOM      9  C   UNL     1       6.252   4.742  16.767  0.00  0.00    +0.000 A 
ATOM     10  C   UNL     1       5.604   3.616  16.177  0.00  0.00    +0.000 A 
ATOM     11  C   UNL     1       5.687   3.374  14.808  0.00  0.00    +0.000 A 
ATOM     12  C   UNL     1       6.450   4.214  14.023  0.00  0.00    +0.000 A 
ATOM     13  F   UNL     1       6.531   3.995  12.705  0.00  0.00    +0.000 F 
ATOM     14  C   UNL     1       7.122   5.292  14.584  0.00  0.00    +0.000 A 
ATOM     15  C   UNL     1       7.028   5.571  15.938  0.00  0.00    +0.000 A 
ATOM     16  N   UNL     1       7.668   6.661  16.387  0.00  0.00    +0.000 NA
ENDBRANCH   1   8
BRANCH   3  17
ATOM     17  C   UNL     1       3.308   4.359  20.529  0.00  0.00    +0.000 C 
BRANCH  17  18
ATOM     18  C   UNL     1       1.814   4.786  20.476  0.00  0.00    +0.000 C 
BRANCH  18  19
ATOM     19  C   UNL     1       1.684   6.255  20.177  0.00  0.00    +0.000 A 
ATOM     20  C   UNL     1       1.357   7.370  20.928  0.00  0.00    +0.000 A 
ATOM     21  C   UNL     1       1.650   8.498  20.124  0.00  0.00    +0.000 A 
ATOM     22  C   UNL     1       2.080   8.007  18.912  0.00  0.00    +0.000 A 
ATOM     23  C   UNL     1       2.706   8.629  17.727  0.00  0.00    +0.000 C 
ATOM     24  O   UNL     1       2.005   6.646  18.907  0.00  0.00    +0.000 OA
ENDBRANCH  18  19
BRANCH  18  25
ATOM     25  N   UNL     1       1.050   3.879  19.574  0.00  0.00    +0.000 NA
ATOM     26  C   UNL     1       1.196   2.429  19.785  0.00  0.00    +0.000 C 
ATOM     27  C   UNL     1       2.435   1.820  19.116  0.00  0.00    +0.000 C 
ATOM     28  O   UNL     1       2.419   2.055  17.705  0.00  0.00    +0.000 OA
ATOM     29  C   UNL     1       2.321   3.452  17.399  0.00  0.00    +0.000 C 
ATOM     30  C   UNL     1       1.163   4.159  18.132  0.00  0.00    +0.000 C 
ENDBRANCH  18  25
ENDBRANCH  17  18
ENDBRANCH   3  17
TORSDOF 5
ENDMDL
