MODEL 1
REMARK VINA RESULT:      -8.7      0.000      0.000
REMARK  Name = 
REMARK  6 active torsions:
REMARK  status: ('A' for Active; 'I' for Inactive)
REMARK    1  A    between atoms: C_1  and  C_2
REMARK    2  A    between atoms: C_2  and  S_3
REMARK    3  A    between atoms: S_3  and  C_6
REMARK    4  A    between atoms: C_9  and  S_10
REMARK    5  A    between atoms: S_10  and  N_13
REMARK    6  A    between atoms: C_16  and  C_17
REMARK                            x       y       z     vdW  Elec       q    Type
REMARK                         _______ _______ _______ _____ _____    ______ ____
ROOT
ATOM      1  N   UNL     1       1.054   9.621  19.463  0.00  0.00    +0.000 NA
ATOM      2  C   UNL     1       1.844   9.802  18.218  0.00  0.00    +0.000 C 
ATOM      3  C   UNL     1       2.423   8.524  17.740  0.00  0.00    +0.000 C 
ATOM      4  C   UNL     1       2.447   7.381  18.446  0.00  0.00    +0.000 C 
ATOM      5  C   UNL     1       1.919   7.297  19.846  0.00  0.00    +0.000 C 
ATOM      6  C   UNL     1       1.704   8.689  20.443  0.00  0.00    +0.000 C 
ENDROOT
BRANCH   4   7
ATOM      7  C   UNL     1       2.947   6.191  17.868  0.00  0.00    +0.000 A 
ATOM      8  C   UNL     1       2.361   4.952  17.992  0.00  0.00    +0.000 A 
ATOM      9  N   UNL     1       3.226   4.081  17.382  0.00  0.00    +0.000 N 
ATOM     10  C   UNL     1       4.489   4.623  17.460  0.00  0.00    +0.000 A 
ATOM     11  C   UNL     1       5.757   4.057  17.597  0.00  0.00    +0.000 A 
ATOM     12  C   UNL     1       6.829   4.953  17.585  0.00  0.00    +0.000 A 
ATOM     13  F   UNL     1       8.053   4.504  17.891  0.00  0.00    +0.000 F 
ATOM     14  C   UNL     1       6.662   6.304  17.295  0.00  0.00    +0.000 A 
ATOM     15  C   UNL     1       5.381   6.848  17.172  0.00  0.00    +0.000 A 
ATOM     16  C   UNL     1       4.284   5.998  17.402  0.00  0.00    +0.000 A 
ATOM     17  H   UNL     1       2.949   3.366  16.723  0.00  0.00    +0.000 HD
ENDBRANCH   4   7
BRANCH   1  18
ATOM     18  S   UNL     1       0.613  11.106  20.191  0.00  0.00    +0.000 S 
ATOM     19  O   UNL     1       1.435  12.131  19.585  0.00  0.00    +0.000 OA
ATOM     20  O   UNL     1       0.584  10.931  21.626  0.00  0.00    +0.000 OA
BRANCH  18  24
ATOM     21  C   UNL     1      -3.670  11.732  18.806  0.00  0.00    +0.000 A 
ATOM     22  C   UNL     1      -2.860  10.802  18.149  0.00  0.00    +0.000 A 
ATOM     23  C   UNL     1      -1.545  10.607  18.575  0.00  0.00    +0.000 A 
ATOM     24  C   UNL     1      -1.069  11.352  19.651  0.00  0.00    +0.000 A 
ATOM     25  C   UNL     1      -1.879  12.280  20.314  0.00  0.00    +0.000 A 
ATOM     26  C   UNL     1      -3.189  12.484  19.884  0.00  0.00    +0.000 A 
BRANCH  21  27
ATOM     27  S   UNL     1      -5.323  12.035  18.229  0.00  0.00    +0.000 S 
ATOM     28  O   UNL     1      -5.264  12.053  16.769  0.00  0.00    +0.000 OA
ATOM     29  O   UNL     1      -5.826  13.154  18.957  0.00  0.00    +0.000 OA
BRANCH  27  31
ATOM     30  C   UNL     1      -7.103  10.844  19.928  0.00  0.00    +0.000 C 
ATOM     31  C   UNL     1      -6.248  10.579  18.701  0.00  0.00    +0.000 C 
ENDBRANCH  27  31
ENDBRANCH  21  27
ENDBRANCH  18  24
ENDBRANCH   1  18
TORSDOF 5
ENDMDL
MODEL 2
REMARK VINA RESULT:      -8.6      3.681      5.565
REMARK  Name = 
REMARK  6 active torsions:
REMARK  status: ('A' for Active; 'I' for Inactive)
REMARK    1  A    between atoms: C_1  and  C_2
REMARK    2  A    between atoms: C_2  and  S_3
REMARK    3  A    between atoms: S_3  and  C_6
REMARK    4  A    between atoms: C_9  and  S_10
REMARK    5  A    between atoms: S_10  and  N_13
REMARK    6  A    between atoms: C_16  and  C_17
REMARK                            x       y       z     vdW  Elec       q    Type
REMARK                         _______ _______ _______ _____ _____    ______ ____
ROOT
ATOM      1  N   UNL     1       0.873  10.446  20.359  0.00  0.00    +0.000 NA
ATOM      2  C   UNL     1       0.893   9.303  21.308  0.00  0.00    +0.000 C 
ATOM      3  C   UNL     1       1.553   8.111  20.724  0.00  0.00    +0.000 C 
ATOM      4  C   UNL     1       1.884   7.974  19.429  0.00  0.00    +0.000 C 
ATOM      5  C   UNL     1       1.567   9.025  18.410  0.00  0.00    +0.000 C 
ATOM      6  C   UNL     1       0.554  10.036  18.951  0.00  0.00    +0.000 C 
ENDROOT
BRANCH   4   7
ATOM      7  C   UNL     1       2.588   6.831  18.986  0.00  0.00    +0.000 A 
ATOM      8  C   UNL     1       3.405   6.792  17.878  0.00  0.00    +0.000 A 
ATOM      9  N   UNL     1       3.785   5.481  17.755  0.00  0.00    +0.000 N 
ATOM     10  C   UNL     1       2.798   4.706  18.321  0.00  0.00    +0.000 A 
ATOM     11  C   UNL     1       2.295   3.440  18.017  0.00  0.00    +0.000 A 
ATOM     12  C   UNL     1       1.304   2.955  18.873  0.00  0.00    +0.000 A 
ATOM     13  F   UNL     1       0.651   1.834  18.542  0.00  0.00    +0.000 F 
ATOM     14  C   UNL     1       0.952   3.615  20.048  0.00  0.00    +0.000 A 
ATOM     15  C   UNL     1       1.463   4.886  20.324  0.00  0.00    +0.000 A 
ATOM     16  C   UNL     1       2.292   5.483  19.359  0.00  0.00    +0.000 A 
ATOM     17  H   UNL     1       4.734   5.173  17.593  0.00  0.00    +0.000 HD
ENDBRANCH   4   7
BRANCH   1  18
ATOM     18  S   UNL     1      -0.122  11.732  20.890  0.00  0.00    +0.000 S 
ATOM     19  O   UNL     1       0.039  11.824  22.325  0.00  0.00    +0.000 OA
ATOM     20  O   UNL     1      -1.433  11.582  20.300  0.00  0.00    +0.000 OA
BRANCH  18  24
ATOM     21  C   UNL     1       1.800  15.404  19.024  0.00  0.00    +0.000 A 
ATOM     22  C   UNL     1       2.539  14.609  19.905  0.00  0.00    +0.000 A 
ATOM     23  C   UNL     1       1.950  13.480  20.477  0.00  0.00    +0.000 A 
ATOM     24  C   UNL     1       0.630  13.173  20.154  0.00  0.00    +0.000 A 
ATOM     25  C   UNL     1      -0.109  13.963  19.269  0.00  0.00    +0.000 A 
ATOM     26  C   UNL     1       0.473  15.097  18.704  0.00  0.00    +0.000 A 
BRANCH  21  27
ATOM     27  S   UNL     1       2.519  16.880  18.344  0.00  0.00    +0.000 S 
ATOM     28  O   UNL     1       3.033  16.529  17.022  0.00  0.00    +0.000 OA
ATOM     29  O   UNL     1       3.377  17.430  19.343  0.00  0.00    +0.000 OA
BRANCH  27  31
ATOM     30  C   UNL     1       1.003  18.381  16.634  0.00  0.00    +0.000 C 
ATOM     31  C   UNL     1       1.140  17.991  18.096  0.00  0.00    +0.000 C 
ENDBRANCH  27  31
ENDBRANCH  21  27
ENDBRANCH  18  24
ENDBRANCH   1  18
TORSDOF 5
ENDMDL
MODEL 3
REMARK VINA RESULT:      -8.6      1.990      2.725
REMARK  Name = 
REMARK  6 active torsions:
REMARK  status: ('A' for Active; 'I' for Inactive)
REMARK    1  A    between atoms: C_1  and  C_2
REMARK    2  A    between atoms: C_2  and  S_3
REMARK    3  A    between atoms: S_3  and  C_6
REMARK    4  A    between atoms: C_9  and  S_10
REMARK    5  A    between atoms: S_10  and  N_13
REMARK    6  A    between atoms: C_16  and  C_17
REMARK                            x       y       z     vdW  Elec       q    Type
REMARK                         _______ _______ _______ _____ _____    ______ ____
ROOT
ATOM      1  N   UNL     1       0.737  10.094  19.811  0.00  0.00    +0.000 NA
ATOM      2  C   UNL     1       1.575  10.151  18.586  0.00  0.00    +0.000 C 
ATOM      3  C   UNL     1       2.202   8.842  18.284  0.00  0.00    +0.000 C 
ATOM      4  C   UNL     1       2.222   7.790  19.118  0.00  0.00    +0.000 C 
ATOM      5  C   UNL     1       1.636   7.854  20.496  0.00  0.00    +0.000 C 
ATOM      6  C   UNL     1       1.365   9.299  20.918  0.00  0.00    +0.000 C 
ENDROOT
BRANCH   4   7
ATOM      7  C   UNL     1       2.772   6.555  18.703  0.00  0.00    +0.000 A 
ATOM      8  C   UNL     1       3.516   6.372  17.560  0.00  0.00    +0.000 A 
ATOM      9  N   UNL     1       3.745   5.023  17.489  0.00  0.00    +0.000 N 
ATOM     10  C   UNL     1       2.713   4.390  18.146  0.00  0.00    +0.000 A 
ATOM     11  C   UNL     1       2.059   3.174  17.936  0.00  0.00    +0.000 A 
ATOM     12  C   UNL     1       1.071   2.845  18.867  0.00  0.00    +0.000 A 
ATOM     13  F   UNL     1       0.282   1.789  18.630  0.00  0.00    +0.000 F 
ATOM     14  C   UNL     1       0.859   3.597  20.020  0.00  0.00    +0.000 A 
ATOM     15  C   UNL     1       1.519   4.815  20.201  0.00  0.00    +0.000 A 
ATOM     16  C   UNL     1       2.353   5.268  19.163  0.00  0.00    +0.000 A 
ATOM     17  H   UNL     1       4.644   4.603  17.297  0.00  0.00    +0.000 HD
ENDBRANCH   4   7
BRANCH   1  18
ATOM     18  S   UNL     1       0.233  11.641  20.343  0.00  0.00    +0.000 S 
ATOM     19  O   UNL     1       1.025  12.613  19.619  0.00  0.00    +0.000 OA
ATOM     20  O   UNL     1       0.192  11.646  21.787  0.00  0.00    +0.000 OA
BRANCH  18  24
ATOM     21  C   UNL     1      -4.052  11.928  18.855  0.00  0.00    +0.000 A 
ATOM     22  C   UNL     1      -3.101  11.241  18.095  0.00  0.00    +0.000 A 
ATOM     23  C   UNL     1      -1.785  11.151  18.552  0.00  0.00    +0.000 A 
ATOM     24  C   UNL     1      -1.450  11.753  19.763  0.00  0.00    +0.000 A 
ATOM     25  C   UNL     1      -2.400  12.437  20.527  0.00  0.00    +0.000 A 
ATOM     26  C   UNL     1      -3.713  12.538  20.069  0.00  0.00    +0.000 A 
BRANCH  21  27
ATOM     27  S   UNL     1      -5.713  12.106  18.249  0.00  0.00    +0.000 S 
ATOM     28  O   UNL     1      -5.642  12.021  16.793  0.00  0.00    +0.000 OA
ATOM     29  O   UNL     1      -6.277  13.249  18.892  0.00  0.00    +0.000 OA
BRANCH  27  31
ATOM     30  C   UNL     1      -7.179  10.866  20.195  0.00  0.00    +0.000 C 
ATOM     31  C   UNL     1      -6.570  10.644  18.822  0.00  0.00    +0.000 C 
ENDBRANCH  27  31
ENDBRANCH  21  27
ENDBRANCH  18  24
ENDBRANCH   1  18
TORSDOF 5
ENDMDL
MODEL 4
REMARK VINA RESULT:      -8.4      2.039      3.013
REMARK  Name = 
REMARK  6 active torsions:
REMARK  status: ('A' for Active; 'I' for Inactive)
REMARK    1  A    between atoms: C_1  and  C_2
REMARK    2  A    between atoms: C_2  and  S_3
REMARK    3  A    between atoms: S_3  and  C_6
REMARK    4  A    between atoms: C_9  and  S_10
REMARK    5  A    between atoms: S_10  and  N_13
REMARK    6  A    between atoms: C_16  and  C_17
REMARK                            x       y       z     vdW  Elec       q    Type
REMARK                         _______ _______ _______ _____ _____    ______ ____
ROOT
ATOM      1  N   UNL     1       0.951   9.936  19.214  0.00  0.00    +0.000 NA
ATOM      2  C   UNL     1       1.822   9.844  18.014  0.00  0.00    +0.000 C 
ATOM      3  C   UNL     1       2.426   8.498  17.871  0.00  0.00    +0.000 C 
ATOM      4  C   UNL     1       2.401   7.541  18.814  0.00  0.00    +0.000 C 
ATOM      5  C   UNL     1       1.781   7.765  20.160  0.00  0.00    +0.000 C 
ATOM      6  C   UNL     1       1.532   9.252  20.417  0.00  0.00    +0.000 C 
ENDROOT
BRANCH   4   7
ATOM      7  C   UNL     1       2.933   6.258  18.549  0.00  0.00    +0.000 A 
ATOM      8  C   UNL     1       3.773   5.958  17.500  0.00  0.00    +0.000 A 
ATOM      9  N   UNL     1       3.948   4.600  17.555  0.00  0.00    +0.000 N 
ATOM     10  C   UNL     1       2.833   4.059  18.155  0.00  0.00    +0.000 A 
ATOM     11  C   UNL     1       2.150   2.855  17.976  0.00  0.00    +0.000 A 
ATOM     12  C   UNL     1       1.066   2.637  18.829  0.00  0.00    +0.000 A 
ATOM     13  F   UNL     1       0.258   1.594  18.599  0.00  0.00    +0.000 F 
ATOM     14  C   UNL     1       0.780   3.485  19.896  0.00  0.00    +0.000 A 
ATOM     15  C   UNL     1       1.472   4.690  20.046  0.00  0.00    +0.000 A 
ATOM     16  C   UNL     1       2.418   5.028  19.063  0.00  0.00    +0.000 A 
ATOM     17  H   UNL     1       4.842   4.134  17.482  0.00  0.00    +0.000 HD
ENDBRANCH   4   7
BRANCH   1  18
ATOM     18  S   UNL     1       0.469  11.540  19.563  0.00  0.00    +0.000 S 
ATOM     19  O   UNL     1       1.138  12.397  18.608  0.00  0.00    +0.000 OA
ATOM     20  O   UNL     1       0.601  11.768  20.984  0.00  0.00    +0.000 OA
BRANCH  18  24
ATOM     21  C   UNL     1      -3.975  11.550  18.609  0.00  0.00    +0.000 A 
ATOM     22  C   UNL     1      -3.485  12.372  19.628  0.00  0.00    +0.000 A 
ATOM     23  C   UNL     1      -2.120  12.371  19.920  0.00  0.00    +0.000 A 
ATOM     24  C   UNL     1      -1.274  11.543  19.185  0.00  0.00    +0.000 A 
ATOM     25  C   UNL     1      -1.762  10.723  18.162  0.00  0.00    +0.000 A 
ATOM     26  C   UNL     1      -3.126  10.715  17.874  0.00  0.00    +0.000 A 
BRANCH  21  27
ATOM     27  S   UNL     1      -5.719  11.495  18.275  0.00  0.00    +0.000 S 
ATOM     28  O   UNL     1      -6.162  10.133  18.564  0.00  0.00    +0.000 OA
ATOM     29  O   UNL     1      -5.922  12.075  16.988  0.00  0.00    +0.000 OA
BRANCH  27  31
ATOM     30  C   UNL     1      -7.457  13.517  18.882  0.00  0.00    +0.000 C 
ATOM     31  C   UNL     1      -6.457  12.561  19.508  0.00  0.00    +0.000 C 
ENDBRANCH  27  31
ENDBRANCH  21  27
ENDBRANCH  18  24
ENDBRANCH   1  18
TORSDOF 5
ENDMDL
MODEL 5
REMARK VINA RESULT:      -8.4      0.901      1.333
REMARK  Name = 
REMARK  6 active torsions:
REMARK  status: ('A' for Active; 'I' for Inactive)
REMARK    1  A    between atoms: C_1  and  C_2
REMARK    2  A    between atoms: C_2  and  S_3
REMARK    3  A    between atoms: S_3  and  C_6
REMARK    4  A    between atoms: C_9  and  S_10
REMARK    5  A    between atoms: S_10  and  N_13
REMARK    6  A    between atoms: C_16  and  C_17
REMARK                            x       y       z     vdW  Elec       q    Type
REMARK                         _______ _______ _______ _____ _____    ______ ____
ROOT
ATOM      1  N   UNL     1       1.045   9.639  19.390  0.00  0.00    +0.000 NA
ATOM      2  C   UNL     1       1.821   9.803  18.134  0.00  0.00    +0.000 C 
ATOM      3  C   UNL     1       2.410   8.522  17.677  0.00  0.00    +0.000 C 
ATOM      4  C   UNL     1       2.455   7.394  18.405  0.00  0.00    +0.000 C 
ATOM      5  C   UNL     1       1.940   7.332  19.811  0.00  0.00    +0.000 C 
ATOM      6  C   UNL     1       1.715   8.734  20.382  0.00  0.00    +0.000 C 
ENDROOT
BRANCH   4   7
ATOM      7  C   UNL     1       2.963   6.198  17.846  0.00  0.00    +0.000 A 
ATOM      8  C   UNL     1       2.370   4.962  17.966  0.00  0.00    +0.000 A 
ATOM      9  N   UNL     1       3.244   4.084  17.381  0.00  0.00    +0.000 N 
ATOM     10  C   UNL     1       4.507   4.623  17.483  0.00  0.00    +0.000 A 
ATOM     11  C   UNL     1       5.771   4.053  17.653  0.00  0.00    +0.000 A 
ATOM     12  C   UNL     1       6.845   4.945  17.660  0.00  0.00    +0.000 A 
ATOM     13  F   UNL     1       8.061   4.493  17.996  0.00  0.00    +0.000 F 
ATOM     14  C   UNL     1       6.690   6.295  17.356  0.00  0.00    +0.000 A 
ATOM     15  C   UNL     1       5.414   6.842  17.201  0.00  0.00    +0.000 A 
ATOM     16  C   UNL     1       4.310   5.998  17.412  0.00  0.00    +0.000 A 
ATOM     17  H   UNL     1       2.980   3.366  16.721  0.00  0.00    +0.000 HD
ENDBRANCH   4   7
BRANCH   1  18
ATOM     18  S   UNL     1       0.594  11.132  20.092  0.00  0.00    +0.000 S 
ATOM     19  O   UNL     1       1.405  12.154  19.464  0.00  0.00    +0.000 OA
ATOM     20  O   UNL     1       0.570  10.984  21.529  0.00  0.00    +0.000 OA
BRANCH  18  24
ATOM     21  C   UNL     1      -3.704  11.700  18.729  0.00  0.00    +0.000 A 
ATOM     22  C   UNL     1      -3.216  12.449  19.804  0.00  0.00    +0.000 A 
ATOM     23  C   UNL     1      -1.895  12.276  20.221  0.00  0.00    +0.000 A 
ATOM     24  C   UNL     1      -1.092  11.354  19.553  0.00  0.00    +0.000 A 
ATOM     25  C   UNL     1      -1.577  10.609  18.474  0.00  0.00    +0.000 A 
ATOM     26  C   UNL     1      -2.899  10.771  18.061  0.00  0.00    +0.000 A 
BRANCH  21  27
ATOM     27  S   UNL     1      -5.403  11.864  18.233  0.00  0.00    +0.000 S 
ATOM     28  O   UNL     1      -6.062  10.602  18.558  0.00  0.00    +0.000 OA
ATOM     29  O   UNL     1      -5.407  12.373  16.900  0.00  0.00    +0.000 OA
BRANCH  27  31
ATOM     30  C   UNL     1      -7.098  13.977  18.604  0.00  0.00    +0.000 C 
ATOM     31  C   UNL     1      -6.082  13.109  19.324  0.00  0.00    +0.000 C 
ENDBRANCH  27  31
ENDBRANCH  21  27
ENDBRANCH  18  24
ENDBRANCH   1  18
TORSDOF 5
ENDMDL
MODEL 6
REMARK VINA RESULT:      -8.3      3.566      5.348
REMARK  Name = 
REMARK  6 active torsions:
REMARK  status: ('A' for Active; 'I' for Inactive)
REMARK    1  A    between atoms: C_1  and  C_2
REMARK    2  A    between atoms: C_2  and  S_3
REMARK    3  A    between atoms: S_3  and  C_6
REMARK    4  A    between atoms: C_9  and  S_10
REMARK    5  A    between atoms: S_10  and  N_13
REMARK    6  A    between atoms: C_16  and  C_17
REMARK                            x       y       z     vdW  Elec       q    Type
REMARK                         _______ _______ _______ _____ _____    ______ ____
ROOT
ATOM      1  N   UNL     1       0.882  10.344  19.642  0.00  0.00    +0.000 NA
ATOM      2  C   UNL     1       0.981   9.237  20.627  0.00  0.00    +0.000 C 
ATOM      3  C   UNL     1       1.798   8.112  20.114  0.00  0.00    +0.000 C 
ATOM      4  C   UNL     1       2.208   7.978  18.842  0.00  0.00    +0.000 C 
ATOM      5  C   UNL     1       1.828   8.959  17.775  0.00  0.00    +0.000 C 
ATOM      6  C   UNL     1       0.682   9.864  18.234  0.00  0.00    +0.000 C 
ENDROOT
BRANCH   4   7
ATOM      7  C   UNL     1       3.057   6.910  18.469  0.00  0.00    +0.000 A 
ATOM      8  C   UNL     1       3.980   6.960  17.449  0.00  0.00    +0.000 A 
ATOM      9  N   UNL     1       4.491   5.692  17.363  0.00  0.00    +0.000 N 
ATOM     10  C   UNL     1       3.529   4.822  17.825  0.00  0.00    +0.000 A 
ATOM     11  C   UNL     1       3.180   3.518  17.469  0.00  0.00    +0.000 A 
ATOM     12  C   UNL     1       2.158   2.934  18.221  0.00  0.00    +0.000 A 
ATOM     13  F   UNL     1       1.648   1.761  17.823  0.00  0.00    +0.000 F 
ATOM     14  C   UNL     1       1.630   3.545  19.355  0.00  0.00    +0.000 A 
ATOM     15  C   UNL     1       1.990   4.855  19.684  0.00  0.00    +0.000 A 
ATOM     16  C   UNL     1       2.852   5.537  18.808  0.00  0.00    +0.000 A 
ATOM     17  H   UNL     1       5.476   5.474  17.296  0.00  0.00    +0.000 HD
ENDBRANCH   4   7
BRANCH   1  18
ATOM     18  S   UNL     1      -0.276  11.524  20.084  0.00  0.00    +0.000 S 
ATOM     19  O   UNL     1      -0.349  11.521  21.529  0.00  0.00    +0.000 OA
ATOM     20  O   UNL     1      -1.463  11.336  19.281  0.00  0.00    +0.000 OA
BRANCH  18  24
ATOM     21  C   UNL     1       1.630  15.435  18.767  0.00  0.00    +0.000 A 
ATOM     22  C   UNL     1       0.239  15.298  18.733  0.00  0.00    +0.000 A 
ATOM     23  C   UNL     1      -0.347  14.098  19.139  0.00  0.00    +0.000 A 
ATOM     24  C   UNL     1       0.475  13.058  19.569  0.00  0.00    +0.000 A 
ATOM     25  C   UNL     1       1.866  13.195  19.609  0.00  0.00    +0.000 A 
ATOM     26  C   UNL     1       2.455  14.388  19.194  0.00  0.00    +0.000 A 
BRANCH  21  27
ATOM     27  S   UNL     1       2.388  16.934  18.188  0.00  0.00    +0.000 S 
ATOM     28  O   UNL     1       2.959  16.640  16.876  0.00  0.00    +0.000 OA
ATOM     29  O   UNL     1       3.203  17.431  19.249  0.00  0.00    +0.000 OA
BRANCH  27  31
ATOM     30  C   UNL     1       0.751  18.266  16.450  0.00  0.00    +0.000 C 
ATOM     31  C   UNL     1       1.028  18.067  17.930  0.00  0.00    +0.000 C 
ENDBRANCH  27  31
ENDBRANCH  21  27
ENDBRANCH  18  24
ENDBRANCH   1  18
TORSDOF 5
ENDMDL
MODEL 7
REMARK VINA RESULT:      -8.3      5.191     10.005
REMARK  Name = 
REMARK  6 active torsions:
REMARK  status: ('A' for Active; 'I' for Inactive)
REMARK    1  A    between atoms: C_1  and  C_2
REMARK    2  A    between atoms: C_2  and  S_3
REMARK    3  A    between atoms: S_3  and  C_6
REMARK    4  A    between atoms: C_9  and  S_10
REMARK    5  A    between atoms: S_10  and  N_13
REMARK    6  A    between atoms: C_16  and  C_17
REMARK                            x       y       z     vdW  Elec       q    Type
REMARK                         _______ _______ _______ _____ _____    ______ ____
ROOT
ATOM      1  N   UNL     1       1.469   6.335  19.914  0.00  0.00    +0.000 NA
ATOM      2  C   UNL     1       1.110   6.928  21.228  0.00  0.00    +0.000 C 
ATOM      3  C   UNL     1       0.805   8.375  21.117  0.00  0.00    +0.000 C 
ATOM      4  C   UNL     1       1.043   9.128  20.030  0.00  0.00    +0.000 C 
ATOM      5  C   UNL     1       1.705   8.574  18.806  0.00  0.00    +0.000 C 
ATOM      6  C   UNL     1       2.359   7.220  19.091  0.00  0.00    +0.000 C 
ENDROOT
BRANCH   4   7
ATOM      7  C   UNL     1       0.636  10.482  19.993  0.00  0.00    +0.000 A 
ATOM      8  C   UNL     1       0.991  11.434  20.922  0.00  0.00    +0.000 A 
ATOM      9  N   UNL     1       0.294  12.560  20.569  0.00  0.00    +0.000 N 
ATOM     10  C   UNL     1      -0.843  12.157  19.906  0.00  0.00    +0.000 A 
ATOM     11  C   UNL     1      -2.139  12.673  19.845  0.00  0.00    +0.000 A 
ATOM     12  C   UNL     1      -3.025  11.997  19.004  0.00  0.00    +0.000 A 
ATOM     13  F   UNL     1      -4.324  12.323  19.032  0.00  0.00    +0.000 F 
ATOM     14  C   UNL     1      -2.608  10.974  18.157  0.00  0.00    +0.000 A 
ATOM     15  C   UNL     1      -1.308  10.468  18.245  0.00  0.00    +0.000 A 
ATOM     16  C   UNL     1      -0.469  10.991  19.244  0.00  0.00    +0.000 A 
ATOM     17  H   UNL     1       0.695  13.486  20.507  0.00  0.00    +0.000 HD
ENDBRANCH   4   7
BRANCH   1  18
ATOM     18  S   UNL     1       2.097   4.750  20.051  0.00  0.00    +0.000 S 
ATOM     19  O   UNL     1       1.125   3.859  19.455  0.00  0.00    +0.000 OA
ATOM     20  O   UNL     1       2.556   4.546  21.406  0.00  0.00    +0.000 OA
BRANCH  18  24
ATOM     21  C   UNL     1       5.774   4.835  17.381  0.00  0.00    +0.000 A 
ATOM     22  C   UNL     1       5.882   5.227  18.718  0.00  0.00    +0.000 A 
ATOM     23  C   UNL     1       4.754   5.199  19.539  0.00  0.00    +0.000 A 
ATOM     24  C   UNL     1       3.539   4.780  19.001  0.00  0.00    +0.000 A 
ATOM     25  C   UNL     1       3.430   4.382  17.665  0.00  0.00    +0.000 A 
ATOM     26  C   UNL     1       4.552   4.419  16.839  0.00  0.00    +0.000 A 
BRANCH  21  27
ATOM     27  S   UNL     1       7.189   4.931  16.311  0.00  0.00    +0.000 S 
ATOM     28  O   UNL     1       8.232   4.107  16.914  0.00  0.00    +0.000 OA
ATOM     29  O   UNL     1       7.415   6.313  16.033  0.00  0.00    +0.000 OA
BRANCH  27  31
ATOM     30  C   UNL     1       7.143   4.889  13.577  0.00  0.00    +0.000 C 
ATOM     31  C   UNL     1       6.681   4.118  14.801  0.00  0.00    +0.000 C 
ENDBRANCH  27  31
ENDBRANCH  21  27
ENDBRANCH  18  24
ENDBRANCH   1  18
TORSDOF 5
ENDMDL
MODEL 8
REMARK VINA RESULT:      -8.3      3.772      6.183
REMARK  Name = 
REMARK  6 active torsions:
REMARK  status: ('A' for Active; 'I' for Inactive)
REMARK    1  A    between atoms: C_1  and  C_2
REMARK    2  A    between atoms: C_2  and  S_3
REMARK    3  A    between atoms: S_3  and  C_6
REMARK    4  A    between atoms: C_9  and  S_10
REMARK    5  A    between atoms: S_10  and  N_13
REMARK    6  A    between atoms: C_16  and  C_17
REMARK                            x       y       z     vdW  Elec       q    Type
REMARK                         _______ _______ _______ _____ _____    ______ ____
ROOT
ATOM      1  N   UNL     1       1.084  10.356  19.635  0.00  0.00    +0.000 NA
ATOM      2  C   UNL     1       1.000   9.325  20.702  0.00  0.00    +0.000 C 
ATOM      3  C   UNL     1       1.656   8.058  20.300  0.00  0.00    +0.000 C 
ATOM      4  C   UNL     1       2.069   7.769  19.054  0.00  0.00    +0.000 C 
ATOM      5  C   UNL     1       1.858   8.709  17.906  0.00  0.00    +0.000 C 
ATOM      6  C   UNL     1       0.846   9.801  18.261  0.00  0.00    +0.000 C 
ENDROOT
BRANCH   4   7
ATOM      7  C   UNL     1       2.761   6.565  18.789  0.00  0.00    +0.000 A 
ATOM      8  C   UNL     1       3.671   6.391  17.771  0.00  0.00    +0.000 A 
ATOM      9  N   UNL     1       4.005   5.062  17.809  0.00  0.00    +0.000 N 
ATOM     10  C   UNL     1       2.940   4.379  18.352  0.00  0.00    +0.000 A 
ATOM     11  C   UNL     1       2.413   3.106  18.125  0.00  0.00    +0.000 A 
ATOM     12  C   UNL     1       1.331   2.742  18.928  0.00  0.00    +0.000 A 
ATOM     13  F   UNL     1       0.663   1.615  18.645  0.00  0.00    +0.000 F 
ATOM     14  C   UNL     1       0.904   3.526  19.996  0.00  0.00    +0.000 A 
ATOM     15  C   UNL     1       1.441   4.801  20.197  0.00  0.00    +0.000 A 
ATOM     16  C   UNL     1       2.377   5.271  19.259  0.00  0.00    +0.000 A 
ATOM     17  H   UNL     1       4.951   4.708  17.765  0.00  0.00    +0.000 HD
ENDBRANCH   4   7
BRANCH   1  18
ATOM     18  S   UNL     1       0.101  11.720  19.951  0.00  0.00    +0.000 S 
ATOM     19  O   UNL     1      -0.297  11.639  21.340  0.00  0.00    +0.000 OA
ATOM     20  O   UNL     1      -0.888  11.835  18.902  0.00  0.00    +0.000 OA
BRANCH  18  24
ATOM     21  C   UNL     1       2.962  15.221  19.493  0.00  0.00    +0.000 A 
ATOM     22  C   UNL     1       1.841  15.131  18.662  0.00  0.00    +0.000 A 
ATOM     23  C   UNL     1       0.961  14.057  18.803  0.00  0.00    +0.000 A 
ATOM     24  C   UNL     1       1.224  13.094  19.775  0.00  0.00    +0.000 A 
ATOM     25  C   UNL     1       2.342  13.184  20.610  0.00  0.00    +0.000 A 
ATOM     26  C   UNL     1       3.228  14.250  20.465  0.00  0.00    +0.000 A 
BRANCH  21  27
ATOM     27  S   UNL     1       4.124  16.548  19.275  0.00  0.00    +0.000 S 
ATOM     28  O   UNL     1       4.160  17.289  20.533  0.00  0.00    +0.000 OA
ATOM     29  O   UNL     1       3.795  17.199  18.048  0.00  0.00    +0.000 OA
BRANCH  27  31
ATOM     30  C   UNL     1       5.746  14.875  17.844  0.00  0.00    +0.000 C 
ATOM     31  C   UNL     1       5.711  15.743  19.090  0.00  0.00    +0.000 C 
ENDBRANCH  27  31
ENDBRANCH  21  27
ENDBRANCH  18  24
ENDBRANCH   1  18
TORSDOF 5
ENDMDL
MODEL 9
REMARK VINA RESULT:      -8.2      3.570      5.854
REMARK  Name = 
REMARK  6 active torsions:
REMARK  status: ('A' for Active; 'I' for Inactive)
REMARK    1  A    between atoms: C_1  and  C_2
REMARK    2  A    between atoms: C_2  and  S_3
REMARK    3  A    between atoms: S_3  and  C_6
REMARK    4  A    between atoms: C_9  and  S_10
REMARK    5  A    between atoms: S_10  and  N_13
REMARK    6  A    between atoms: C_16  and  C_17
REMARK                            x       y       z     vdW  Elec       q    Type
REMARK                         _______ _______ _______ _____ _____    ______ ____
ROOT
ATOM      1  N   UNL     1       0.163  10.184  20.177  0.00  0.00    +0.000 NA
ATOM      2  C   UNL     1       0.790  10.275  18.833  0.00  0.00    +0.000 C 
ATOM      3  C   UNL     1       1.572   9.059  18.505  0.00  0.00    +0.000 C 
ATOM      4  C   UNL     1       1.888   8.090  19.380  0.00  0.00    +0.000 C 
ATOM      5  C   UNL     1       1.510   8.169  20.827  0.00  0.00    +0.000 C 
ATOM      6  C   UNL     1       1.070   9.584  21.210  0.00  0.00    +0.000 C 
ENDROOT
BRANCH   4   7
ATOM      7  C   UNL     1       2.567   6.927  18.948  0.00  0.00    +0.000 A 
ATOM      8  C   UNL     1       3.362   6.853  17.827  0.00  0.00    +0.000 A 
ATOM      9  N   UNL     1       3.720   5.534  17.725  0.00  0.00    +0.000 N 
ATOM     10  C   UNL     1       2.733   4.786  18.326  0.00  0.00    +0.000 A 
ATOM     11  C   UNL     1       2.205   3.521  18.059  0.00  0.00    +0.000 A 
ATOM     12  C   UNL     1       1.224   3.070  18.944  0.00  0.00    +0.000 A 
ATOM     13  F   UNL     1       0.548   1.952  18.649  0.00  0.00    +0.000 F 
ATOM     14  C   UNL     1       0.904   3.760  20.110  0.00  0.00    +0.000 A 
ATOM     15  C   UNL     1       1.439   5.029  20.349  0.00  0.00    +0.000 A 
ATOM     16  C   UNL     1       2.258   5.592  19.356  0.00  0.00    +0.000 A 
ATOM     17  H   UNL     1       4.661   5.207  17.552  0.00  0.00    +0.000 HD
ENDBRANCH   4   7
BRANCH   1  18
ATOM     18  S   UNL     1      -0.505  11.670  20.699  0.00  0.00    +0.000 S 
ATOM     19  O   UNL     1      -0.416  11.686  22.144  0.00  0.00    +0.000 OA
ATOM     20  O   UNL     1      -1.771  11.873  20.032  0.00  0.00    +0.000 OA
BRANCH  18  24
ATOM     21  C   UNL     1       2.390  14.768  19.062  0.00  0.00    +0.000 A 
ATOM     22  C   UNL     1       1.102  14.674  18.526  0.00  0.00    +0.000 A 
ATOM     23  C   UNL     1       0.212  13.724  19.030  0.00  0.00    +0.000 A 
ATOM     24  C   UNL     1       0.633  12.886  20.060  0.00  0.00    +0.000 A 
ATOM     25  C   UNL     1       1.919  12.982  20.601  0.00  0.00    +0.000 A 
ATOM     26  C   UNL     1       2.814  13.922  20.094  0.00  0.00    +0.000 A 
BRANCH  21  27
ATOM     27  S   UNL     1       3.552  15.928  18.382  0.00  0.00    +0.000 S 
ATOM     28  O   UNL     1       3.293  17.212  19.026  0.00  0.00    +0.000 OA
ATOM     29  O   UNL     1       3.499  15.795  16.962  0.00  0.00    +0.000 OA
BRANCH  27  31
ATOM     30  C   UNL     1       5.909  14.651  17.846  0.00  0.00    +0.000 C 
ATOM     31  C   UNL     1       5.151  15.364  18.952  0.00  0.00    +0.000 C 
ENDBRANCH  27  31
ENDBRANCH  21  27
ENDBRANCH  18  24
ENDBRANCH   1  18
TORSDOF 5
ENDMDL
