MODEL 1
REMARK VINA RESULT:      -8.5      0.000      0.000
REMARK  Name = 
REMARK  6 active torsions:
REMARK  status: ('A' for Active; 'I' for Inactive)
REMARK    1  A    between atoms: C_2  and  C_14
REMARK    2  A    between atoms: N_3  and  C_4
REMARK    3  A    between atoms: C_17  and  S_18
REMARK    4  A    between atoms: S_18  and  N_21
REMARK    5  A    between atoms: N_21  and  C_22
REMARK    6  A    between atoms: C_22  and  C_23
REMARK                            x       y       z     vdW  Elec       q    Type
REMARK                         _______ _______ _______ _____ _____    ______ ____
ROOT
ATOM      1  C   UNL     1       2.412   8.198  18.385  0.00  0.00    +0.000 A 
ATOM      2  C   UNL     1       2.340   7.238  19.408  0.00  0.00    +0.000 A 
ATOM      3  C   UNL     1       3.110   6.073  19.348  0.00  0.00    +0.000 A 
ATOM      4  C   UNL     1       3.992   5.894  18.281  0.00  0.00    +0.000 A 
ATOM      5  C   UNL     1       4.136   6.899  17.313  0.00  0.00    +0.000 A 
ATOM      6  C   UNL     1       3.309   8.022  17.329  0.00  0.00    +0.000 A 
ENDROOT
BRANCH   1   8
ATOM      7  O   UNL     1       2.095  10.465  18.024  0.00  0.00    +0.000 OA
ATOM      8  C   UNL     1       1.626   9.444  18.516  0.00  0.00    +0.000 C 
ATOM      9  N   UNL     1       0.438   9.344  19.217  0.00  0.00    +0.000 N 
ATOM     10  H   UNL     1       0.278   8.539  19.810  0.00  0.00    +0.000 HD
BRANCH   9  11
ATOM     11  C   UNL     1      -0.512  10.384  19.400  0.00  0.00    +0.000 A 
ATOM     12  C   UNL     1      -0.470  11.243  20.504  0.00  0.00    +0.000 A 
ATOM     13  C   UNL     1      -1.433  12.233  20.668  0.00  0.00    +0.000 A 
ATOM     14  C   UNL     1      -2.446  12.370  19.728  0.00  0.00    +0.000 A 
ATOM     15  C   UNL     1      -2.488  11.528  18.606  0.00  0.00    +0.000 A 
ATOM     16  C   UNL     1      -3.512  11.650  17.660  0.00  0.00    +0.000 A 
ATOM     17  C   UNL     1      -3.540  10.805  16.558  0.00  0.00    +0.000 A 
ATOM     18  C   UNL     1      -2.533   9.869  16.436  0.00  0.00    +0.000 A 
ATOM     19  N   UNL     1      -1.524   9.715  17.327  0.00  0.00    +0.000 NA
ATOM     20  C   UNL     1      -1.503  10.529  18.412  0.00  0.00    +0.000 A 
ENDBRANCH   9  11
ENDBRANCH   1   8
BRANCH   4  21
ATOM     21  S   UNL     1       4.979   4.411  18.168  0.00  0.00    +0.000 S 
ATOM     22  O   UNL     1       5.827   4.559  17.007  0.00  0.00    +0.000 OA
ATOM     23  O   UNL     1       5.516   4.125  19.480  0.00  0.00    +0.000 OA
BRANCH  21  24
ATOM     24  N   UNL     1       3.853   3.191  17.847  0.00  0.00    +0.000 NA
ATOM     25  H   UNL     1       3.739   2.976  16.855  0.00  0.00    +0.000 HD
BRANCH  24  26
ATOM     26  C   UNL     1       3.788   2.056  18.773  0.00  0.00    +0.000 C 
BRANCH  26  27
ATOM     27  C   UNL     1       2.505   2.007  19.592  0.00  0.00    +0.000 C 
ATOM     28  C   UNL     1       1.479   2.963  18.990  0.00  0.00    +0.000 C 
ATOM     29  C   UNL     1       0.712   3.426  20.196  0.00  0.00    +0.000 C 
ATOM     30  C   UNL     1       1.786   3.479  21.259  0.00  0.00    +0.000 C 
ATOM     31  O   UNL     1       2.761   2.479  20.931  0.00  0.00    +0.000 OA
ENDBRANCH  26  27
ENDBRANCH  24  26
ENDBRANCH  21  24
ENDBRANCH   4  21
TORSDOF 6
ENDMDL
MODEL 2
REMARK VINA RESULT:      -8.5      1.197      1.226
REMARK  Name = 
REMARK  6 active torsions:
REMARK  status: ('A' for Active; 'I' for Inactive)
REMARK    1  A    between atoms: C_2  and  C_14
REMARK    2  A    between atoms: N_3  and  C_4
REMARK    3  A    between atoms: C_17  and  S_18
REMARK    4  A    between atoms: S_18  and  N_21
REMARK    5  A    between atoms: N_21  and  C_22
REMARK    6  A    between atoms: C_22  and  C_23
REMARK                            x       y       z     vdW  Elec       q    Type
REMARK                         _______ _______ _______ _____ _____    ______ ____
ROOT
ATOM      1  C   UNL     1       2.363   7.659  19.044  0.00  0.00    +0.000 A 
ATOM      2  C   UNL     1       2.703   6.592  19.892  0.00  0.00    +0.000 A 
ATOM      3  C   UNL     1       3.641   5.636  19.491  0.00  0.00    +0.000 A 
ATOM      4  C   UNL     1       4.275   5.779  18.256  0.00  0.00    +0.000 A 
ATOM      5  C   UNL     1       4.007   6.899  17.454  0.00  0.00    +0.000 A 
ATOM      6  C   UNL     1       3.013   7.808  17.817  0.00  0.00    +0.000 A 
ENDROOT
BRANCH   1   8
ATOM      7  O   UNL     1       0.972   8.557  20.667  0.00  0.00    +0.000 OA
ATOM      8  C   UNL     1       1.411   8.683  19.529  0.00  0.00    +0.000 C 
ATOM      9  N   UNL     1       1.079   9.681  18.630  0.00  0.00    +0.000 N 
ATOM     10  H   UNL     1       1.274   9.545  17.645  0.00  0.00    +0.000 HD
BRANCH   9  11
ATOM     11  C   UNL     1       0.254  10.804  18.899  0.00  0.00    +0.000 A 
ATOM     12  C   UNL     1       0.715  11.910  19.622  0.00  0.00    +0.000 A 
ATOM     13  C   UNL     1      -0.129  12.981  19.894  0.00  0.00    +0.000 A 
ATOM     14  C   UNL     1      -1.443  12.953  19.444  0.00  0.00    +0.000 A 
ATOM     15  C   UNL     1      -1.913  11.860  18.700  0.00  0.00    +0.000 A 
ATOM     16  C   UNL     1      -3.238  11.816  18.253  0.00  0.00    +0.000 A 
ATOM     17  C   UNL     1      -3.687  10.724  17.523  0.00  0.00    +0.000 A 
ATOM     18  C   UNL     1      -2.787   9.712  17.256  0.00  0.00    +0.000 A 
ATOM     19  N   UNL     1      -1.497   9.711  17.669  0.00  0.00    +0.000 NA
ATOM     20  C   UNL     1      -1.060  10.770  18.396  0.00  0.00    +0.000 A 
ENDBRANCH   9  11
ENDBRANCH   1   8
BRANCH   4  21
ATOM     21  S   UNL     1       5.466   4.567  17.710  0.00  0.00    +0.000 S 
ATOM     22  O   UNL     1       5.719   4.828  16.311  0.00  0.00    +0.000 OA
ATOM     23  O   UNL     1       6.533   4.512  18.685  0.00  0.00    +0.000 OA
BRANCH  21  24
ATOM     24  N   UNL     1       4.642   3.096  17.832  0.00  0.00    +0.000 NA
ATOM     25  H   UNL     1       4.718   2.648  18.747  0.00  0.00    +0.000 HD
BRANCH  24  26
ATOM     26  C   UNL     1       3.350   2.974  17.149  0.00  0.00    +0.000 C 
BRANCH  26  27
ATOM     27  C   UNL     1       2.253   2.376  18.019  0.00  0.00    +0.000 C 
ATOM     28  C   UNL     1       1.212   3.446  18.335  0.00  0.00    +0.000 C 
ATOM     29  C   UNL     1       0.738   3.050  19.705  0.00  0.00    +0.000 C 
ATOM     30  C   UNL     1       2.001   2.511  20.339  0.00  0.00    +0.000 C 
ATOM     31  O   UNL     1       2.805   1.961  19.286  0.00  0.00    +0.000 OA
ENDBRANCH  26  27
ENDBRANCH  24  26
ENDBRANCH  21  24
ENDBRANCH   4  21
TORSDOF 6
ENDMDL
MODEL 3
REMARK VINA RESULT:      -8.4      1.144      1.485
REMARK  Name = 
REMARK  6 active torsions:
REMARK  status: ('A' for Active; 'I' for Inactive)
REMARK    1  A    between atoms: C_2  and  C_14
REMARK    2  A    between atoms: N_3  and  C_4
REMARK    3  A    between atoms: C_17  and  S_18
REMARK    4  A    between atoms: S_18  and  N_21
REMARK    5  A    between atoms: N_21  and  C_22
REMARK    6  A    between atoms: C_22  and  C_23
REMARK                            x       y       z     vdW  Elec       q    Type
REMARK                         _______ _______ _______ _____ _____    ______ ____
ROOT
ATOM      1  C   UNL     1       2.349   7.605  19.329  0.00  0.00    +0.000 A 
ATOM      2  C   UNL     1       2.857   7.784  18.031  0.00  0.00    +0.000 A 
ATOM      3  C   UNL     1       3.822   6.912  17.518  0.00  0.00    +0.000 A 
ATOM      4  C   UNL     1       4.241   5.828  18.291  0.00  0.00    +0.000 A 
ATOM      5  C   UNL     1       3.659   5.594  19.546  0.00  0.00    +0.000 A 
ATOM      6  C   UNL     1       2.758   6.509  20.092  0.00  0.00    +0.000 A 
ENDROOT
BRANCH   1   8
ATOM      7  O   UNL     1       0.851   8.327  20.944  0.00  0.00    +0.000 OA
ATOM      8  C   UNL     1       1.286   8.514  19.813  0.00  0.00    +0.000 C 
ATOM      9  N   UNL     1       0.857   9.480  18.920  0.00  0.00    +0.000 N 
ATOM     10  H   UNL     1       1.076   9.378  17.936  0.00  0.00    +0.000 HD
BRANCH   9  11
ATOM     11  C   UNL     1      -0.089  10.503  19.191  0.00  0.00    +0.000 A 
ATOM     12  C   UNL     1       0.075  11.407  20.246  0.00  0.00    +0.000 A 
ATOM     13  C   UNL     1      -0.885  12.380  20.502  0.00  0.00    +0.000 A 
ATOM     14  C   UNL     1      -2.020  12.453  19.704  0.00  0.00    +0.000 A 
ATOM     15  C   UNL     1      -2.187  11.565  18.630  0.00  0.00    +0.000 A 
ATOM     16  C   UNL     1      -3.333  11.623  17.828  0.00  0.00    +0.000 A 
ATOM     17  C   UNL     1      -3.484  10.734  16.773  0.00  0.00    +0.000 A 
ATOM     18  C   UNL     1      -2.475   9.818  16.550  0.00  0.00    +0.000 A 
ATOM     19  N   UNL     1      -1.352   9.725  17.301  0.00  0.00    +0.000 NA
ATOM     20  C   UNL     1      -1.208  10.583  18.342  0.00  0.00    +0.000 A 
ENDBRANCH   9  11
ENDBRANCH   1   8
BRANCH   4  21
ATOM     21  S   UNL     1       5.481   4.705  17.669  0.00  0.00    +0.000 S 
ATOM     22  O   UNL     1       5.843   5.169  16.349  0.00  0.00    +0.000 OA
ATOM     23  O   UNL     1       6.467   4.502  18.708  0.00  0.00    +0.000 OA
BRANCH  21  24
ATOM     24  N   UNL     1       4.662   3.236  17.507  0.00  0.00    +0.000 NA
ATOM     25  H   UNL     1       4.851   2.565  18.254  0.00  0.00    +0.000 HD
BRANCH  24  26
ATOM     26  C   UNL     1       3.290   3.268  16.990  0.00  0.00    +0.000 C 
BRANCH  26  27
ATOM     27  C   UNL     1       2.291   2.516  17.859  0.00  0.00    +0.000 C 
ATOM     28  C   UNL     1       1.187   3.467  18.310  0.00  0.00    +0.000 C 
ATOM     29  C   UNL     1       0.819   2.929  19.664  0.00  0.00    +0.000 C 
ATOM     30  C   UNL     1       2.153   2.450  20.192  0.00  0.00    +0.000 C 
ATOM     31  O   UNL     1       2.941   2.052  19.061  0.00  0.00    +0.000 OA
ENDBRANCH  26  27
ENDBRANCH  24  26
ENDBRANCH  21  24
ENDBRANCH   4  21
TORSDOF 6
ENDMDL
MODEL 4
REMARK VINA RESULT:      -8.3      2.076      4.231
REMARK  Name = 
REMARK  6 active torsions:
REMARK  status: ('A' for Active; 'I' for Inactive)
REMARK    1  A    between atoms: C_2  and  C_14
REMARK    2  A    between atoms: N_3  and  C_4
REMARK    3  A    between atoms: C_17  and  S_18
REMARK    4  A    between atoms: S_18  and  N_21
REMARK    5  A    between atoms: N_21  and  C_22
REMARK    6  A    between atoms: C_22  and  C_23
REMARK                            x       y       z     vdW  Elec       q    Type
REMARK                         _______ _______ _______ _____ _____    ______ ____
ROOT
ATOM      1  C   UNL     1       2.409   7.776  18.652  0.00  0.00    +0.000 A 
ATOM      2  C   UNL     1       3.208   7.338  17.583  0.00  0.00    +0.000 A 
ATOM      3  C   UNL     1       3.808   6.076  17.613  0.00  0.00    +0.000 A 
ATOM      4  C   UNL     1       3.565   5.232  18.698  0.00  0.00    +0.000 A 
ATOM      5  C   UNL     1       2.687   5.631  19.716  0.00  0.00    +0.000 A 
ATOM      6  C   UNL     1       2.154   6.921  19.726  0.00  0.00    +0.000 A 
ENDROOT
BRANCH   1   8
ATOM      7  O   UNL     1       2.137   9.867  17.688  0.00  0.00    +0.000 OA
ATOM      8  C   UNL     1       1.743   9.094  18.555  0.00  0.00    +0.000 C 
ATOM      9  N   UNL     1       0.748   9.343  19.483  0.00  0.00    +0.000 N 
ATOM     10  H   UNL     1       0.689   8.766  20.314  0.00  0.00    +0.000 HD
BRANCH   9  11
ATOM     11  C   UNL     1      -0.076  10.499  19.532  0.00  0.00    +0.000 A 
ATOM     12  C   UNL     1      -0.344  11.269  18.394  0.00  0.00    +0.000 A 
ATOM     13  C   UNL     1      -1.131  12.412  18.482  0.00  0.00    +0.000 A 
ATOM     14  C   UNL     1      -1.655  12.794  19.710  0.00  0.00    +0.000 A 
ATOM     15  C   UNL     1      -1.410  12.020  20.855  0.00  0.00    +0.000 A 
ATOM     16  C   UNL     1      -1.923  12.403  22.099  0.00  0.00    +0.000 A 
ATOM     17  C   UNL     1      -1.667  11.628  23.222  0.00  0.00    +0.000 A 
ATOM     18  C   UNL     1      -0.910  10.485  23.059  0.00  0.00    +0.000 A 
ATOM     19  N   UNL     1      -0.393  10.077  21.875  0.00  0.00    +0.000 NA
ATOM     20  C   UNL     1      -0.629  10.841  20.779  0.00  0.00    +0.000 A 
ENDBRANCH   9  11
ENDBRANCH   1   8
BRANCH   4  21
ATOM     21  S   UNL     1       4.328   3.619  18.772  0.00  0.00    +0.000 S 
ATOM     22  O   UNL     1       4.013   3.066  20.070  0.00  0.00    +0.000 OA
ATOM     23  O   UNL     1       4.022   2.918  17.545  0.00  0.00    +0.000 OA
BRANCH  21  24
ATOM     24  N   UNL     1       5.986   3.946  18.725  0.00  0.00    +0.000 NA
ATOM     25  H   UNL     1       6.543   3.383  19.371  0.00  0.00    +0.000 HD
BRANCH  24  26
ATOM     26  C   UNL     1       6.592   4.236  17.421  0.00  0.00    +0.000 C 
BRANCH  26  27
ATOM     27  C   UNL     1       7.685   5.294  17.477  0.00  0.00    +0.000 C 
ATOM     28  C   UNL     1       7.708   5.932  18.863  0.00  0.00    +0.000 C 
ATOM     29  C   UNL     1       8.142   7.340  18.571  0.00  0.00    +0.000 C 
ATOM     30  C   UNL     1       7.482   7.610  17.237  0.00  0.00    +0.000 C 
ATOM     31  O   UNL     1       7.386   6.356  16.548  0.00  0.00    +0.000 OA
ENDBRANCH  26  27
ENDBRANCH  24  26
ENDBRANCH  21  24
ENDBRANCH   4  21
TORSDOF 6
ENDMDL
MODEL 5
REMARK VINA RESULT:      -8.3      1.106      2.555
REMARK  Name = 
REMARK  6 active torsions:
REMARK  status: ('A' for Active; 'I' for Inactive)
REMARK    1  A    between atoms: C_2  and  C_14
REMARK    2  A    between atoms: N_3  and  C_4
REMARK    3  A    between atoms: C_17  and  S_18
REMARK    4  A    between atoms: S_18  and  N_21
REMARK    5  A    between atoms: N_21  and  C_22
REMARK    6  A    between atoms: C_22  and  C_23
REMARK                            x       y       z     vdW  Elec       q    Type
REMARK                         _______ _______ _______ _____ _____    ______ ____
ROOT
ATOM      1  C   UNL     1       2.772   7.990  18.212  0.00  0.00    +0.000 A 
ATOM      2  C   UNL     1       3.676   7.817  17.150  0.00  0.00    +0.000 A 
ATOM      3  C   UNL     1       4.482   6.677  17.080  0.00  0.00    +0.000 A 
ATOM      4  C   UNL     1       4.345   5.685  18.052  0.00  0.00    +0.000 A 
ATOM      5  C   UNL     1       3.373   5.813  19.054  0.00  0.00    +0.000 A 
ATOM      6  C   UNL     1       2.626   6.986  19.172  0.00  0.00    +0.000 A 
ENDROOT
BRANCH   1   8
ATOM      7  O   UNL     1       2.208  10.121  17.495  0.00  0.00    +0.000 OA
ATOM      8  C   UNL     1       1.895   9.181  18.218  0.00  0.00    +0.000 C 
ATOM      9  N   UNL     1       0.808   9.132  19.073  0.00  0.00    +0.000 N 
ATOM     10  H   UNL     1       0.792   8.444  19.816  0.00  0.00    +0.000 HD
BRANCH   9  11
ATOM     11  C   UNL     1      -0.206  10.119  19.188  0.00  0.00    +0.000 A 
ATOM     12  C   UNL     1      -0.840  10.669  18.068  0.00  0.00    +0.000 A 
ATOM     13  C   UNL     1      -1.809  11.655  18.214  0.00  0.00    +0.000 A 
ATOM     14  C   UNL     1      -2.151  12.100  19.484  0.00  0.00    +0.000 A 
ATOM     15  C   UNL     1      -1.539  11.543  20.618  0.00  0.00    +0.000 A 
ATOM     16  C   UNL     1      -1.867  11.994  21.901  0.00  0.00    +0.000 A 
ATOM     17  C   UNL     1      -1.247  11.435  23.010  0.00  0.00    +0.000 A 
ATOM     18  C   UNL     1      -0.321  10.433  22.797  0.00  0.00    +0.000 A 
ATOM     19  N   UNL     1       0.028   9.968  21.574  0.00  0.00    +0.000 NA
ATOM     20  C   UNL     1      -0.565  10.523  20.487  0.00  0.00    +0.000 A 
ENDBRANCH   9  11
ENDBRANCH   1   8
BRANCH   4  21
ATOM     21  S   UNL     1       5.370   4.224  17.997  0.00  0.00    +0.000 S 
ATOM     22  O   UNL     1       5.287   3.703  16.651  0.00  0.00    +0.000 OA
ATOM     23  O   UNL     1       6.636   4.538  18.622  0.00  0.00    +0.000 OA
BRANCH  21  24
ATOM     24  N   UNL     1       4.593   3.137  19.033  0.00  0.00    +0.000 NA
ATOM     25  H   UNL     1       4.388   3.515  19.960  0.00  0.00    +0.000 HD
BRANCH  24  26
ATOM     26  C   UNL     1       3.588   2.238  18.456  0.00  0.00    +0.000 C 
BRANCH  26  27
ATOM     27  C   UNL     1       2.361   2.047  19.338  0.00  0.00    +0.000 C 
ATOM     28  C   UNL     1       1.238   2.961  18.856  0.00  0.00    +0.000 C 
ATOM     29  C   UNL     1       0.513   3.293  20.129  0.00  0.00    +0.000 C 
ATOM     30  C   UNL     1       1.642   3.359  21.133  0.00  0.00    +0.000 C 
ATOM     31  O   UNL     1       2.662   2.454  20.689  0.00  0.00    +0.000 OA
ENDBRANCH  26  27
ENDBRANCH  24  26
ENDBRANCH  21  24
ENDBRANCH   4  21
TORSDOF 6
ENDMDL
MODEL 6
REMARK VINA RESULT:      -8.3      1.916      2.554
REMARK  Name = 
REMARK  6 active torsions:
REMARK  status: ('A' for Active; 'I' for Inactive)
REMARK    1  A    between atoms: C_2  and  C_14
REMARK    2  A    between atoms: N_3  and  C_4
REMARK    3  A    between atoms: C_17  and  S_18
REMARK    4  A    between atoms: S_18  and  N_21
REMARK    5  A    between atoms: N_21  and  C_22
REMARK    6  A    between atoms: C_22  and  C_23
REMARK                            x       y       z     vdW  Elec       q    Type
REMARK                         _______ _______ _______ _____ _____    ______ ____
ROOT
ATOM      1  C   UNL     1       2.487   7.821  18.360  0.00  0.00    +0.000 A 
ATOM      2  C   UNL     1       2.562   6.949  19.459  0.00  0.00    +0.000 A 
ATOM      3  C   UNL     1       3.529   5.940  19.501  0.00  0.00    +0.000 A 
ATOM      4  C   UNL     1       4.453   5.837  18.461  0.00  0.00    +0.000 A 
ATOM      5  C   UNL     1       4.439   6.771  17.414  0.00  0.00    +0.000 A 
ATOM      6  C   UNL     1       3.426   7.726  17.330  0.00  0.00    +0.000 A 
ENDROOT
BRANCH   1   8
ATOM      7  O   UNL     1       0.624   8.908  17.511  0.00  0.00    +0.000 OA
ATOM      8  C   UNL     1       1.489   8.914  18.380  0.00  0.00    +0.000 C 
ATOM      9  N   UNL     1       1.649   9.866  19.371  0.00  0.00    +0.000 N 
ATOM     10  H   UNL     1       2.536   9.933  19.856  0.00  0.00    +0.000 HD
BRANCH   9  11
ATOM     11  C   UNL     1       0.773  10.953  19.631  0.00  0.00    +0.000 A 
ATOM     12  C   UNL     1       0.628  12.021  18.738  0.00  0.00    +0.000 A 
ATOM     13  C   UNL     1      -0.217  13.084  19.037  0.00  0.00    +0.000 A 
ATOM     14  C   UNL     1      -0.923  13.087  20.233  0.00  0.00    +0.000 A 
ATOM     15  C   UNL     1      -0.802  12.013  21.128  0.00  0.00    +0.000 A 
ATOM     16  C   UNL     1      -1.500  12.012  22.341  0.00  0.00    +0.000 A 
ATOM     17  C   UNL     1      -1.364  10.943  23.217  0.00  0.00    +0.000 A 
ATOM     18  C   UNL     1      -0.539   9.902  22.842  0.00  0.00    +0.000 A 
ATOM     19  N   UNL     1       0.156   9.861  21.680  0.00  0.00    +0.000 NA
ATOM     20  C   UNL     1       0.037  10.912  20.829  0.00  0.00    +0.000 A 
ENDBRANCH   9  11
ENDBRANCH   1   8
BRANCH   4  21
ATOM     21  S   UNL     1       5.690   4.550  18.480  0.00  0.00    +0.000 S 
ATOM     22  O   UNL     1       5.991   4.237  17.101  0.00  0.00    +0.000 OA
ATOM     23  O   UNL     1       6.720   4.928  19.423  0.00  0.00    +0.000 OA
BRANCH  21  24
ATOM     24  N   UNL     1       4.894   3.224  19.161  0.00  0.00    +0.000 NA
ATOM     25  H   UNL     1       4.754   3.292  20.171  0.00  0.00    +0.000 HD
BRANCH  24  26
ATOM     26  C   UNL     1       3.809   2.605  18.392  0.00  0.00    +0.000 C 
BRANCH  26  27
ATOM     27  C   UNL     1       2.599   2.228  19.235  0.00  0.00    +0.000 C 
ATOM     28  C   UNL     1       1.429   3.144  18.887  0.00  0.00    +0.000 C 
ATOM     29  C   UNL     1       0.695   3.254  20.193  0.00  0.00    +0.000 C 
ATOM     30  C   UNL     1       1.825   3.233  21.199  0.00  0.00    +0.000 C 
ATOM     31  O   UNL     1       2.887   2.453  20.631  0.00  0.00    +0.000 OA
ENDBRANCH  26  27
ENDBRANCH  24  26
ENDBRANCH  21  24
ENDBRANCH   4  21
TORSDOF 6
ENDMDL
MODEL 7
REMARK VINA RESULT:      -8.3      1.794      3.489
REMARK  Name = 
REMARK  6 active torsions:
REMARK  status: ('A' for Active; 'I' for Inactive)
REMARK    1  A    between atoms: C_2  and  C_14
REMARK    2  A    between atoms: N_3  and  C_4
REMARK    3  A    between atoms: C_17  and  S_18
REMARK    4  A    between atoms: S_18  and  N_21
REMARK    5  A    between atoms: N_21  and  C_22
REMARK    6  A    between atoms: C_22  and  C_23
REMARK                            x       y       z     vdW  Elec       q    Type
REMARK                         _______ _______ _______ _____ _____    ______ ____
ROOT
ATOM      1  C   UNL     1       2.250   7.843  18.887  0.00  0.00    +0.000 A 
ATOM      2  C   UNL     1       3.030   7.461  17.784  0.00  0.00    +0.000 A 
ATOM      3  C   UNL     1       3.634   6.200  17.740  0.00  0.00    +0.000 A 
ATOM      4  C   UNL     1       3.411   5.303  18.785  0.00  0.00    +0.000 A 
ATOM      5  C   UNL     1       2.551   5.648  19.838  0.00  0.00    +0.000 A 
ATOM      6  C   UNL     1       2.016   6.934  19.922  0.00  0.00    +0.000 A 
ENDROOT
BRANCH   1   8
ATOM      7  O   UNL     1       2.043  10.023  18.129  0.00  0.00    +0.000 OA
ATOM      8  C   UNL     1       1.580   9.162  18.868  0.00  0.00    +0.000 C 
ATOM      9  N   UNL     1       0.500   9.308  19.721  0.00  0.00    +0.000 N 
ATOM     10  H   UNL     1       0.371   8.646  20.477  0.00  0.00    +0.000 HD
BRANCH   9  11
ATOM     11  C   UNL     1      -0.339  10.450  19.814  0.00  0.00    +0.000 A 
ATOM     12  C   UNL     1      -0.186  11.405  20.826  0.00  0.00    +0.000 A 
ATOM     13  C   UNL     1      -1.043  12.497  20.906  0.00  0.00    +0.000 A 
ATOM     14  C   UNL     1      -2.062  12.641  19.973  0.00  0.00    +0.000 A 
ATOM     15  C   UNL     1      -2.214  11.702  18.942  0.00  0.00    +0.000 A 
ATOM     16  C   UNL     1      -3.246  11.832  18.004  0.00  0.00    +0.000 A 
ATOM     17  C   UNL     1      -3.384  10.891  16.994  0.00  0.00    +0.000 A 
ATOM     18  C   UNL     1      -2.476   9.851  16.949  0.00  0.00    +0.000 A 
ATOM     19  N   UNL     1      -1.465   9.686  17.835  0.00  0.00    +0.000 NA
ATOM     20  C   UNL     1      -1.336  10.596  18.833  0.00  0.00    +0.000 A 
ENDBRANCH   9  11
ENDBRANCH   1   8
BRANCH   4  21
ATOM     21  S   UNL     1       4.179   3.691  18.765  0.00  0.00    +0.000 S 
ATOM     22  O   UNL     1       3.895   3.075  20.042  0.00  0.00    +0.000 OA
ATOM     23  O   UNL     1       3.847   3.049  17.513  0.00  0.00    +0.000 OA
BRANCH  21  24
ATOM     24  N   UNL     1       5.835   4.024  18.697  0.00  0.00    +0.000 NA
ATOM     25  H   UNL     1       6.398   3.491  19.363  0.00  0.00    +0.000 HD
BRANCH  24  26
ATOM     26  C   UNL     1       6.433   4.265  17.380  0.00  0.00    +0.000 C 
BRANCH  26  27
ATOM     27  C   UNL     1       7.540   5.310  17.393  0.00  0.00    +0.000 C 
ATOM     28  C   UNL     1       7.686   5.881  18.800  0.00  0.00    +0.000 C 
ATOM     29  C   UNL     1       8.112   7.298  18.539  0.00  0.00    +0.000 C 
ATOM     30  C   UNL     1       7.346   7.636  17.279  0.00  0.00    +0.000 C 
ATOM     31  O   UNL     1       7.177   6.417  16.543  0.00  0.00    +0.000 OA
ENDBRANCH  26  27
ENDBRANCH  24  26
ENDBRANCH  21  24
ENDBRANCH   4  21
TORSDOF 6
ENDMDL
MODEL 8
REMARK VINA RESULT:      -8.3      1.182      2.449
REMARK  Name = 
REMARK  6 active torsions:
REMARK  status: ('A' for Active; 'I' for Inactive)
REMARK    1  A    between atoms: C_2  and  C_14
REMARK    2  A    between atoms: N_3  and  C_4
REMARK    3  A    between atoms: C_17  and  S_18
REMARK    4  A    between atoms: S_18  and  N_21
REMARK    5  A    between atoms: N_21  and  C_22
REMARK    6  A    between atoms: C_22  and  C_23
REMARK                            x       y       z     vdW  Elec       q    Type
REMARK                         _______ _______ _______ _____ _____    ______ ____
ROOT
ATOM      1  C   UNL     1       2.715   7.932  18.259  0.00  0.00    +0.000 A 
ATOM      2  C   UNL     1       2.673   7.065  19.363  0.00  0.00    +0.000 A 
ATOM      3  C   UNL     1       3.500   5.939  19.416  0.00  0.00    +0.000 A 
ATOM      4  C   UNL     1       4.408   5.711  18.381  0.00  0.00    +0.000 A 
ATOM      5  C   UNL     1       4.519   6.632  17.328  0.00  0.00    +0.000 A 
ATOM      6  C   UNL     1       3.638   7.709  17.233  0.00  0.00    +0.000 A 
ENDROOT
BRANCH   1   8
ATOM      7  O   UNL     1       2.278  10.129  17.662  0.00  0.00    +0.000 OA
ATOM      8  C   UNL     1       1.867   9.145  18.267  0.00  0.00    +0.000 C 
ATOM      9  N   UNL     1       0.692   9.060  18.993  0.00  0.00    +0.000 N 
ATOM     10  H   UNL     1       0.580   8.316  19.671  0.00  0.00    +0.000 HD
BRANCH   9  11
ATOM     11  C   UNL     1      -0.308  10.065  19.078  0.00  0.00    +0.000 A 
ATOM     12  C   UNL     1      -0.977  10.545  17.947  0.00  0.00    +0.000 A 
ATOM     13  C   UNL     1      -1.931  11.550  18.061  0.00  0.00    +0.000 A 
ATOM     14  C   UNL     1      -2.222  12.084  19.310  0.00  0.00    +0.000 A 
ATOM     15  C   UNL     1      -1.572  11.598  20.455  0.00  0.00    +0.000 A 
ATOM     16  C   UNL     1      -1.849  12.138  21.717  0.00  0.00    +0.000 A 
ATOM     17  C   UNL     1      -1.193  11.648  22.838  0.00  0.00    +0.000 A 
ATOM     18  C   UNL     1      -0.285  10.623  22.659  0.00  0.00    +0.000 A 
ATOM     19  N   UNL     1       0.014  10.072  21.459  0.00  0.00    +0.000 NA
ATOM     20  C   UNL     1      -0.614  10.559  20.359  0.00  0.00    +0.000 A 
ENDBRANCH   9  11
ENDBRANCH   1   8
BRANCH   4  21
ATOM     21  S   UNL     1       5.468   4.275  18.413  0.00  0.00    +0.000 S 
ATOM     22  O   UNL     1       6.687   4.638  17.726  0.00  0.00    +0.000 OA
ATOM     23  O   UNL     1       5.474   3.749  19.760  0.00  0.00    +0.000 OA
BRANCH  21  24
ATOM     24  N   UNL     1       4.648   3.137  17.469  0.00  0.00    +0.000 NA
ATOM     25  H   UNL     1       4.851   2.166  17.713  0.00  0.00    +0.000 HD
BRANCH  24  26
ATOM     26  C   UNL     1       3.268   3.437  17.076  0.00  0.00    +0.000 C 
BRANCH  26  27
ATOM     27  C   UNL     1       2.225   2.639  17.846  0.00  0.00    +0.000 C 
ATOM     28  C   UNL     1       1.127   3.575  18.340  0.00  0.00    +0.000 C 
ATOM     29  C   UNL     1       0.702   2.934  19.631  0.00  0.00    +0.000 C 
ATOM     30  C   UNL     1       2.007   2.381  20.159  0.00  0.00    +0.000 C 
ATOM     31  O   UNL     1       2.824   2.060  19.024  0.00  0.00    +0.000 OA
ENDBRANCH  26  27
ENDBRANCH  24  26
ENDBRANCH  21  24
ENDBRANCH   4  21
TORSDOF 6
ENDMDL
MODEL 9
REMARK VINA RESULT:      -8.2      1.770      2.641
REMARK  Name = 
REMARK  6 active torsions:
REMARK  status: ('A' for Active; 'I' for Inactive)
REMARK    1  A    between atoms: C_2  and  C_14
REMARK    2  A    between atoms: N_3  and  C_4
REMARK    3  A    between atoms: C_17  and  S_18
REMARK    4  A    between atoms: S_18  and  N_21
REMARK    5  A    between atoms: N_21  and  C_22
REMARK    6  A    between atoms: C_22  and  C_23
REMARK                            x       y       z     vdW  Elec       q    Type
REMARK                         _______ _______ _______ _____ _____    ______ ____
ROOT
ATOM      1  C   UNL     1       2.407   7.618  19.169  0.00  0.00    +0.000 A 
ATOM      2  C   UNL     1       3.017   7.681  17.904  0.00  0.00    +0.000 A 
ATOM      3  C   UNL     1       3.944   6.711  17.512  0.00  0.00    +0.000 A 
ATOM      4  C   UNL     1       4.222   5.647  18.372  0.00  0.00    +0.000 A 
ATOM      5  C   UNL     1       3.538   5.532  19.591  0.00  0.00    +0.000 A 
ATOM      6  C   UNL     1       2.676   6.542  20.018  0.00  0.00    +0.000 A 
ENDROOT
BRANCH   1   8
ATOM      7  O   UNL     1       0.972   8.638  20.676  0.00  0.00    +0.000 OA
ATOM      8  C   UNL     1       1.388   8.630  19.523  0.00  0.00    +0.000 C 
ATOM      9  N   UNL     1       0.973   9.462  18.497  0.00  0.00    +0.000 N 
ATOM     10  H   UNL     1       1.166   9.200  17.538  0.00  0.00    +0.000 HD
BRANCH   9  11
ATOM     11  C   UNL     1       0.069  10.550  18.621  0.00  0.00    +0.000 A 
ATOM     12  C   UNL     1      -1.317  10.363  18.673  0.00  0.00    +0.000 A 
ATOM     13  C   UNL     1      -2.176  11.452  18.765  0.00  0.00    +0.000 A 
ATOM     14  C   UNL     1      -1.654  12.739  18.804  0.00  0.00    +0.000 A 
ATOM     15  C   UNL     1      -0.265  12.939  18.772  0.00  0.00    +0.000 A 
ATOM     16  C   UNL     1       0.270  14.232  18.798  0.00  0.00    +0.000 A 
ATOM     17  C   UNL     1       1.646  14.412  18.761  0.00  0.00    +0.000 A 
ATOM     18  C   UNL     1       2.444  13.286  18.709  0.00  0.00    +0.000 A 
ATOM     19  N   UNL     1       1.970  12.018  18.680  0.00  0.00    +0.000 NA
ATOM     20  C   UNL     1       0.624  11.840  18.701  0.00  0.00    +0.000 A 
ENDBRANCH   9  11
ENDBRANCH   1   8
BRANCH   4  21
ATOM     21  S   UNL     1       5.411   4.400  17.906  0.00  0.00    +0.000 S 
ATOM     22  O   UNL     1       5.464   4.391  16.461  0.00  0.00    +0.000 OA
ATOM     23  O   UNL     1       6.595   4.580  18.716  0.00  0.00    +0.000 OA
BRANCH  21  24
ATOM     24  N   UNL     1       4.709   2.950  18.417  0.00  0.00    +0.000 NA
ATOM     25  H   UNL     1       4.681   2.832  19.431  0.00  0.00    +0.000 HD
BRANCH  24  26
ATOM     26  C   UNL     1       3.552   2.445  17.669  0.00  0.00    +0.000 C 
BRANCH  26  27
ATOM     27  C   UNL     1       2.380   2.044  18.554  0.00  0.00    +0.000 C 
ATOM     28  C   UNL     1       1.269   3.083  18.432  0.00  0.00    +0.000 C 
ATOM     29  C   UNL     1       0.646   3.061  19.799  0.00  0.00    +0.000 C 
ATOM     30  C   UNL     1       1.841   2.816  20.693  0.00  0.00    +0.000 C 
ATOM     31  O   UNL     1       2.787   2.047  19.938  0.00  0.00    +0.000 OA
ENDBRANCH  26  27
ENDBRANCH  24  26
ENDBRANCH  21  24
ENDBRANCH   4  21
TORSDOF 6
ENDMDL
