MODEL 1
REMARK VINA RESULT:      -8.4      0.000      0.000
REMARK  Name = 
REMARK  7 active torsions:
REMARK  status: ('A' for Active; 'I' for Inactive)
REMARK    1  A    between atoms: C_1  and  C_2
REMARK    2  A    between atoms: C_2  and  C_4
REMARK    3  A    between atoms: C_4  and  C_5
REMARK    4  A    between atoms: C_7  and  N_8
REMARK    5  A    between atoms: C_15  and  C_16
REMARK    6  A    between atoms: C_16  and  C_17
REMARK    7  A    between atoms: C_16  and  C_18
REMARK                            x       y       z     vdW  Elec       q    Type
REMARK                         _______ _______ _______ _____ _____    ______ ____
ROOT
ATOM      1  N   UNL     1       4.929   4.868  15.927  0.00  0.00    +0.000 N 
ATOM      2  C   UNL     1       4.416   3.847  16.827  0.00  0.00    +0.000 C 
ATOM      3  C   UNL     1       3.753   4.643  17.904  0.00  0.00    +0.000 A 
ATOM      4  C   UNL     1       3.897   5.999  17.628  0.00  0.00    +0.000 A 
ATOM      5  C   UNL     1       3.362   7.002  18.410  0.00  0.00    +0.000 A 
ATOM      6  C   UNL     1       2.647   6.609  19.530  0.00  0.00    +0.000 A 
ATOM      7  C   UNL     1       2.501   5.242  19.841  0.00  0.00    +0.000 A 
ATOM      8  C   UNL     1       3.063   4.226  19.032  0.00  0.00    +0.000 A 
ATOM      9  C   UNL     1       4.663   6.147  16.398  0.00  0.00    +0.000 C 
ATOM     10  O   UNL     1       4.950   7.248  15.958  0.00  0.00    +0.000 OA
ENDROOT
BRANCH   1  13
ATOM     11  C   UNL     1       5.680   3.582  12.501  0.00  0.00    +0.000 A 
ATOM     12  C   UNL     1       5.007   3.863  13.693  0.00  0.00    +0.000 A 
ATOM     13  C   UNL     1       5.630   4.556  14.741  0.00  0.00    +0.000 A 
ATOM     14  C   UNL     1       6.967   4.949  14.587  0.00  0.00    +0.000 A 
ATOM     15  C   UNL     1       7.655   4.652  13.410  0.00  0.00    +0.000 A 
ATOM     16  C   UNL     1       7.006   3.989  12.378  0.00  0.00    +0.000 A 
ATOM     17  F   UNL     1       7.677   3.741  11.249  0.00  0.00    +0.000 F 
BRANCH  11  18
ATOM     18  C   UNL     1       4.976   2.868  11.377  0.00  0.00    +0.000 C 
BRANCH  18  20
ATOM     19  C   UNL     1       3.395   3.999   9.763  0.00  0.00    +0.000 C 
ATOM     20  C   UNL     1       3.556   3.378  11.139  0.00  0.00    +0.000 C 
ATOM     21  F   UNL     1       2.694   2.324  11.224  0.00  0.00    +0.000 F 
ENDBRANCH  18  20
ENDBRANCH  11  18
ENDBRANCH   1  13
BRANCH   8  22
ATOM     22  C   UNL     1       2.908   2.757  19.386  0.00  0.00    +0.000 C 
ATOM     23  C   UNL     1       4.233   2.172  19.880  0.00  0.00    +0.000 C 
ATOM     24  C   UNL     1       1.802   2.550  20.420  0.00  0.00    +0.000 C 
ATOM     25  F   UNL     1       2.549   2.006  18.293  0.00  0.00    +0.000 F 
ENDBRANCH   8  22
TORSDOF 4
ENDMDL
MODEL 2
REMARK VINA RESULT:      -8.1      1.269      1.607
REMARK  Name = 
REMARK  7 active torsions:
REMARK  status: ('A' for Active; 'I' for Inactive)
REMARK    1  A    between atoms: C_1  and  C_2
REMARK    2  A    between atoms: C_2  and  C_4
REMARK    3  A    between atoms: C_4  and  C_5
REMARK    4  A    between atoms: C_7  and  N_8
REMARK    5  A    between atoms: C_15  and  C_16
REMARK    6  A    between atoms: C_16  and  C_17
REMARK    7  A    between atoms: C_16  and  C_18
REMARK                            x       y       z     vdW  Elec       q    Type
REMARK                         _______ _______ _______ _____ _____    ______ ____
ROOT
ATOM      1  N   UNL     1       5.058   4.842  15.777  0.00  0.00    +0.000 N 
ATOM      2  C   UNL     1       4.541   3.808  16.659  0.00  0.00    +0.000 C 
ATOM      3  C   UNL     1       3.840   4.585  17.725  0.00  0.00    +0.000 A 
ATOM      4  C   UNL     1       3.967   5.945  17.460  0.00  0.00    +0.000 A 
ATOM      5  C   UNL     1       3.396   6.934  18.235  0.00  0.00    +0.000 A 
ATOM      6  C   UNL     1       2.662   6.521  19.335  0.00  0.00    +0.000 A 
ATOM      7  C   UNL     1       2.533   5.151  19.635  0.00  0.00    +0.000 A 
ATOM      8  C   UNL     1       3.131   4.150  18.834  0.00  0.00    +0.000 A 
ATOM      9  C   UNL     1       4.759   6.114  16.249  0.00  0.00    +0.000 C 
ATOM     10  O   UNL     1       5.037   7.222  15.822  0.00  0.00    +0.000 OA
ENDROOT
BRANCH   1  13
ATOM     11  C   UNL     1       6.054   3.296  12.526  0.00  0.00    +0.000 A 
ATOM     12  C   UNL     1       5.356   3.567  13.706  0.00  0.00    +0.000 A 
ATOM     13  C   UNL     1       5.791   4.551  14.606  0.00  0.00    +0.000 A 
ATOM     14  C   UNL     1       6.970   5.253  14.317  0.00  0.00    +0.000 A 
ATOM     15  C   UNL     1       7.687   4.972  13.154  0.00  0.00    +0.000 A 
ATOM     16  C   UNL     1       7.220   4.014  12.267  0.00  0.00    +0.000 A 
ATOM     17  F   UNL     1       7.909   3.783  11.145  0.00  0.00    +0.000 F 
BRANCH  11  18
ATOM     18  C   UNL     1       5.546   2.260  11.558  0.00  0.00    +0.000 C 
BRANCH  18  20
ATOM     19  C   UNL     1       5.958  -0.215  11.260  0.00  0.00    +0.000 C 
ATOM     20  C   UNL     1       6.574   1.172  11.250  0.00  0.00    +0.000 C 
ATOM     21  F   UNL     1       7.082   1.394  10.004  0.00  0.00    +0.000 F 
ENDBRANCH  18  20
ENDBRANCH  11  18
ENDBRANCH   1  13
BRANCH   8  22
ATOM     22  C   UNL     1       2.994   2.675  19.175  0.00  0.00    +0.000 C 
ATOM     23  C   UNL     1       4.283   2.137  19.798  0.00  0.00    +0.000 C 
ATOM     24  C   UNL     1       1.800   2.430  20.097  0.00  0.00    +0.000 C 
ATOM     25  F   UNL     1       2.769   1.913  18.055  0.00  0.00    +0.000 F 
ENDBRANCH   8  22
TORSDOF 4
ENDMDL
MODEL 3
REMARK VINA RESULT:      -7.9      4.099      8.581
REMARK  Name = 
REMARK  7 active torsions:
REMARK  status: ('A' for Active; 'I' for Inactive)
REMARK    1  A    between atoms: C_1  and  C_2
REMARK    2  A    between atoms: C_2  and  C_4
REMARK    3  A    between atoms: C_4  and  C_5
REMARK    4  A    between atoms: C_7  and  N_8
REMARK    5  A    between atoms: C_15  and  C_16
REMARK    6  A    between atoms: C_16  and  C_17
REMARK    7  A    between atoms: C_16  and  C_18
REMARK                            x       y       z     vdW  Elec       q    Type
REMARK                         _______ _______ _______ _____ _____    ______ ____
ROOT
ATOM      1  N   UNL     1       2.507   6.765  18.757  0.00  0.00    +0.000 N 
ATOM      2  C   UNL     1       3.550   6.734  17.744  0.00  0.00    +0.000 C 
ATOM      3  C   UNL     1       3.818   5.274  17.573  0.00  0.00    +0.000 A 
ATOM      4  C   UNL     1       2.995   4.553  18.434  0.00  0.00    +0.000 A 
ATOM      5  C   UNL     1       2.969   3.174  18.493  0.00  0.00    +0.000 A 
ATOM      6  C   UNL     1       3.822   2.494  17.638  0.00  0.00    +0.000 A 
ATOM      7  C   UNL     1       4.677   3.202  16.771  0.00  0.00    +0.000 A 
ATOM      8  C   UNL     1       4.697   4.615  16.728  0.00  0.00    +0.000 A 
ATOM      9  C   UNL     1       2.188   5.489  19.203  0.00  0.00    +0.000 C 
ATOM     10  O   UNL     1       1.403   5.100  20.052  0.00  0.00    +0.000 OA
ENDROOT
BRANCH   1  13
ATOM     11  C   UNL     1       1.214   9.397  21.070  0.00  0.00    +0.000 A 
ATOM     12  C   UNL     1       1.747   8.196  20.595  0.00  0.00    +0.000 A 
ATOM     13  C   UNL     1       1.932   7.967  19.223  0.00  0.00    +0.000 A 
ATOM     14  C   UNL     1       1.545   8.965  18.317  0.00  0.00    +0.000 A 
ATOM     15  C   UNL     1       0.989  10.157  18.781  0.00  0.00    +0.000 A 
ATOM     16  C   UNL     1       0.842  10.369  20.144  0.00  0.00    +0.000 A 
ATOM     17  F   UNL     1       0.334  11.531  20.565  0.00  0.00    +0.000 F 
BRANCH  11  18
ATOM     18  C   UNL     1       1.059   9.631  22.550  0.00  0.00    +0.000 C 
BRANCH  18  20
ATOM     19  C   UNL     1      -1.184  10.630  23.148  0.00  0.00    +0.000 C 
ATOM     20  C   UNL     1      -0.358   9.359  23.055  0.00  0.00    +0.000 C 
ATOM     21  F   UNL     1      -0.979   8.520  22.177  0.00  0.00    +0.000 F 
ENDBRANCH  18  20
ENDBRANCH  11  18
ENDBRANCH   1  13
BRANCH   8  22
ATOM     22  C   UNL     1       5.633   5.366  15.795  0.00  0.00    +0.000 C 
ATOM     23  C   UNL     1       6.858   5.883  16.552  0.00  0.00    +0.000 C 
ATOM     24  C   UNL     1       6.052   4.494  14.612  0.00  0.00    +0.000 C 
ATOM     25  F   UNL     1       5.029   6.474  15.252  0.00  0.00    +0.000 F 
ENDBRANCH   8  22
TORSDOF 4
ENDMDL
MODEL 4
REMARK VINA RESULT:      -7.9      4.448      8.336
REMARK  Name = 
REMARK  7 active torsions:
REMARK  status: ('A' for Active; 'I' for Inactive)
REMARK    1  A    between atoms: C_1  and  C_2
REMARK    2  A    between atoms: C_2  and  C_4
REMARK    3  A    between atoms: C_4  and  C_5
REMARK    4  A    between atoms: C_7  and  N_8
REMARK    5  A    between atoms: C_15  and  C_16
REMARK    6  A    between atoms: C_16  and  C_17
REMARK    7  A    between atoms: C_16  and  C_18
REMARK                            x       y       z     vdW  Elec       q    Type
REMARK                         _______ _______ _______ _____ _____    ______ ____
ROOT
ATOM      1  N   UNL     1       2.334   6.938  19.270  0.00  0.00    +0.000 N 
ATOM      2  C   UNL     1       3.344   7.042  18.228  0.00  0.00    +0.000 C 
ATOM      3  C   UNL     1       3.655   5.615  17.909  0.00  0.00    +0.000 A 
ATOM      4  C   UNL     1       2.885   4.786  18.720  0.00  0.00    +0.000 A 
ATOM      5  C   UNL     1       2.908   3.408  18.646  0.00  0.00    +0.000 A 
ATOM      6  C   UNL     1       3.754   2.844  17.705  0.00  0.00    +0.000 A 
ATOM      7  C   UNL     1       4.556   3.662  16.885  0.00  0.00    +0.000 A 
ATOM      8  C   UNL     1       4.527   5.073  16.978  0.00  0.00    +0.000 A 
ATOM      9  C   UNL     1       2.073   5.614  19.599  0.00  0.00    +0.000 C 
ATOM     10  O   UNL     1       1.330   5.118  20.430  0.00  0.00    +0.000 OA
ENDROOT
BRANCH   1  13
ATOM     11  C   UNL     1       0.738  10.291  19.673  0.00  0.00    +0.000 A 
ATOM     12  C   UNL     1       1.366   9.182  19.099  0.00  0.00    +0.000 A 
ATOM     13  C   UNL     1       1.735   8.068  19.867  0.00  0.00    +0.000 A 
ATOM     14  C   UNL     1       1.488   8.091  21.247  0.00  0.00    +0.000 A 
ATOM     15  C   UNL     1       0.885   9.204  21.834  0.00  0.00    +0.000 A 
ATOM     16  C   UNL     1       0.504  10.281  21.046  0.00  0.00    +0.000 A 
ATOM     17  F   UNL     1      -0.098  11.324  21.627  0.00  0.00    +0.000 F 
BRANCH  11  18
ATOM     18  C   UNL     1       0.319  11.459  18.819  0.00  0.00    +0.000 C 
BRANCH  18  20
ATOM     19  C   UNL     1      -1.459  10.079  17.672  0.00  0.00    +0.000 C 
ATOM     20  C   UNL     1      -1.142  11.385  18.378  0.00  0.00    +0.000 C 
ATOM     21  F   UNL     1      -1.936  11.465  19.484  0.00  0.00    +0.000 F 
ENDBRANCH  18  20
ENDBRANCH  11  18
ENDBRANCH   1  13
BRANCH   8  22
ATOM     22  C   UNL     1       5.406   5.943  16.095  0.00  0.00    +0.000 C 
ATOM     23  C   UNL     1       6.551   6.559  16.902  0.00  0.00    +0.000 C 
ATOM     24  C   UNL     1       5.943   5.154  14.902  0.00  0.00    +0.000 C 
ATOM     25  F   UNL     1       4.706   7.000  15.565  0.00  0.00    +0.000 F 
ENDBRANCH   8  22
TORSDOF 4
ENDMDL
MODEL 5
REMARK VINA RESULT:      -7.8      4.571      8.442
REMARK  Name = 
REMARK  7 active torsions:
REMARK  status: ('A' for Active; 'I' for Inactive)
REMARK    1  A    between atoms: C_1  and  C_2
REMARK    2  A    between atoms: C_2  and  C_4
REMARK    3  A    between atoms: C_4  and  C_5
REMARK    4  A    between atoms: C_7  and  N_8
REMARK    5  A    between atoms: C_15  and  C_16
REMARK    6  A    between atoms: C_16  and  C_17
REMARK    7  A    between atoms: C_16  and  C_18
REMARK                            x       y       z     vdW  Elec       q    Type
REMARK                         _______ _______ _______ _____ _____    ______ ____
ROOT
ATOM      1  N   UNL     1       2.343   6.925  19.283  0.00  0.00    +0.000 N 
ATOM      2  C   UNL     1       3.350   7.017  18.238  0.00  0.00    +0.000 C 
ATOM      3  C   UNL     1       3.656   5.587  17.931  0.00  0.00    +0.000 A 
ATOM      4  C   UNL     1       2.886   4.766  18.750  0.00  0.00    +0.000 A 
ATOM      5  C   UNL     1       2.903   3.388  18.687  0.00  0.00    +0.000 A 
ATOM      6  C   UNL     1       3.745   2.814  17.749  0.00  0.00    +0.000 A 
ATOM      7  C   UNL     1       4.548   3.622  16.921  0.00  0.00    +0.000 A 
ATOM      8  C   UNL     1       4.525   5.034  17.003  0.00  0.00    +0.000 A 
ATOM      9  C   UNL     1       2.078   5.604  19.624  0.00  0.00    +0.000 C 
ATOM     10  O   UNL     1       1.335   5.117  20.461  0.00  0.00    +0.000 OA
ENDROOT
BRANCH   1  13
ATOM     11  C   UNL     1       0.730  10.273  19.660  0.00  0.00    +0.000 A 
ATOM     12  C   UNL     1       1.352   9.158  19.092  0.00  0.00    +0.000 A 
ATOM     13  C   UNL     1       1.749   8.062  19.873  0.00  0.00    +0.000 A 
ATOM     14  C   UNL     1       1.533   8.110  21.258  0.00  0.00    +0.000 A 
ATOM     15  C   UNL     1       0.935   9.229  21.837  0.00  0.00    +0.000 A 
ATOM     16  C   UNL     1       0.528  10.288  21.038  0.00  0.00    +0.000 A 
ATOM     17  F   UNL     1      -0.069  11.336  21.613  0.00  0.00    +0.000 F 
BRANCH  11  18
ATOM     18  C   UNL     1       0.281  11.421  18.794  0.00  0.00    +0.000 C 
BRANCH  18  20
ATOM     19  C   UNL     1       2.471  12.523  18.181  0.00  0.00    +0.000 C 
ATOM     20  C   UNL     1       1.162  12.661  18.939  0.00  0.00    +0.000 C 
ATOM     21  F   UNL     1       0.493  13.733  18.426  0.00  0.00    +0.000 F 
ENDBRANCH  18  20
ENDBRANCH  11  18
ENDBRANCH   1  13
BRANCH   8  22
ATOM     22  C   UNL     1       5.404   5.894  16.110  0.00  0.00    +0.000 C 
ATOM     23  C   UNL     1       6.580   6.474  16.900  0.00  0.00    +0.000 C 
ATOM     24  C   UNL     1       5.898   5.107  14.897  0.00  0.00    +0.000 C 
ATOM     25  F   UNL     1       4.718   6.973  15.608  0.00  0.00    +0.000 F 
ENDBRANCH   8  22
TORSDOF 4
ENDMDL
MODEL 6
REMARK VINA RESULT:      -7.6      4.453      6.965
REMARK  Name = 
REMARK  7 active torsions:
REMARK  status: ('A' for Active; 'I' for Inactive)
REMARK    1  A    between atoms: C_1  and  C_2
REMARK    2  A    between atoms: C_2  and  C_4
REMARK    3  A    between atoms: C_4  and  C_5
REMARK    4  A    between atoms: C_7  and  N_8
REMARK    5  A    between atoms: C_15  and  C_16
REMARK    6  A    between atoms: C_16  and  C_17
REMARK    7  A    between atoms: C_16  and  C_18
REMARK                            x       y       z     vdW  Elec       q    Type
REMARK                         _______ _______ _______ _____ _____    ______ ____
ROOT
ATOM      1  N   UNL     1       2.230   7.197  19.577  0.00  0.00    +0.000 N 
ATOM      2  C   UNL     1       1.504   7.647  20.754  0.00  0.00    +0.000 C 
ATOM      3  C   UNL     1       0.978   8.983  20.343  0.00  0.00    +0.000 A 
ATOM      4  C   UNL     1       1.390   9.258  19.042  0.00  0.00    +0.000 A 
ATOM      5  C   UNL     1       1.037  10.400  18.352  0.00  0.00    +0.000 A 
ATOM      6  C   UNL     1       0.228  11.308  19.015  0.00  0.00    +0.000 A 
ATOM      7  C   UNL     1      -0.187  11.061  20.338  0.00  0.00    +0.000 A 
ATOM      8  C   UNL     1       0.189   9.889  21.035  0.00  0.00    +0.000 A 
ATOM      9  C   UNL     1       2.204   8.149  18.565  0.00  0.00    +0.000 C 
ATOM     10  O   UNL     1       2.711   8.166  17.456  0.00  0.00    +0.000 OA
ENDROOT
BRANCH   1  13
ATOM     11  C   UNL     1       4.857   4.619  18.943  0.00  0.00    +0.000 A 
ATOM     12  C   UNL     1       4.179   5.840  18.973  0.00  0.00    +0.000 A 
ATOM     13  C   UNL     1       2.891   5.951  19.517  0.00  0.00    +0.000 A 
ATOM     14  C   UNL     1       2.269   4.796  20.015  0.00  0.00    +0.000 A 
ATOM     15  C   UNL     1       2.928   3.568  19.966  0.00  0.00    +0.000 A 
ATOM     16  C   UNL     1       4.213   3.491  19.448  0.00  0.00    +0.000 A 
ATOM     17  F   UNL     1       4.835   2.308  19.439  0.00  0.00    +0.000 F 
BRANCH  11  18
ATOM     18  C   UNL     1       6.254   4.534  18.386  0.00  0.00    +0.000 C 
BRANCH  18  20
ATOM     19  C   UNL     1       7.902   6.418  18.729  0.00  0.00    +0.000 C 
ATOM     20  C   UNL     1       6.775   5.874  17.869  0.00  0.00    +0.000 C 
ATOM     21  F   UNL     1       7.261   5.695  16.608  0.00  0.00    +0.000 F 
ENDBRANCH  18  20
ENDBRANCH  11  18
ENDBRANCH   1  13
BRANCH   8  22
ATOM     22  C   UNL     1      -0.257   9.640  22.466  0.00  0.00    +0.000 C 
ATOM     23  C   UNL     1       0.948   9.411  23.381  0.00  0.00    +0.000 C 
ATOM     24  C   UNL     1      -1.122  10.789  22.983  0.00  0.00    +0.000 C 
ATOM     25  F   UNL     1      -1.030   8.509  22.569  0.00  0.00    +0.000 F 
ENDBRANCH   8  22
TORSDOF 4
ENDMDL
MODEL 7
REMARK VINA RESULT:      -7.6      4.179      6.905
REMARK  Name = 
REMARK  7 active torsions:
REMARK  status: ('A' for Active; 'I' for Inactive)
REMARK    1  A    between atoms: C_1  and  C_2
REMARK    2  A    between atoms: C_2  and  C_4
REMARK    3  A    between atoms: C_4  and  C_5
REMARK    4  A    between atoms: C_7  and  N_8
REMARK    5  A    between atoms: C_15  and  C_16
REMARK    6  A    between atoms: C_16  and  C_17
REMARK    7  A    between atoms: C_16  and  C_18
REMARK                            x       y       z     vdW  Elec       q    Type
REMARK                         _______ _______ _______ _____ _____    ______ ____
ROOT
ATOM      1  N   UNL     1       2.026   7.868  18.944  0.00  0.00    +0.000 N 
ATOM      2  C   UNL     1       1.386   8.036  20.239  0.00  0.00    +0.000 C 
ATOM      3  C   UNL     1       0.867   9.436  20.184  0.00  0.00    +0.000 A 
ATOM      4  C   UNL     1       1.203  10.003  18.959  0.00  0.00    +0.000 A 
ATOM      5  C   UNL     1       0.835  11.278  18.577  0.00  0.00    +0.000 A 
ATOM      6  C   UNL     1       0.091  12.013  19.485  0.00  0.00    +0.000 A 
ATOM      7  C   UNL     1      -0.247  11.468  20.739  0.00  0.00    +0.000 A 
ATOM      8  C   UNL     1       0.144  10.162  21.118  0.00  0.00    +0.000 A 
ATOM      9  C   UNL     1       1.960   9.029  18.185  0.00  0.00    +0.000 C 
ATOM     10  O   UNL     1       2.397   9.300  17.078  0.00  0.00    +0.000 OA
ENDROOT
BRANCH   1  13
ATOM     11  C   UNL     1       2.582   4.241  18.243  0.00  0.00    +0.000 A 
ATOM     12  C   UNL     1       1.987   5.434  18.661  0.00  0.00    +0.000 A 
ATOM     13  C   UNL     1       2.652   6.664  18.553  0.00  0.00    +0.000 A 
ATOM     14  C   UNL     1       3.955   6.680  18.035  0.00  0.00    +0.000 A 
ATOM     15  C   UNL     1       4.568   5.492  17.637  0.00  0.00    +0.000 A 
ATOM     16  C   UNL     1       3.877   4.292  17.730  0.00  0.00    +0.000 A 
ATOM     17  F   UNL     1       4.474   3.170  17.316  0.00  0.00    +0.000 F 
BRANCH  11  18
ATOM     18  C   UNL     1       1.832   2.939  18.337  0.00  0.00    +0.000 C 
BRANCH  18  20
ATOM     19  C   UNL     1       2.794   2.769  20.667  0.00  0.00    +0.000 C 
ATOM     20  C   UNL     1       1.597   2.485  19.777  0.00  0.00    +0.000 C 
ATOM     21  F   UNL     1       0.530   3.169  20.281  0.00  0.00    +0.000 F 
ENDBRANCH  18  20
ENDBRANCH  11  18
ENDBRANCH   1  13
BRANCH   8  22
ATOM     22  C   UNL     1      -0.218   9.591  22.479  0.00  0.00    +0.000 C 
ATOM     23  C   UNL     1       1.040   9.299  23.300  0.00  0.00    +0.000 C 
ATOM     24  C   UNL     1      -1.160  10.525  23.238  0.00  0.00    +0.000 C 
ATOM     25  F   UNL     1      -0.882   8.394  22.367  0.00  0.00    +0.000 F 
ENDBRANCH   8  22
TORSDOF 4
ENDMDL
MODEL 8
REMARK VINA RESULT:      -7.6      4.909      8.675
REMARK  Name = 
REMARK  7 active torsions:
REMARK  status: ('A' for Active; 'I' for Inactive)
REMARK    1  A    between atoms: C_1  and  C_2
REMARK    2  A    between atoms: C_2  and  C_4
REMARK    3  A    between atoms: C_4  and  C_5
REMARK    4  A    between atoms: C_7  and  N_8
REMARK    5  A    between atoms: C_15  and  C_16
REMARK    6  A    between atoms: C_16  and  C_17
REMARK    7  A    between atoms: C_16  and  C_18
REMARK                            x       y       z     vdW  Elec       q    Type
REMARK                         _______ _______ _______ _____ _____    ______ ____
ROOT
ATOM      1  N   UNL     1       1.680   7.948  19.854  0.00  0.00    +0.000 N 
ATOM      2  C   UNL     1       1.787   6.561  20.278  0.00  0.00    +0.000 C 
ATOM      3  C   UNL     1       2.661   5.949  19.232  0.00  0.00    +0.000 A 
ATOM      4  C   UNL     1       3.003   6.920  18.295  0.00  0.00    +0.000 A 
ATOM      5  C   UNL     1       3.837   6.687  17.220  0.00  0.00    +0.000 A 
ATOM      6  C   UNL     1       4.346   5.405  17.089  0.00  0.00    +0.000 A 
ATOM      7  C   UNL     1       4.001   4.401  18.014  0.00  0.00    +0.000 A 
ATOM      8  C   UNL     1       3.139   4.654  19.107  0.00  0.00    +0.000 A 
ATOM      9  C   UNL     1       2.364   8.174  18.666  0.00  0.00    +0.000 C 
ATOM     10  O   UNL     1       2.487   9.176  17.981  0.00  0.00    +0.000 OA
ENDROOT
BRANCH   1  13
ATOM     11  C   UNL     1      -0.603  10.805  20.612  0.00  0.00    +0.000 A 
ATOM     12  C   UNL     1       0.162   9.871  19.910  0.00  0.00    +0.000 A 
ATOM     13  C   UNL     1       0.941   8.912  20.574  0.00  0.00    +0.000 A 
ATOM     14  C   UNL     1       0.964   8.918  21.976  0.00  0.00    +0.000 A 
ATOM     15  C   UNL     1       0.223   9.863  22.686  0.00  0.00    +0.000 A 
ATOM     16  C   UNL     1      -0.560  10.783  22.005  0.00  0.00    +0.000 A 
ATOM     17  F   UNL     1      -1.284  11.660  22.708  0.00  0.00    +0.000 F 
BRANCH  11  18
ATOM     18  C   UNL     1      -1.458  11.801  19.875  0.00  0.00    +0.000 C 
BRANCH  18  20
ATOM     19  C   UNL     1      -2.461  11.355  17.599  0.00  0.00    +0.000 C 
ATOM     20  C   UNL     1      -1.225  11.790  18.365  0.00  0.00    +0.000 C 
ATOM     21  F   UNL     1      -0.908  13.055  17.964  0.00  0.00    +0.000 F 
ENDBRANCH  18  20
ENDBRANCH  11  18
ENDBRANCH   1  13
BRANCH   8  22
ATOM     22  C   UNL     1       2.765   3.558  20.092  0.00  0.00    +0.000 C 
ATOM     23  C   UNL     1       1.435   2.909  19.706  0.00  0.00    +0.000 C 
ATOM     24  C   UNL     1       3.872   2.510  20.199  0.00  0.00    +0.000 C 
ATOM     25  F   UNL     1       2.590   4.054  21.360  0.00  0.00    +0.000 F 
ENDBRANCH   8  22
TORSDOF 4
ENDMDL
MODEL 9
REMARK VINA RESULT:      -7.6      4.146      6.777
REMARK  Name = 
REMARK  7 active torsions:
REMARK  status: ('A' for Active; 'I' for Inactive)
REMARK    1  A    between atoms: C_1  and  C_2
REMARK    2  A    between atoms: C_2  and  C_4
REMARK    3  A    between atoms: C_4  and  C_5
REMARK    4  A    between atoms: C_7  and  N_8
REMARK    5  A    between atoms: C_15  and  C_16
REMARK    6  A    between atoms: C_16  and  C_17
REMARK    7  A    between atoms: C_16  and  C_18
REMARK                            x       y       z     vdW  Elec       q    Type
REMARK                         _______ _______ _______ _____ _____    ______ ____
ROOT
ATOM      1  N   UNL     1       2.059   8.068  18.907  0.00  0.00    +0.000 N 
ATOM      2  C   UNL     1       1.411   8.173  20.204  0.00  0.00    +0.000 C 
ATOM      3  C   UNL     1       0.830   9.550  20.186  0.00  0.00    +0.000 A 
ATOM      4  C   UNL     1       1.142  10.164  18.977  0.00  0.00    +0.000 A 
ATOM      5  C   UNL     1       0.718  11.430  18.629  0.00  0.00    +0.000 A 
ATOM      6  C   UNL     1      -0.059  12.107  19.555  0.00  0.00    +0.000 A 
ATOM      7  C   UNL     1      -0.373  11.514  20.794  0.00  0.00    +0.000 A 
ATOM      8  C   UNL     1       0.076  10.218  21.139  0.00  0.00    +0.000 A 
ATOM      9  C   UNL     1       1.941   9.245  18.179  0.00  0.00    +0.000 C 
ATOM     10  O   UNL     1       2.366   9.565  17.080  0.00  0.00    +0.000 OA
ENDROOT
BRANCH   1  13
ATOM     11  C   UNL     1       4.633   5.844  17.365  0.00  0.00    +0.000 A 
ATOM     12  C   UNL     1       3.933   6.988  17.755  0.00  0.00    +0.000 A 
ATOM     13  C   UNL     1       2.738   6.904  18.485  0.00  0.00    +0.000 A 
ATOM     14  C   UNL     1       2.230   5.636  18.800  0.00  0.00    +0.000 A 
ATOM     15  C   UNL     1       2.909   4.487  18.393  0.00  0.00    +0.000 A 
ATOM     16  C   UNL     1       4.104   4.599  17.697  0.00  0.00    +0.000 A 
ATOM     17  F   UNL     1       4.750   3.484  17.343  0.00  0.00    +0.000 F 
BRANCH  11  18
ATOM     18  C   UNL     1       5.934   5.962  16.614  0.00  0.00    +0.000 C 
BRANCH  18  20
ATOM     19  C   UNL     1       7.614   7.598  17.556  0.00  0.00    +0.000 C 
ATOM     20  C   UNL     1       7.140   6.156  17.532  0.00  0.00    +0.000 C 
ATOM     21  F   UNL     1       6.781   5.813  18.802  0.00  0.00    +0.000 F 
ENDBRANCH  18  20
ENDBRANCH  11  18
ENDBRANCH   1  13
BRANCH   8  22
ATOM     22  C   UNL     1      -0.261   9.595  22.483  0.00  0.00    +0.000 C 
ATOM     23  C   UNL     1       1.011   9.289  23.276  0.00  0.00    +0.000 C 
ATOM     24  C   UNL     1      -1.202  10.490  23.287  0.00  0.00    +0.000 C 
ATOM     25  F   UNL     1      -0.913   8.395  22.338  0.00  0.00    +0.000 F 
ENDBRANCH   8  22
TORSDOF 4
ENDMDL
