MODEL 1
REMARK VINA RESULT:      -8.3      0.000      0.000
REMARK  Name = 
REMARK  5 active torsions:
REMARK  status: ('A' for Active; 'I' for Inactive)
REMARK    1  A    between atoms: C_1  and  N_2
REMARK    2  A    between atoms: C_6  and  C_7
REMARK    3  A    between atoms: C_10  and  N_11
REMARK    4  A    between atoms: C_12  and  C_14
REMARK    5  A    between atoms: C_17  and  C_18
REMARK                            x       y       z     vdW  Elec       q    Type
REMARK                         _______ _______ _______ _____ _____    ______ ____
ROOT
ATOM      1  N   UNL     1       0.634  10.646  21.122  0.00  0.00    +0.000 N 
ATOM      2  C   UNL     1       0.207  10.040  19.953  0.00  0.00    +0.000 C 
ATOM      3  O   UNL     1      -0.849  10.250  19.362  0.00  0.00    +0.000 OA
ATOM      4  H   UNL     1       1.518  10.345  21.517  0.00  0.00    +0.000 HD
ENDROOT
BRANCH   2   5
ATOM      5  C   UNL     1       1.099   9.018  19.363  0.00  0.00    +0.000 A 
ATOM      6  C   UNL     1       1.528   9.204  18.043  0.00  0.00    +0.000 A 
ATOM      7  C   UNL     1       2.432   8.310  17.464  0.00  0.00    +0.000 A 
ATOM      8  C   UNL     1       2.929   7.211  18.185  0.00  0.00    +0.000 A 
ATOM      9  C   UNL     1       2.476   7.038  19.506  0.00  0.00    +0.000 A 
ATOM     10  C   UNL     1       1.576   7.933  20.084  0.00  0.00    +0.000 A 
ATOM     11  F   UNL     1       1.194   7.725  21.352  0.00  0.00    +0.000 F 
BRANCH   8  12
ATOM     12  C   UNL     1       3.888   6.264  17.578  0.00  0.00    +0.000 A 
ATOM     13  C   UNL     1       3.805   4.880  17.834  0.00  0.00    +0.000 A 
ATOM     14  C   UNL     1       4.683   3.975  17.233  0.00  0.00    +0.000 A 
ATOM     15  C   UNL     1       5.671   4.445  16.383  0.00  0.00    +0.000 A 
ATOM     16  F   UNL     1       6.510   3.578  15.802  0.00  0.00    +0.000 F 
ATOM     17  C   UNL     1       5.798   5.801  16.122  0.00  0.00    +0.000 A 
ATOM     18  C   UNL     1       4.910   6.703  16.714  0.00  0.00    +0.000 A 
ENDBRANCH   8  12
ENDBRANCH   2   5
BRANCH   1  22
ATOM     19  C   UNL     1      -1.437  13.645  23.301  0.00  0.00    +0.000 A 
ATOM     20  C   UNL     1      -0.489  13.989  22.339  0.00  0.00    +0.000 A 
ATOM     21  C   UNL     1       0.208  13.016  21.629  0.00  0.00    +0.000 A 
ATOM     22  C   UNL     1      -0.051  11.662  21.823  0.00  0.00    +0.000 A 
ATOM     23  C   UNL     1      -1.031  11.298  22.750  0.00  0.00    +0.000 A 
ATOM     24  C   UNL     1      -1.720  12.282  23.481  0.00  0.00    +0.000 A 
BRANCH  19  30
ATOM     25  C   UNL     1      -4.353  14.824  22.859  0.00  0.00    +0.000 C 
ATOM     26  N   UNL     1      -3.408  15.149  23.895  0.00  0.00    +0.000 N 
ATOM     27  C   UNL     1      -3.612  16.096  24.852  0.00  0.00    +0.000 A 
ATOM     28  N   UNL     1      -2.548  16.197  25.608  0.00  0.00    +0.000 NA
ATOM     29  N   UNL     1      -1.618  15.306  25.128  0.00  0.00    +0.000 NA
ATOM     30  C   UNL     1      -2.135  14.659  24.096  0.00  0.00    +0.000 A 
ENDBRANCH  19  30
ENDBRANCH   1  22
TORSDOF 4
ENDMDL
MODEL 2
REMARK VINA RESULT:      -8.3      1.483      2.042
REMARK  Name = 
REMARK  5 active torsions:
REMARK  status: ('A' for Active; 'I' for Inactive)
REMARK    1  A    between atoms: C_1  and  N_2
REMARK    2  A    between atoms: C_6  and  C_7
REMARK    3  A    between atoms: C_10  and  N_11
REMARK    4  A    between atoms: C_12  and  C_14
REMARK    5  A    between atoms: C_17  and  C_18
REMARK                            x       y       z     vdW  Elec       q    Type
REMARK                         _______ _______ _______ _____ _____    ______ ____
ROOT
ATOM      1  N   UNL     1      -0.834  10.660  20.656  0.00  0.00    +0.000 N 
ATOM      2  C   UNL     1       0.550  10.644  20.639  0.00  0.00    +0.000 C 
ATOM      3  O   UNL     1       1.299  11.480  21.137  0.00  0.00    +0.000 OA
ATOM      4  H   UNL     1      -1.324   9.917  20.171  0.00  0.00    +0.000 HD
ENDROOT
BRANCH   2   5
ATOM      5  C   UNL     1       1.199   9.518  19.932  0.00  0.00    +0.000 A 
ATOM      6  C   UNL     1       1.554   9.704  18.590  0.00  0.00    +0.000 A 
ATOM      7  C   UNL     1       2.238   8.702  17.898  0.00  0.00    +0.000 A 
ATOM      8  C   UNL     1       2.586   7.494  18.526  0.00  0.00    +0.000 A 
ATOM      9  C   UNL     1       2.211   7.326  19.871  0.00  0.00    +0.000 A 
ATOM     10  C   UNL     1       1.530   8.327  20.562  0.00  0.00    +0.000 A 
ATOM     11  F   UNL     1       1.214   8.116  21.848  0.00  0.00    +0.000 F 
BRANCH   8  12
ATOM     12  C   UNL     1       3.313   6.431  17.799  0.00  0.00    +0.000 A 
ATOM     13  C   UNL     1       4.442   6.731  17.010  0.00  0.00    +0.000 A 
ATOM     14  C   UNL     1       5.158   5.727  16.353  0.00  0.00    +0.000 A 
ATOM     15  C   UNL     1       4.740   4.410  16.459  0.00  0.00    +0.000 A 
ATOM     16  F   UNL     1       5.427   3.446  15.833  0.00  0.00    +0.000 F 
ATOM     17  C   UNL     1       3.622   4.078  17.210  0.00  0.00    +0.000 A 
ATOM     18  C   UNL     1       2.916   5.082  17.877  0.00  0.00    +0.000 A 
ENDBRANCH   8  12
ENDBRANCH   2   5
BRANCH   1  22
ATOM     19  C   UNL     1      -3.315  13.558  22.521  0.00  0.00    +0.000 A 
ATOM     20  C   UNL     1      -2.550  12.678  23.284  0.00  0.00    +0.000 A 
ATOM     21  C   UNL     1      -1.745  11.713  22.685  0.00  0.00    +0.000 A 
ATOM     22  C   UNL     1      -1.640  11.624  21.300  0.00  0.00    +0.000 A 
ATOM     23  C   UNL     1      -2.364  12.528  20.519  0.00  0.00    +0.000 A 
ATOM     24  C   UNL     1      -3.192  13.489  21.124  0.00  0.00    +0.000 A 
BRANCH  19  30
ATOM     25  C   UNL     1      -6.466  13.391  22.879  0.00  0.00    +0.000 C 
ATOM     26  N   UNL     1      -5.578  14.443  23.297  0.00  0.00    +0.000 N 
ATOM     27  C   UNL     1      -5.981  15.602  23.884  0.00  0.00    +0.000 A 
ATOM     28  N   UNL     1      -4.946  16.378  24.089  0.00  0.00    +0.000 NA
ATOM     29  N   UNL     1      -3.839  15.719  23.612  0.00  0.00    +0.000 NA
ATOM     30  C   UNL     1      -4.211  14.540  23.139  0.00  0.00    +0.000 A 
ENDBRANCH  19  30
ENDBRANCH   1  22
TORSDOF 4
ENDMDL
MODEL 3
REMARK VINA RESULT:      -8.2      1.407      1.981
REMARK  Name = 
REMARK  5 active torsions:
REMARK  status: ('A' for Active; 'I' for Inactive)
REMARK    1  A    between atoms: C_1  and  N_2
REMARK    2  A    between atoms: C_6  and  C_7
REMARK    3  A    between atoms: C_10  and  N_11
REMARK    4  A    between atoms: C_12  and  C_14
REMARK    5  A    between atoms: C_17  and  C_18
REMARK                            x       y       z     vdW  Elec       q    Type
REMARK                         _______ _______ _______ _____ _____    ______ ____
ROOT
ATOM      1  N   UNL     1      -0.881  10.737  20.597  0.00  0.00    +0.000 N 
ATOM      2  C   UNL     1       0.502  10.688  20.629  0.00  0.00    +0.000 C 
ATOM      3  O   UNL     1       1.254  11.505  21.154  0.00  0.00    +0.000 OA
ATOM      4  H   UNL     1      -1.370  10.007  20.093  0.00  0.00    +0.000 HD
ENDROOT
BRANCH   2   5
ATOM      5  C   UNL     1       1.149   9.549  19.941  0.00  0.00    +0.000 A 
ATOM      6  C   UNL     1       1.497   9.707  18.594  0.00  0.00    +0.000 A 
ATOM      7  C   UNL     1       2.179   8.691  17.919  0.00  0.00    +0.000 A 
ATOM      8  C   UNL     1       2.530   7.496  18.569  0.00  0.00    +0.000 A 
ATOM      9  C   UNL     1       2.161   7.356  19.919  0.00  0.00    +0.000 A 
ATOM     10  C   UNL     1       1.483   8.371  20.593  0.00  0.00    +0.000 A 
ATOM     11  F   UNL     1       1.174   8.185  21.884  0.00  0.00    +0.000 F 
BRANCH   8  12
ATOM     12  C   UNL     1       3.255   6.420  17.861  0.00  0.00    +0.000 A 
ATOM     13  C   UNL     1       4.384   6.703  17.066  0.00  0.00    +0.000 A 
ATOM     14  C   UNL     1       5.097   5.687  16.426  0.00  0.00    +0.000 A 
ATOM     15  C   UNL     1       4.676   4.373  16.555  0.00  0.00    +0.000 A 
ATOM     16  F   UNL     1       5.360   3.396  15.946  0.00  0.00    +0.000 F 
ATOM     17  C   UNL     1       3.557   4.056  17.311  0.00  0.00    +0.000 A 
ATOM     18  C   UNL     1       2.854   5.074  17.962  0.00  0.00    +0.000 A 
ENDBRANCH   8  12
ENDBRANCH   2   5
BRANCH   1  22
ATOM     19  C   UNL     1      -3.251  13.683  22.529  0.00  0.00    +0.000 A 
ATOM     20  C   UNL     1      -3.108  13.680  21.143  0.00  0.00    +0.000 A 
ATOM     21  C   UNL     1      -2.321  12.730  20.498  0.00  0.00    +0.000 A 
ATOM     22  C   UNL     1      -1.686  11.719  21.215  0.00  0.00    +0.000 A 
ATOM     23  C   UNL     1      -1.856  11.678  22.601  0.00  0.00    +0.000 A 
ATOM     24  C   UNL     1      -2.634  12.651  23.252  0.00  0.00    +0.000 A 
BRANCH  19  30
ATOM     25  C   UNL     1      -2.193  16.308  23.970  0.00  0.00    +0.000 C 
ATOM     26  N   UNL     1      -3.551  15.854  23.833  0.00  0.00    +0.000 N 
ATOM     27  C   UNL     1      -4.631  16.483  24.375  0.00  0.00    +0.000 A 
ATOM     28  N   UNL     1      -5.716  15.794  24.124  0.00  0.00    +0.000 NA
ATOM     29  N   UNL     1      -5.339  14.679  23.414  0.00  0.00    +0.000 NA
ATOM     30  C   UNL     1      -4.029  14.713  23.223  0.00  0.00    +0.000 A 
ENDBRANCH  19  30
ENDBRANCH   1  22
TORSDOF 4
ENDMDL
MODEL 4
REMARK VINA RESULT:      -8.2      1.366      1.878
REMARK  Name = 
REMARK  5 active torsions:
REMARK  status: ('A' for Active; 'I' for Inactive)
REMARK    1  A    between atoms: C_1  and  N_2
REMARK    2  A    between atoms: C_6  and  C_7
REMARK    3  A    between atoms: C_10  and  N_11
REMARK    4  A    between atoms: C_12  and  C_14
REMARK    5  A    between atoms: C_17  and  C_18
REMARK                            x       y       z     vdW  Elec       q    Type
REMARK                         _______ _______ _______ _____ _____    ______ ____
ROOT
ATOM      1  N   UNL     1      -0.798  10.592  20.763  0.00  0.00    +0.000 N 
ATOM      2  C   UNL     1       0.491  10.778  20.295  0.00  0.00    +0.000 C 
ATOM      3  O   UNL     1       1.135  11.824  20.317  0.00  0.00    +0.000 OA
ATOM      4  H   UNL     1      -1.218   9.677  20.645  0.00  0.00    +0.000 HD
ENDROOT
BRANCH   2   5
ATOM      5  C   UNL     1       1.159   9.608  19.684  0.00  0.00    +0.000 A 
ATOM      6  C   UNL     1       1.557   9.704  18.345  0.00  0.00    +0.000 A 
ATOM      7  C   UNL     1       2.260   8.658  17.743  0.00  0.00    +0.000 A 
ATOM      8  C   UNL     1       2.585   7.494  18.460  0.00  0.00    +0.000 A 
ATOM      9  C   UNL     1       2.166   7.416  19.801  0.00  0.00    +0.000 A 
ATOM     10  C   UNL     1       1.466   8.461  20.402  0.00  0.00    +0.000 A 
ATOM     11  F   UNL     1       1.110   8.336  21.688  0.00  0.00    +0.000 F 
BRANCH   8  12
ATOM     12  C   UNL     1       3.331   6.385  17.829  0.00  0.00    +0.000 A 
ATOM     13  C   UNL     1       2.875   5.055  17.922  0.00  0.00    +0.000 A 
ATOM     14  C   UNL     1       3.554   4.007  17.294  0.00  0.00    +0.000 A 
ATOM     15  C   UNL     1       4.712   4.274  16.582  0.00  0.00    +0.000 A 
ATOM     16  F   UNL     1       5.362   3.273  15.976  0.00  0.00    +0.000 F 
ATOM     17  C   UNL     1       5.204   5.568  16.485  0.00  0.00    +0.000 A 
ATOM     18  C   UNL     1       4.515   6.616  17.102  0.00  0.00    +0.000 A 
ENDBRANCH   8  12
ENDBRANCH   2   5
BRANCH   1  22
ATOM     19  C   UNL     1      -3.245  13.527  22.615  0.00  0.00    +0.000 A 
ATOM     20  C   UNL     1      -2.509  12.625  23.381  0.00  0.00    +0.000 A 
ATOM     21  C   UNL     1      -1.717  11.648  22.787  0.00  0.00    +0.000 A 
ATOM     22  C   UNL     1      -1.594  11.568  21.402  0.00  0.00    +0.000 A 
ATOM     23  C   UNL     1      -2.287  12.493  20.618  0.00  0.00    +0.000 A 
ATOM     24  C   UNL     1      -3.104  13.466  21.220  0.00  0.00    +0.000 A 
BRANCH  19  30
ATOM     25  C   UNL     1      -2.451  16.267  24.010  0.00  0.00    +0.000 C 
ATOM     26  N   UNL     1      -3.765  15.714  23.819  0.00  0.00    +0.000 N 
ATOM     27  C   UNL     1      -4.914  16.282  24.279  0.00  0.00    +0.000 A 
ATOM     28  N   UNL     1      -5.933  15.510  23.997  0.00  0.00    +0.000 NA
ATOM     29  N   UNL     1      -5.442  14.402  23.350  0.00  0.00    +0.000 NA
ATOM     30  C   UNL     1      -4.129  14.522  23.228  0.00  0.00    +0.000 A 
ENDBRANCH  19  30
ENDBRANCH   1  22
TORSDOF 4
ENDMDL
MODEL 5
REMARK VINA RESULT:      -8.2      1.453      1.919
REMARK  Name = 
REMARK  5 active torsions:
REMARK  status: ('A' for Active; 'I' for Inactive)
REMARK    1  A    between atoms: C_1  and  N_2
REMARK    2  A    between atoms: C_6  and  C_7
REMARK    3  A    between atoms: C_10  and  N_11
REMARK    4  A    between atoms: C_12  and  C_14
REMARK    5  A    between atoms: C_17  and  C_18
REMARK                            x       y       z     vdW  Elec       q    Type
REMARK                         _______ _______ _______ _____ _____    ______ ____
ROOT
ATOM      1  N   UNL     1      -1.033  11.001  20.993  0.00  0.00    +0.000 N 
ATOM      2  C   UNL     1       0.339  11.016  20.811  0.00  0.00    +0.000 C 
ATOM      3  O   UNL     1       1.109  11.924  21.114  0.00  0.00    +0.000 OA
ATOM      4  H   UNL     1      -1.548  10.193  20.660  0.00  0.00    +0.000 HD
ENDROOT
BRANCH   2   5
ATOM      5  C   UNL     1       0.943   9.830  20.167  0.00  0.00    +0.000 A 
ATOM      6  C   UNL     1       1.284   9.921  18.812  0.00  0.00    +0.000 A 
ATOM      7  C   UNL     1       1.928   8.857  18.175  0.00  0.00    +0.000 A 
ATOM      8  C   UNL     1       2.248   7.680  18.872  0.00  0.00    +0.000 A 
ATOM      9  C   UNL     1       1.886   7.607  20.229  0.00  0.00    +0.000 A 
ATOM     10  C   UNL     1       1.246   8.670  20.865  0.00  0.00    +0.000 A 
ATOM     11  F   UNL     1       0.942   8.548  22.165  0.00  0.00    +0.000 F 
BRANCH   8  12
ATOM     12  C   UNL     1       2.932   6.553  18.203  0.00  0.00    +0.000 A 
ATOM     13  C   UNL     1       2.389   5.252  18.231  0.00  0.00    +0.000 A 
ATOM     14  C   UNL     1       3.009   4.190  17.568  0.00  0.00    +0.000 A 
ATOM     15  C   UNL     1       4.195   4.411  16.885  0.00  0.00    +0.000 A 
ATOM     16  F   UNL     1       4.788   3.396  16.245  0.00  0.00    +0.000 F 
ATOM     17  C   UNL     1       4.771   5.673  16.852  0.00  0.00    +0.000 A 
ATOM     18  C   UNL     1       4.141   6.736  17.505  0.00  0.00    +0.000 A 
ENDBRANCH   8  12
ENDBRANCH   2   5
BRANCH   1  22
ATOM     19  C   UNL     1      -3.287  14.032  22.933  0.00  0.00    +0.000 A 
ATOM     20  C   UNL     1      -2.935  14.155  21.590  0.00  0.00    +0.000 A 
ATOM     21  C   UNL     1      -2.183  13.176  20.947  0.00  0.00    +0.000 A 
ATOM     22  C   UNL     1      -1.795  12.016  21.612  0.00  0.00    +0.000 A 
ATOM     23  C   UNL     1      -2.179  11.854  22.945  0.00  0.00    +0.000 A 
ATOM     24  C   UNL     1      -2.921  12.853  23.600  0.00  0.00    +0.000 A 
BRANCH  19  30
ATOM     25  C   UNL     1      -2.229  16.020  25.172  0.00  0.00    +0.000 C 
ATOM     26  N   UNL     1      -3.546  15.945  24.599  0.00  0.00    +0.000 N 
ATOM     27  C   UNL     1      -4.600  16.714  24.990  0.00  0.00    +0.000 A 
ATOM     28  N   UNL     1      -5.672  16.368  24.322  0.00  0.00    +0.000 NA
ATOM     29  N   UNL     1      -5.318  15.338  23.483  0.00  0.00    +0.000 NA
ATOM     30  C   UNL     1      -4.028  15.082  23.637  0.00  0.00    +0.000 A 
ENDBRANCH  19  30
ENDBRANCH   1  22
TORSDOF 4
ENDMDL
MODEL 6
REMARK VINA RESULT:      -8.2      1.512      1.730
REMARK  Name = 
REMARK  5 active torsions:
REMARK  status: ('A' for Active; 'I' for Inactive)
REMARK    1  A    between atoms: C_1  and  N_2
REMARK    2  A    between atoms: C_6  and  C_7
REMARK    3  A    between atoms: C_10  and  N_11
REMARK    4  A    between atoms: C_12  and  C_14
REMARK    5  A    between atoms: C_17  and  C_18
REMARK                            x       y       z     vdW  Elec       q    Type
REMARK                         _______ _______ _______ _____ _____    ______ ____
ROOT
ATOM      1  N   UNL     1      -0.880  10.732  20.457  0.00  0.00    +0.000 N 
ATOM      2  C   UNL     1       0.499  10.663  20.560  0.00  0.00    +0.000 C 
ATOM      3  O   UNL     1       1.231  11.457  21.145  0.00  0.00    +0.000 OA
ATOM      4  H   UNL     1      -1.351  10.021  19.909  0.00  0.00    +0.000 HD
ENDROOT
BRANCH   2   5
ATOM      5  C   UNL     1       1.167   9.532  19.879  0.00  0.00    +0.000 A 
ATOM      6  C   UNL     1       1.511   9.688  18.531  0.00  0.00    +0.000 A 
ATOM      7  C   UNL     1       2.212   8.681  17.863  0.00  0.00    +0.000 A 
ATOM      8  C   UNL     1       2.587   7.498  18.521  0.00  0.00    +0.000 A 
ATOM      9  C   UNL     1       2.222   7.360  19.873  0.00  0.00    +0.000 A 
ATOM     10  C   UNL     1       1.525   8.366  20.540  0.00  0.00    +0.000 A 
ATOM     11  F   UNL     1       1.220   8.184  21.833  0.00  0.00    +0.000 F 
BRANCH   8  12
ATOM     12  C   UNL     1       3.332   6.431  17.820  0.00  0.00    +0.000 A 
ATOM     13  C   UNL     1       2.935   5.082  17.917  0.00  0.00    +0.000 A 
ATOM     14  C   UNL     1       3.610   4.073  17.225  0.00  0.00    +0.000 A 
ATOM     15  C   UNL     1       4.706   4.398  16.442  0.00  0.00    +0.000 A 
ATOM     16  F   UNL     1       5.351   3.434  15.774  0.00  0.00    +0.000 F 
ATOM     17  C   UNL     1       5.139   5.712  16.338  0.00  0.00    +0.000 A 
ATOM     18  C   UNL     1       4.454   6.721  17.020  0.00  0.00    +0.000 A 
ENDBRANCH   8  12
ENDBRANCH   2   5
BRANCH   1  22
ATOM     19  C   UNL     1      -3.303  13.677  22.324  0.00  0.00    +0.000 A 
ATOM     20  C   UNL     1      -3.284  13.544  20.937  0.00  0.00    +0.000 A 
ATOM     21  C   UNL     1      -2.482  12.594  20.311  0.00  0.00    +0.000 A 
ATOM     22  C   UNL     1      -1.704  11.710  21.055  0.00  0.00    +0.000 A 
ATOM     23  C   UNL     1      -1.746  11.797  22.448  0.00  0.00    +0.000 A 
ATOM     24  C   UNL     1      -2.541  12.771  23.078  0.00  0.00    +0.000 A 
BRANCH  19  30
ATOM     25  C   UNL     1      -6.280  13.473  23.412  0.00  0.00    +0.000 C 
ATOM     26  N   UNL     1      -5.387  14.600  23.469  0.00  0.00    +0.000 N 
ATOM     27  C   UNL     1      -5.720  15.821  23.970  0.00  0.00    +0.000 A 
ATOM     28  N   UNL     1      -4.714  16.648  23.826  0.00  0.00    +0.000 NA
ATOM     29  N   UNL     1      -3.702  15.958  23.202  0.00  0.00    +0.000 NA
ATOM     30  C   UNL     1      -4.097  14.712  22.991  0.00  0.00    +0.000 A 
ENDBRANCH  19  30
ENDBRANCH   1  22
TORSDOF 4
ENDMDL
MODEL 7
REMARK VINA RESULT:      -8.1      0.923      1.561
REMARK  Name = 
REMARK  5 active torsions:
REMARK  status: ('A' for Active; 'I' for Inactive)
REMARK    1  A    between atoms: C_1  and  N_2
REMARK    2  A    between atoms: C_6  and  C_7
REMARK    3  A    between atoms: C_10  and  N_11
REMARK    4  A    between atoms: C_12  and  C_14
REMARK    5  A    between atoms: C_17  and  C_18
REMARK                            x       y       z     vdW  Elec       q    Type
REMARK                         _______ _______ _______ _____ _____    ______ ____
ROOT
ATOM      1  N   UNL     1       0.609  10.695  21.182  0.00  0.00    +0.000 N 
ATOM      2  C   UNL     1       0.194  10.004  20.056  0.00  0.00    +0.000 C 
ATOM      3  O   UNL     1      -0.917  10.051  19.535  0.00  0.00    +0.000 OA
ATOM      4  H   UNL     1       1.550  10.529  21.521  0.00  0.00    +0.000 HD
ENDROOT
BRANCH   2   5
ATOM      5  C   UNL     1       1.178   9.097  19.426  0.00  0.00    +0.000 A 
ATOM      6  C   UNL     1       1.539   7.936  20.120  0.00  0.00    +0.000 A 
ATOM      7  C   UNL     1       2.405   7.007  19.536  0.00  0.00    +0.000 A 
ATOM      8  C   UNL     1       2.929   7.213  18.248  0.00  0.00    +0.000 A 
ATOM      9  C   UNL     1       2.560   8.392  17.575  0.00  0.00    +0.000 A 
ATOM     10  C   UNL     1       1.694   9.317  18.157  0.00  0.00    +0.000 A 
ATOM     11  F   UNL     1       1.365  10.413  17.458  0.00  0.00    +0.000 F 
BRANCH   8  12
ATOM     12  C   UNL     1       3.842   6.232  17.624  0.00  0.00    +0.000 A 
ATOM     13  C   UNL     1       3.651   4.847  17.798  0.00  0.00    +0.000 A 
ATOM     14  C   UNL     1       4.487   3.914  17.179  0.00  0.00    +0.000 A 
ATOM     15  C   UNL     1       5.540   4.355  16.394  0.00  0.00    +0.000 A 
ATOM     16  F   UNL     1       6.339   3.463  15.797  0.00  0.00    +0.000 F 
ATOM     17  C   UNL     1       5.772   5.712  16.216  0.00  0.00    +0.000 A 
ATOM     18  C   UNL     1       4.927   6.642  16.825  0.00  0.00    +0.000 A 
ENDBRANCH   8  12
ENDBRANCH   2   5
BRANCH   1  22
ATOM     19  C   UNL     1      -1.704  13.556  23.303  0.00  0.00    +0.000 A 
ATOM     20  C   UNL     1      -1.907  12.191  23.495  0.00  0.00    +0.000 A 
ATOM     21  C   UNL     1      -1.168  11.242  22.795  0.00  0.00    +0.000 A 
ATOM     22  C   UNL     1      -0.163  11.627  21.909  0.00  0.00    +0.000 A 
ATOM     23  C   UNL     1       0.087  12.990  21.738  0.00  0.00    +0.000 A 
ATOM     24  C   UNL     1      -0.676  13.947  22.432  0.00  0.00    +0.000 A 
BRANCH  19  30
ATOM     25  C   UNL     1      -4.641  14.532  22.592  0.00  0.00    +0.000 C 
ATOM     26  N   UNL     1      -3.797  14.965  23.673  0.00  0.00    +0.000 N 
ATOM     27  C   UNL     1      -4.125  15.943  24.561  0.00  0.00    +0.000 A 
ATOM     28  N   UNL     1      -3.128  16.146  25.385  0.00  0.00    +0.000 NA
ATOM     29  N   UNL     1      -2.115  15.291  25.021  0.00  0.00    +0.000 NA
ATOM     30  C   UNL     1      -2.516  14.563  23.991  0.00  0.00    +0.000 A 
ENDBRANCH  19  30
ENDBRANCH   1  22
TORSDOF 4
ENDMDL
MODEL 8
REMARK VINA RESULT:      -8.1      0.689      1.475
REMARK  Name = 
REMARK  5 active torsions:
REMARK  status: ('A' for Active; 'I' for Inactive)
REMARK    1  A    between atoms: C_1  and  N_2
REMARK    2  A    between atoms: C_6  and  C_7
REMARK    3  A    between atoms: C_10  and  N_11
REMARK    4  A    between atoms: C_12  and  C_14
REMARK    5  A    between atoms: C_17  and  C_18
REMARK                            x       y       z     vdW  Elec       q    Type
REMARK                         _______ _______ _______ _____ _____    ______ ____
ROOT
ATOM      1  N   UNL     1       0.270  10.792  21.309  0.00  0.00    +0.000 N 
ATOM      2  C   UNL     1      -0.037  10.269  20.065  0.00  0.00    +0.000 C 
ATOM      3  O   UNL     1      -1.014  10.547  19.374  0.00  0.00    +0.000 OA
ATOM      4  H   UNL     1       1.096  10.439  21.781  0.00  0.00    +0.000 HD
ENDROOT
BRANCH   2   5
ATOM      5  C   UNL     1       0.888   9.254  19.516  0.00  0.00    +0.000 A 
ATOM      6  C   UNL     1       1.336   9.418  18.199  0.00  0.00    +0.000 A 
ATOM      7  C   UNL     1       2.271   8.532  17.658  0.00  0.00    +0.000 A 
ATOM      8  C   UNL     1       2.782   7.464  18.415  0.00  0.00    +0.000 A 
ATOM      9  C   UNL     1       2.309   7.313  19.732  0.00  0.00    +0.000 A 
ATOM     10  C   UNL     1       1.379   8.200  20.272  0.00  0.00    +0.000 A 
ATOM     11  F   UNL     1       0.980   8.015  21.539  0.00  0.00    +0.000 F 
BRANCH   8  12
ATOM     12  C   UNL     1       3.773   6.525  17.849  0.00  0.00    +0.000 A 
ATOM     13  C   UNL     1       3.956   5.240  18.399  0.00  0.00    +0.000 A 
ATOM     14  C   UNL     1       4.863   4.333  17.845  0.00  0.00    +0.000 A 
ATOM     15  C   UNL     1       5.616   4.708  16.743  0.00  0.00    +0.000 A 
ATOM     16  F   UNL     1       6.482   3.839  16.207  0.00  0.00    +0.000 F 
ATOM     17  C   UNL     1       5.479   5.971  16.186  0.00  0.00    +0.000 A 
ATOM     18  C   UNL     1       4.561   6.871  16.734  0.00  0.00    +0.000 A 
ENDBRANCH   8  12
ENDBRANCH   2   5
BRANCH   1  22
ATOM     19  C   UNL     1      -1.920  13.841  23.293  0.00  0.00    +0.000 A 
ATOM     20  C   UNL     1      -2.225  12.496  23.496  0.00  0.00    +0.000 A 
ATOM     21  C   UNL     1      -1.526  11.488  22.840  0.00  0.00    +0.000 A 
ATOM     22  C   UNL     1      -0.463  11.787  21.991  0.00  0.00    +0.000 A 
ATOM     23  C   UNL     1      -0.113  13.127  21.811  0.00  0.00    +0.000 A 
ATOM     24  C   UNL     1      -0.834  14.145  22.458  0.00  0.00    +0.000 A 
BRANCH  19  30
ATOM     25  C   UNL     1      -1.129  15.580  25.829  0.00  0.00    +0.000 C 
ATOM     26  N   UNL     1      -2.320  15.667  25.027  0.00  0.00    +0.000 N 
ATOM     27  C   UNL     1      -3.359  16.509  25.282  0.00  0.00    +0.000 A 
ATOM     28  N   UNL     1      -4.315  16.308  24.410  0.00  0.00    +0.000 NA
ATOM     29  N   UNL     1      -3.901  15.301  23.572  0.00  0.00    +0.000 NA
ATOM     30  C   UNL     1      -2.687  14.913  23.932  0.00  0.00    +0.000 A 
ENDBRANCH  19  30
ENDBRANCH   1  22
TORSDOF 4
ENDMDL
MODEL 9
REMARK VINA RESULT:      -8.1      0.522      1.032
REMARK  Name = 
REMARK  5 active torsions:
REMARK  status: ('A' for Active; 'I' for Inactive)
REMARK    1  A    between atoms: C_1  and  N_2
REMARK    2  A    between atoms: C_6  and  C_7
REMARK    3  A    between atoms: C_10  and  N_11
REMARK    4  A    between atoms: C_12  and  C_14
REMARK    5  A    between atoms: C_17  and  C_18
REMARK                            x       y       z     vdW  Elec       q    Type
REMARK                         _______ _______ _______ _____ _____    ______ ____
ROOT
ATOM      1  N   UNL     1       0.587  10.445  21.166  0.00  0.00    +0.000 N 
ATOM      2  C   UNL     1       0.251   9.868  19.953  0.00  0.00    +0.000 C 
ATOM      3  O   UNL     1      -0.784  10.050  19.316  0.00  0.00    +0.000 OA
ATOM      4  H   UNL     1       1.465  10.171  21.594  0.00  0.00    +0.000 HD
ENDROOT
BRANCH   2   5
ATOM      5  C   UNL     1       1.222   8.916  19.371  0.00  0.00    +0.000 A 
ATOM      6  C   UNL     1       1.737   9.199  18.100  0.00  0.00    +0.000 A 
ATOM      7  C   UNL     1       2.714   8.374  17.537  0.00  0.00    +0.000 A 
ATOM      8  C   UNL     1       3.202   7.251  18.227  0.00  0.00    +0.000 A 
ATOM      9  C   UNL     1       2.662   6.981  19.497  0.00  0.00    +0.000 A 
ATOM     10  C   UNL     1       1.688   7.805  20.060  0.00  0.00    +0.000 A 
ATOM     11  F   UNL     1       1.225   7.507  21.282  0.00  0.00    +0.000 F 
BRANCH   8  12
ATOM     12  C   UNL     1       4.238   6.377  17.637  0.00  0.00    +0.000 A 
ATOM     13  C   UNL     1       4.759   5.280  18.354  0.00  0.00    +0.000 A 
ATOM     14  C   UNL     1       5.709   4.427  17.788  0.00  0.00    +0.000 A 
ATOM     15  C   UNL     1       6.168   4.672  16.503  0.00  0.00    +0.000 A 
ATOM     16  F   UNL     1       7.075   3.852  15.957  0.00  0.00    +0.000 F 
ATOM     17  C   UNL     1       5.694   5.753  15.774  0.00  0.00    +0.000 A 
ATOM     18  C   UNL     1       4.733   6.597  16.337  0.00  0.00    +0.000 A 
ENDBRANCH   8  12
ENDBRANCH   2   5
BRANCH   1  22
ATOM     19  C   UNL     1      -1.724  13.360  23.213  0.00  0.00    +0.000 A 
ATOM     20  C   UNL     1      -1.898  12.002  23.472  0.00  0.00    +0.000 A 
ATOM     21  C   UNL     1      -1.158  11.036  22.796  0.00  0.00    +0.000 A 
ATOM     22  C   UNL     1      -0.183  11.396  21.869  0.00  0.00    +0.000 A 
ATOM     23  C   UNL     1       0.038  12.754  21.631  0.00  0.00    +0.000 A 
ATOM     24  C   UNL     1      -0.724  13.728  22.299  0.00  0.00    +0.000 A 
BRANCH  19  30
ATOM     25  C   UNL     1      -4.508  14.568  22.276  0.00  0.00    +0.000 C 
ATOM     26  N   UNL     1      -3.751  14.887  23.457  0.00  0.00    +0.000 N 
ATOM     27  C   UNL     1      -4.106  15.840  24.363  0.00  0.00    +0.000 A 
ATOM     28  N   UNL     1      -3.186  15.933  25.290  0.00  0.00    +0.000 NA
ATOM     29  N   UNL     1      -2.197  15.030  24.979  0.00  0.00    +0.000 NA
ATOM     30  C   UNL     1      -2.537  14.384  23.874  0.00  0.00    +0.000 A 
ENDBRANCH  19  30
ENDBRANCH   1  22
TORSDOF 4
ENDMDL
