MODEL 1
REMARK VINA RESULT:      -8.8      0.000      0.000
REMARK  Name = 
REMARK  5 active torsions:
REMARK  status: ('A' for Active; 'I' for Inactive)
REMARK    1  A    between atoms: C_1  and  C_2
REMARK    2  A    between atoms: C_11  and  C_12
REMARK    3  A    between atoms: C_12  and  S_13
REMARK    4  A    between atoms: S_13  and  C_14
REMARK    5  A    between atoms: N_24  and  C_25
REMARK                            x       y       z     vdW  Elec       q    Type
REMARK                         _______ _______ _______ _____ _____    ______ ____
ROOT
ATOM      1  C   UNL     1       3.200   6.325  18.349  0.00  0.00    +0.000 A 
ATOM      2  N   UNL     1       3.947   6.794  17.398  0.00  0.00    +0.000 NA
ATOM      3  C   UNL     1       4.677   5.881  16.607  0.00  0.00    +0.000 A 
ATOM      4  C   UNL     1       5.443   6.337  15.527  0.00  0.00    +0.000 A 
ATOM      5  C   UNL     1       6.181   5.451  14.730  0.00  0.00    +0.000 A 
ATOM      6  C   UNL     1       6.174   4.080  15.002  0.00  0.00    +0.000 A 
ATOM      7  C   UNL     1       5.418   3.611  16.069  0.00  0.00    +0.000 A 
ATOM      8  C   UNL     1       4.675   4.513  16.853  0.00  0.00    +0.000 A 
ATOM      9  C   UNL     1       3.846   4.019  17.956  0.00  0.00    +0.000 A 
ATOM     10  O   UNL     1       3.881   2.815  18.196  0.00  0.00    +0.000 OA
ATOM     11  N   UNL     1       3.079   4.960  18.650  0.00  0.00    +0.000 N 
ENDROOT
BRANCH  11  12
ATOM     12  C   UNL     1       2.193   4.433  19.707  0.00  0.00    +0.000 C 
ATOM     13  C   UNL     1       2.906   3.809  20.910  0.00  0.00    +0.000 C 
ATOM     14  C   UNL     1       1.818   2.989  21.605  0.00  0.00    +0.000 C 
ATOM     15  C   UNL     1       0.680   2.816  20.595  0.00  0.00    +0.000 C 
ATOM     16  C   UNL     1       1.206   3.349  19.268  0.00  0.00    +0.000 C 
ENDBRANCH  11  12
BRANCH   1  17
ATOM     17  S   UNL     1       2.267   7.430  19.357  0.00  0.00    +0.000 S 
BRANCH  17  18
ATOM     18  C   UNL     1       1.893   8.895  18.369  0.00  0.00    +0.000 C 
BRANCH  18  29
ATOM     19  C   UNL     1       2.332  11.905  17.925  0.00  0.00    +0.000 C 
ATOM     20  C   UNL     1       1.492  11.351  19.031  0.00  0.00    +0.000 A 
ATOM     21  N   UNL     1       0.940  12.298  19.839  0.00  0.00    +0.000 NA
ATOM     22  C   UNL     1       0.212  11.883  20.886  0.00  0.00    +0.000 A 
ATOM     23  C   UNL     1      -0.354  12.831  21.732  0.00  0.00    +0.000 A 
ATOM     24  C   UNL     1      -1.103  12.456  22.847  0.00  0.00    +0.000 A 
ATOM     25  C   UNL     1      -1.279  11.107  23.119  0.00  0.00    +0.000 A 
ATOM     26  C   UNL     1      -0.717  10.149  22.266  0.00  0.00    +0.000 A 
ATOM     27  C   UNL     1       0.021  10.509  21.140  0.00  0.00    +0.000 A 
ATOM     28  N   UNL     1       0.543   9.567  20.318  0.00  0.00    +0.000 NA
ATOM     29  C   UNL     1       1.282   9.985  19.246  0.00  0.00    +0.000 A 
ENDBRANCH  18  29
ENDBRANCH  17  18
ENDBRANCH   1  17
TORSDOF 4
ENDMDL
MODEL 2
REMARK VINA RESULT:      -8.8      2.478      7.991
REMARK  Name = 
REMARK  5 active torsions:
REMARK  status: ('A' for Active; 'I' for Inactive)
REMARK    1  A    between atoms: C_1  and  C_2
REMARK    2  A    between atoms: C_11  and  C_12
REMARK    3  A    between atoms: C_12  and  S_13
REMARK    4  A    between atoms: S_13  and  C_14
REMARK    5  A    between atoms: N_24  and  C_25
REMARK                            x       y       z     vdW  Elec       q    Type
REMARK                         _______ _______ _______ _____ _____    ______ ____
ROOT
ATOM      1  C   UNL     1       2.582   6.344  18.616  0.00  0.00    +0.000 A 
ATOM      2  N   UNL     1       2.680   7.435  17.921  0.00  0.00    +0.000 NA
ATOM      3  C   UNL     1       2.144   8.624  18.461  0.00  0.00    +0.000 A 
ATOM      4  C   UNL     1       2.287   9.838  17.778  0.00  0.00    +0.000 A 
ATOM      5  C   UNL     1       1.759  11.031  18.291  0.00  0.00    +0.000 A 
ATOM      6  C   UNL     1       1.066  11.035  19.505  0.00  0.00    +0.000 A 
ATOM      7  C   UNL     1       0.917   9.839  20.196  0.00  0.00    +0.000 A 
ATOM      8  C   UNL     1       1.462   8.652  19.673  0.00  0.00    +0.000 A 
ATOM      9  C   UNL     1       1.339   7.396  20.416  0.00  0.00    +0.000 A 
ATOM     10  O   UNL     1       0.700   7.417  21.464  0.00  0.00    +0.000 OA
ATOM     11  N   UNL     1       1.963   6.269  19.873  0.00  0.00    +0.000 N 
ENDROOT
BRANCH  11  12
ATOM     12  C   UNL     1       1.895   5.030  20.675  0.00  0.00    +0.000 C 
ATOM     13  C   UNL     1       3.211   4.260  20.808  0.00  0.00    +0.000 C 
ATOM     14  C   UNL     1       2.786   2.870  21.282  0.00  0.00    +0.000 C 
ATOM     15  C   UNL     1       1.286   2.746  21.001  0.00  0.00    +0.000 C 
ATOM     16  C   UNL     1       0.904   3.973  20.181  0.00  0.00    +0.000 C 
ENDBRANCH  11  12
BRANCH   1  17
ATOM     17  S   UNL     1       3.243   4.838  17.981  0.00  0.00    +0.000 S 
BRANCH  17  18
ATOM     18  C   UNL     1       5.029   4.865  18.248  0.00  0.00    +0.000 C 
BRANCH  18  29
ATOM     19  C   UNL     1       7.474   6.647  17.701  0.00  0.00    +0.000 C 
ATOM     20  C   UNL     1       6.876   5.734  16.677  0.00  0.00    +0.000 A 
ATOM     21  N   UNL     1       7.502   5.765  15.469  0.00  0.00    +0.000 NA
ATOM     22  C   UNL     1       6.998   5.012  14.481  0.00  0.00    +0.000 A 
ATOM     23  C   UNL     1       7.615   5.034  13.234  0.00  0.00    +0.000 A 
ATOM     24  C   UNL     1       7.120   4.288  12.165  0.00  0.00    +0.000 A 
ATOM     25  C   UNL     1       5.984   3.514  12.350  0.00  0.00    +0.000 A 
ATOM     26  C   UNL     1       5.363   3.483  13.605  0.00  0.00    +0.000 A 
ATOM     27  C   UNL     1       5.855   4.212  14.687  0.00  0.00    +0.000 A 
ATOM     28  N   UNL     1       5.250   4.156  15.898  0.00  0.00    +0.000 NA
ATOM     29  C   UNL     1       5.764   4.918  16.910  0.00  0.00    +0.000 A 
ENDBRANCH  18  29
ENDBRANCH  17  18
ENDBRANCH   1  17
TORSDOF 4
ENDMDL
MODEL 3
REMARK VINA RESULT:      -8.7      2.143      2.571
REMARK  Name = 
REMARK  5 active torsions:
REMARK  status: ('A' for Active; 'I' for Inactive)
REMARK    1  A    between atoms: C_1  and  C_2
REMARK    2  A    between atoms: C_11  and  C_12
REMARK    3  A    between atoms: C_12  and  S_13
REMARK    4  A    between atoms: S_13  and  C_14
REMARK    5  A    between atoms: N_24  and  C_25
REMARK                            x       y       z     vdW  Elec       q    Type
REMARK                         _______ _______ _______ _____ _____    ______ ____
ROOT
ATOM      1  C   UNL     1       3.059   6.463  18.332  0.00  0.00    +0.000 A 
ATOM      2  N   UNL     1       3.805   6.927  17.378  0.00  0.00    +0.000 NA
ATOM      3  C   UNL     1       4.599   6.019  16.646  0.00  0.00    +0.000 A 
ATOM      4  C   UNL     1       5.368   6.466  15.565  0.00  0.00    +0.000 A 
ATOM      5  C   UNL     1       6.169   5.583  14.825  0.00  0.00    +0.000 A 
ATOM      6  C   UNL     1       6.225   4.227  15.158  0.00  0.00    +0.000 A 
ATOM      7  C   UNL     1       5.467   3.768  16.228  0.00  0.00    +0.000 A 
ATOM      8  C   UNL     1       4.660   4.664  16.953  0.00  0.00    +0.000 A 
ATOM      9  C   UNL     1       3.829   4.177  18.059  0.00  0.00    +0.000 A 
ATOM     10  O   UNL     1       3.918   2.989  18.353  0.00  0.00    +0.000 OA
ATOM     11  N   UNL     1       2.999   5.108  18.691  0.00  0.00    +0.000 N 
ENDROOT
BRANCH  11  12
ATOM     12  C   UNL     1       2.114   4.583  19.751  0.00  0.00    +0.000 C 
ATOM     13  C   UNL     1       2.826   4.055  20.999  0.00  0.00    +0.000 C 
ATOM     14  C   UNL     1       1.765   3.211  21.706  0.00  0.00    +0.000 C 
ATOM     15  C   UNL     1       0.666   2.929  20.678  0.00  0.00    +0.000 C 
ATOM     16  C   UNL     1       1.198   3.428  19.340  0.00  0.00    +0.000 C 
ENDBRANCH  11  12
BRANCH   1  17
ATOM     17  S   UNL     1       2.046   7.562  19.268  0.00  0.00    +0.000 S 
BRANCH  17  18
ATOM     18  C   UNL     1       2.062   9.166  18.437  0.00  0.00    +0.000 C 
BRANCH  18  29
ATOM     19  C   UNL     1       1.115  10.801  20.862  0.00  0.00    +0.000 C 
ATOM     20  C   UNL     1       0.272  10.569  19.648  0.00  0.00    +0.000 A 
ATOM     21  N   UNL     1      -0.963  11.138  19.709  0.00  0.00    +0.000 NA
ATOM     22  C   UNL     1      -1.799  10.935  18.681  0.00  0.00    +0.000 A 
ATOM     23  C   UNL     1      -3.070  11.498  18.724  0.00  0.00    +0.000 A 
ATOM     24  C   UNL     1      -3.987  11.302  17.692  0.00  0.00    +0.000 A 
ATOM     25  C   UNL     1      -3.623  10.522  16.604  0.00  0.00    +0.000 A 
ATOM     26  C   UNL     1      -2.342   9.960  16.552  0.00  0.00    +0.000 A 
ATOM     27  C   UNL     1      -1.410  10.159  17.570  0.00  0.00    +0.000 A 
ATOM     28  N   UNL     1      -0.169   9.619  17.493  0.00  0.00    +0.000 NA
ATOM     29  C   UNL     1       0.688   9.828  18.537  0.00  0.00    +0.000 A 
ENDBRANCH  18  29
ENDBRANCH  17  18
ENDBRANCH   1  17
TORSDOF 4
ENDMDL
MODEL 4
REMARK VINA RESULT:      -8.3      3.347      8.334
REMARK  Name = 
REMARK  5 active torsions:
REMARK  status: ('A' for Active; 'I' for Inactive)
REMARK    1  A    between atoms: C_1  and  C_2
REMARK    2  A    between atoms: C_11  and  C_12
REMARK    3  A    between atoms: C_12  and  S_13
REMARK    4  A    between atoms: S_13  and  C_14
REMARK    5  A    between atoms: N_24  and  C_25
REMARK                            x       y       z     vdW  Elec       q    Type
REMARK                         _______ _______ _______ _____ _____    ______ ____
ROOT
ATOM      1  C   UNL     1       0.452  10.926  20.321  0.00  0.00    +0.000 A 
ATOM      2  N   UNL     1       1.441  11.589  20.836  0.00  0.00    +0.000 NA
ATOM      3  C   UNL     1       1.679  12.901  20.374  0.00  0.00    +0.000 A 
ATOM      4  C   UNL     1       2.692  13.679  20.948  0.00  0.00    +0.000 A 
ATOM      5  C   UNL     1       2.951  14.984  20.504  0.00  0.00    +0.000 A 
ATOM      6  C   UNL     1       2.203  15.540  19.463  0.00  0.00    +0.000 A 
ATOM      7  C   UNL     1       1.193  14.782  18.883  0.00  0.00    +0.000 A 
ATOM      8  C   UNL     1       0.938  13.478  19.348  0.00  0.00    +0.000 A 
ATOM      9  C   UNL     1      -0.150  12.689  18.765  0.00  0.00    +0.000 A 
ATOM     10  O   UNL     1      -0.774  13.185  17.831  0.00  0.00    +0.000 OA
ATOM     11  N   UNL     1      -0.393  11.429  19.321  0.00  0.00    +0.000 N 
ENDROOT
BRANCH  11  12
ATOM     12  C   UNL     1      -1.542  10.681  18.772  0.00  0.00    +0.000 C 
ATOM     13  C   UNL     1      -1.329  10.077  17.381  0.00  0.00    +0.000 C 
ATOM     14  C   UNL     1      -2.741   9.759  16.890  0.00  0.00    +0.000 C 
ATOM     15  C   UNL     1      -3.707  10.549  17.778  0.00  0.00    +0.000 C 
ATOM     16  C   UNL     1      -2.844  11.473  18.627  0.00  0.00    +0.000 C 
ENDBRANCH  11  12
BRANCH   1  17
ATOM     17  S   UNL     1       0.116   9.285  20.873  0.00  0.00    +0.000 S 
BRANCH  17  18
ATOM     18  C   UNL     1       1.699   8.464  21.155  0.00  0.00    +0.000 C 
BRANCH  18  29
ATOM     19  C   UNL     1       2.504   8.608  18.191  0.00  0.00    +0.000 C 
ATOM     20  C   UNL     1       2.200   7.326  18.899  0.00  0.00    +0.000 A 
ATOM     21  N   UNL     1       2.299   6.218  18.113  0.00  0.00    +0.000 NA
ATOM     22  C   UNL     1       1.995   5.032  18.659  0.00  0.00    +0.000 A 
ATOM     23  C   UNL     1       2.080   3.887  17.873  0.00  0.00    +0.000 A 
ATOM     24  C   UNL     1       1.754   2.631  18.383  0.00  0.00    +0.000 A 
ATOM     25  C   UNL     1       1.329   2.525  19.700  0.00  0.00    +0.000 A 
ATOM     26  C   UNL     1       1.250   3.674  20.496  0.00  0.00    +0.000 A 
ATOM     27  C   UNL     1       1.586   4.935  20.005  0.00  0.00    +0.000 A 
ATOM     28  N   UNL     1       1.518   6.032  20.796  0.00  0.00    +0.000 NA
ATOM     29  C   UNL     1       1.832   7.243  20.246  0.00  0.00    +0.000 A 
ENDBRANCH  18  29
ENDBRANCH  17  18
ENDBRANCH   1  17
TORSDOF 4
ENDMDL
MODEL 5
REMARK VINA RESULT:      -8.3      3.272      9.135
REMARK  Name = 
REMARK  5 active torsions:
REMARK  status: ('A' for Active; 'I' for Inactive)
REMARK    1  A    between atoms: C_1  and  C_2
REMARK    2  A    between atoms: C_11  and  C_12
REMARK    3  A    between atoms: C_12  and  S_13
REMARK    4  A    between atoms: S_13  and  C_14
REMARK    5  A    between atoms: N_24  and  C_25
REMARK                            x       y       z     vdW  Elec       q    Type
REMARK                         _______ _______ _______ _____ _____    ______ ____
ROOT
ATOM      1  C   UNL     1       0.287  10.258  18.238  0.00  0.00    +0.000 A 
ATOM      2  N   UNL     1      -0.803   9.667  17.856  0.00  0.00    +0.000 NA
ATOM      3  C   UNL     1      -2.032  10.331  18.060  0.00  0.00    +0.000 A 
ATOM      4  C   UNL     1      -3.227   9.762  17.603  0.00  0.00    +0.000 A 
ATOM      5  C   UNL     1      -4.461  10.400  17.798  0.00  0.00    +0.000 A 
ATOM      6  C   UNL     1      -4.527  11.626  18.466  0.00  0.00    +0.000 A 
ATOM      7  C   UNL     1      -3.350  12.204  18.925  0.00  0.00    +0.000 A 
ATOM      8  C   UNL     1      -2.119  11.557  18.711  0.00  0.00    +0.000 A 
ATOM      9  C   UNL     1      -0.872  12.181  19.160  0.00  0.00    +0.000 A 
ATOM     10  O   UNL     1      -0.957  13.242  19.772  0.00  0.00    +0.000 OA
ATOM     11  N   UNL     1       0.321  11.518  18.854  0.00  0.00    +0.000 N 
ENDROOT
BRANCH  11  12
ATOM     12  C   UNL     1       1.571  12.200  19.247  0.00  0.00    +0.000 C 
ATOM     13  C   UNL     1       1.599  12.746  20.677  0.00  0.00    +0.000 C 
ATOM     14  C   UNL     1       2.764  13.737  20.676  0.00  0.00    +0.000 C 
ATOM     15  C   UNL     1       3.079  14.048  19.211  0.00  0.00    +0.000 C 
ATOM     16  C   UNL     1       1.967  13.405  18.391  0.00  0.00    +0.000 C 
ENDBRANCH  11  12
BRANCH   1  17
ATOM     17  S   UNL     1       1.844   9.466  17.996  0.00  0.00    +0.000 S 
BRANCH  17  18
ATOM     18  C   UNL     1       1.994   8.158  19.232  0.00  0.00    +0.000 C 
BRANCH  18  29
ATOM     19  C   UNL     1       1.866   5.316  20.397  0.00  0.00    +0.000 C 
ATOM     20  C   UNL     1       2.676   5.674  19.191  0.00  0.00    +0.000 A 
ATOM     21  N   UNL     1       3.366   4.632  18.653  0.00  0.00    +0.000 NA
ATOM     22  C   UNL     1       4.156   4.879  17.598  0.00  0.00    +0.000 A 
ATOM     23  C   UNL     1       4.879   3.832  17.037  0.00  0.00    +0.000 A 
ATOM     24  C   UNL     1       5.732   4.038  15.953  0.00  0.00    +0.000 A 
ATOM     25  C   UNL     1       5.865   5.316  15.430  0.00  0.00    +0.000 A 
ATOM     26  C   UNL     1       5.134   6.372  15.987  0.00  0.00    +0.000 A 
ATOM     27  C   UNL     1       4.267   6.179  17.062  0.00  0.00    +0.000 A 
ATOM     28  N   UNL     1       3.555   7.211  17.577  0.00  0.00    +0.000 NA
ATOM     29  C   UNL     1       2.745   6.962  18.649  0.00  0.00    +0.000 A 
ENDBRANCH  18  29
ENDBRANCH  17  18
ENDBRANCH   1  17
TORSDOF 4
ENDMDL
MODEL 6
REMARK VINA RESULT:      -8.3      1.315      2.468
REMARK  Name = 
REMARK  5 active torsions:
REMARK  status: ('A' for Active; 'I' for Inactive)
REMARK    1  A    between atoms: C_1  and  C_2
REMARK    2  A    between atoms: C_11  and  C_12
REMARK    3  A    between atoms: C_12  and  S_13
REMARK    4  A    between atoms: S_13  and  C_14
REMARK    5  A    between atoms: N_24  and  C_25
REMARK                            x       y       z     vdW  Elec       q    Type
REMARK                         _______ _______ _______ _____ _____    ______ ____
ROOT
ATOM      1  C   UNL     1       3.285   6.383  18.215  0.00  0.00    +0.000 A 
ATOM      2  N   UNL     1       4.055   6.801  17.259  0.00  0.00    +0.000 NA
ATOM      3  C   UNL     1       4.765   5.843  16.503  0.00  0.00    +0.000 A 
ATOM      4  C   UNL     1       5.556   6.244  15.419  0.00  0.00    +0.000 A 
ATOM      5  C   UNL     1       6.274   5.312  14.656  0.00  0.00    +0.000 A 
ATOM      6  C   UNL     1       6.223   3.951  14.968  0.00  0.00    +0.000 A 
ATOM      7  C   UNL     1       5.442   3.537  16.039  0.00  0.00    +0.000 A 
ATOM      8  C   UNL     1       4.719   4.483  16.788  0.00  0.00    +0.000 A 
ATOM      9  C   UNL     1       3.864   4.047  17.896  0.00  0.00    +0.000 A 
ATOM     10  O   UNL     1       3.859   2.851  18.172  0.00  0.00    +0.000 OA
ATOM     11  N   UNL     1       3.119   5.031  18.553  0.00  0.00    +0.000 N 
ENDROOT
BRANCH  11  12
ATOM     12  C   UNL     1       2.206   4.563  19.616  0.00  0.00    +0.000 C 
ATOM     13  C   UNL     1       2.888   4.000  20.866  0.00  0.00    +0.000 C 
ATOM     14  C   UNL     1       1.781   3.221  21.577  0.00  0.00    +0.000 C 
ATOM     15  C   UNL     1       0.666   2.999  20.551  0.00  0.00    +0.000 C 
ATOM     16  C   UNL     1       1.225   3.461  19.211  0.00  0.00    +0.000 C 
ENDBRANCH  11  12
BRANCH   1  17
ATOM     17  S   UNL     1       2.375   7.545  19.180  0.00  0.00    +0.000 S 
BRANCH  17  18
ATOM     18  C   UNL     1       1.557   8.685  18.042  0.00  0.00    +0.000 C 
BRANCH  18  29
ATOM     19  C   UNL     1      -0.237   9.419  20.428  0.00  0.00    +0.000 C 
ATOM     20  C   UNL     1       0.659  10.400  19.741  0.00  0.00    +0.000 A 
ATOM     21  N   UNL     1       0.607  11.659  20.257  0.00  0.00    +0.000 NA
ATOM     22  C   UNL     1       1.344  12.610  19.666  0.00  0.00    +0.000 A 
ATOM     23  C   UNL     1       1.301  13.906  20.168  0.00  0.00    +0.000 A 
ATOM     24  C   UNL     1       2.030  14.939  19.580  0.00  0.00    +0.000 A 
ATOM     25  C   UNL     1       2.809  14.666  18.465  0.00  0.00    +0.000 A 
ATOM     26  C   UNL     1       2.862  13.361  17.960  0.00  0.00    +0.000 A 
ATOM     27  C   UNL     1       2.150  12.316  18.546  0.00  0.00    +0.000 A 
ATOM     28  N   UNL     1       2.227  11.056  18.052  0.00  0.00    +0.000 NA
ATOM     29  C   UNL     1       1.481  10.082  18.655  0.00  0.00    +0.000 A 
ENDBRANCH  18  29
ENDBRANCH  17  18
ENDBRANCH   1  17
TORSDOF 4
ENDMDL
MODEL 7
REMARK VINA RESULT:      -8.1      3.585      8.358
REMARK  Name = 
REMARK  5 active torsions:
REMARK  status: ('A' for Active; 'I' for Inactive)
REMARK    1  A    between atoms: C_1  and  C_2
REMARK    2  A    between atoms: C_11  and  C_12
REMARK    3  A    between atoms: C_12  and  S_13
REMARK    4  A    between atoms: S_13  and  C_14
REMARK    5  A    between atoms: N_24  and  C_25
REMARK                            x       y       z     vdW  Elec       q    Type
REMARK                         _______ _______ _______ _____ _____    ______ ____
ROOT
ATOM      1  C   UNL     1      -0.305  10.137  18.680  0.00  0.00    +0.000 A 
ATOM      2  N   UNL     1      -0.719   9.637  17.557  0.00  0.00    +0.000 NA
ATOM      3  C   UNL     1      -1.923  10.128  17.008  0.00  0.00    +0.000 A 
ATOM      4  C   UNL     1      -2.373   9.665  15.766  0.00  0.00    +0.000 A 
ATOM      5  C   UNL     1      -3.568  10.135  15.201  0.00  0.00    +0.000 A 
ATOM      6  C   UNL     1      -4.348  11.078  15.876  0.00  0.00    +0.000 A 
ATOM      7  C   UNL     1      -3.914  11.548  17.109  0.00  0.00    +0.000 A 
ATOM      8  C   UNL     1      -2.708  11.076  17.657  0.00  0.00    +0.000 A 
ATOM      9  C   UNL     1      -2.227  11.596  18.940  0.00  0.00    +0.000 A 
ATOM     10  O   UNL     1      -2.943  12.401  19.529  0.00  0.00    +0.000 OA
ATOM     11  N   UNL     1      -0.987  11.135  19.392  0.00  0.00    +0.000 N 
ENDROOT
BRANCH  11  12
ATOM     12  C   UNL     1      -0.485  11.729  20.648  0.00  0.00    +0.000 C 
ATOM     13  C   UNL     1      -1.399  11.563  21.864  0.00  0.00    +0.000 C 
ATOM     14  C   UNL     1      -0.881  12.595  22.866  0.00  0.00    +0.000 C 
ATOM     15  C   UNL     1      -0.011  13.579  22.078  0.00  0.00    +0.000 C 
ATOM     16  C   UNL     1      -0.206  13.233  20.606  0.00  0.00    +0.000 C 
ENDBRANCH  11  12
BRANCH   1  17
ATOM     17  S   UNL     1       1.197   9.556  19.398  0.00  0.00    +0.000 S 
BRANCH  17  18
ATOM     18  C   UNL     1       2.172   8.787  18.087  0.00  0.00    +0.000 C 
BRANCH  18  29
ATOM     19  C   UNL     1       4.460   7.231  16.745  0.00  0.00    +0.000 C 
ATOM     20  C   UNL     1       3.656   6.691  17.885  0.00  0.00    +0.000 A 
ATOM     21  N   UNL     1       4.016   5.438  18.277  0.00  0.00    +0.000 NA
ATOM     22  C   UNL     1       3.312   4.861  19.261  0.00  0.00    +0.000 A 
ATOM     23  C   UNL     1       3.654   3.577  19.673  0.00  0.00    +0.000 A 
ATOM     24  C   UNL     1       2.943   2.922  20.676  0.00  0.00    +0.000 A 
ATOM     25  C   UNL     1       1.865   3.563  21.270  0.00  0.00    +0.000 A 
ATOM     26  C   UNL     1       1.521   4.858  20.865  0.00  0.00    +0.000 A 
ATOM     27  C   UNL     1       2.232   5.532  19.872  0.00  0.00    +0.000 A 
ATOM     28  N   UNL     1       1.894   6.792  19.505  0.00  0.00    +0.000 NA
ATOM     29  C   UNL     1       2.613   7.386  18.506  0.00  0.00    +0.000 A 
ENDBRANCH  18  29
ENDBRANCH  17  18
ENDBRANCH   1  17
TORSDOF 4
ENDMDL
MODEL 8
REMARK VINA RESULT:      -8.0      1.393      1.739
REMARK  Name = 
REMARK  5 active torsions:
REMARK  status: ('A' for Active; 'I' for Inactive)
REMARK    1  A    between atoms: C_1  and  C_2
REMARK    2  A    between atoms: C_11  and  C_12
REMARK    3  A    between atoms: C_12  and  S_13
REMARK    4  A    between atoms: S_13  and  C_14
REMARK    5  A    between atoms: N_24  and  C_25
REMARK                            x       y       z     vdW  Elec       q    Type
REMARK                         _______ _______ _______ _____ _____    ______ ____
ROOT
ATOM      1  C   UNL     1       3.205   6.584  18.069  0.00  0.00    +0.000 A 
ATOM      2  N   UNL     1       4.007   6.993  17.134  0.00  0.00    +0.000 NA
ATOM      3  C   UNL     1       4.798   6.036  16.464  0.00  0.00    +0.000 A 
ATOM      4  C   UNL     1       5.627   6.423  15.404  0.00  0.00    +0.000 A 
ATOM      5  C   UNL     1       6.427   5.491  14.725  0.00  0.00    +0.000 A 
ATOM      6  C   UNL     1       6.419   4.145  15.100  0.00  0.00    +0.000 A 
ATOM      7  C   UNL     1       5.601   3.745  16.148  0.00  0.00    +0.000 A 
ATOM      8  C   UNL     1       4.797   4.690  16.812  0.00  0.00    +0.000 A 
ATOM      9  C   UNL     1       3.904   4.266  17.894  0.00  0.00    +0.000 A 
ATOM     10  O   UNL     1       3.937   3.085  18.227  0.00  0.00    +0.000 OA
ATOM     11  N   UNL     1       3.082   5.243  18.464  0.00  0.00    +0.000 N 
ENDROOT
BRANCH  11  12
ATOM     12  C   UNL     1       2.135   4.782  19.499  0.00  0.00    +0.000 C 
ATOM     13  C   UNL     1       2.775   4.260  20.788  0.00  0.00    +0.000 C 
ATOM     14  C   UNL     1       1.654   3.477  21.472  0.00  0.00    +0.000 C 
ATOM     15  C   UNL     1       0.586   3.212  20.408  0.00  0.00    +0.000 C 
ATOM     16  C   UNL     1       1.190   3.654  19.080  0.00  0.00    +0.000 C 
ENDBRANCH  11  12
BRANCH   1  17
ATOM     17  S   UNL     1       2.194   7.746  18.928  0.00  0.00    +0.000 S 
BRANCH  17  18
ATOM     18  C   UNL     1       1.490   8.872  17.704  0.00  0.00    +0.000 C 
BRANCH  18  29
ATOM     19  C   UNL     1      -1.462   9.620  17.278  0.00  0.00    +0.000 C 
ATOM     20  C   UNL     1      -0.548  10.370  18.195  0.00  0.00    +0.000 A 
ATOM     21  N   UNL     1      -1.133  11.427  18.823  0.00  0.00    +0.000 NA
ATOM     22  C   UNL     1      -0.369  12.182  19.624  0.00  0.00    +0.000 A 
ATOM     23  C   UNL     1      -0.941  13.273  20.270  0.00  0.00    +0.000 A 
ATOM     24  C   UNL     1      -0.188  14.104  21.098  0.00  0.00    +0.000 A 
ATOM     25  C   UNL     1       1.162  13.839  21.274  0.00  0.00    +0.000 A 
ATOM     26  C   UNL     1       1.742  12.738  20.632  0.00  0.00    +0.000 A 
ATOM     27  C   UNL     1       0.998  11.889  19.813  0.00  0.00    +0.000 A 
ATOM     28  N   UNL     1       1.573  10.818  19.214  0.00  0.00    +0.000 NA
ATOM     29  C   UNL     1       0.796  10.043  18.399  0.00  0.00    +0.000 A 
ENDBRANCH  18  29
ENDBRANCH  17  18
ENDBRANCH   1  17
TORSDOF 4
ENDMDL
MODEL 9
REMARK VINA RESULT:      -8.0      4.867      9.826
REMARK  Name = 
REMARK  5 active torsions:
REMARK  status: ('A' for Active; 'I' for Inactive)
REMARK    1  A    between atoms: C_1  and  C_2
REMARK    2  A    between atoms: C_11  and  C_12
REMARK    3  A    between atoms: C_12  and  S_13
REMARK    4  A    between atoms: S_13  and  C_14
REMARK    5  A    between atoms: N_24  and  C_25
REMARK                            x       y       z     vdW  Elec       q    Type
REMARK                         _______ _______ _______ _____ _____    ______ ____
ROOT
ATOM      1  C   UNL     1      -3.537  12.199  19.359  0.00  0.00    +0.000 A 
ATOM      2  N   UNL     1      -3.887  12.806  20.450  0.00  0.00    +0.000 NA
ATOM      3  C   UNL     1      -5.210  12.642  20.912  0.00  0.00    +0.000 A 
ATOM      4  C   UNL     1      -5.613  13.224  22.121  0.00  0.00    +0.000 A 
ATOM      5  C   UNL     1      -6.924  13.080  22.599  0.00  0.00    +0.000 A 
ATOM      6  C   UNL     1      -7.869  12.353  21.869  0.00  0.00    +0.000 A 
ATOM      7  C   UNL     1      -7.484  11.770  20.668  0.00  0.00    +0.000 A 
ATOM      8  C   UNL     1      -6.163  11.914  20.208  0.00  0.00    +0.000 A 
ATOM      9  C   UNL     1      -5.743  11.268  18.961  0.00  0.00    +0.000 A 
ATOM     10  O   UNL     1      -6.597  10.662  18.321  0.00  0.00    +0.000 OA
ATOM     11  N   UNL     1      -4.399  11.394  18.598  0.00  0.00    +0.000 N 
ENDROOT
BRANCH  11  12
ATOM     12  C   UNL     1      -3.978  10.673  17.380  0.00  0.00    +0.000 C 
ATOM     13  C   UNL     1      -2.654   9.912  17.491  0.00  0.00    +0.000 C 
ATOM     14  C   UNL     1      -2.254   9.642  16.041  0.00  0.00    +0.000 C 
ATOM     15  C   UNL     1      -3.086  10.586  15.168  0.00  0.00    +0.000 C 
ATOM     16  C   UNL     1      -3.797  11.534  16.127  0.00  0.00    +0.000 C 
ENDBRANCH  11  12
BRANCH   1  17
ATOM     17  S   UNL     1      -1.891  12.371  18.749  0.00  0.00    +0.000 S 
BRANCH  17  18
ATOM     18  C   UNL     1      -0.771  12.312  20.165  0.00  0.00    +0.000 C 
BRANCH  18  29
ATOM     19  C   UNL     1      -0.569  10.593  22.706  0.00  0.00    +0.000 C 
ATOM     20  C   UNL     1       0.018  10.188  21.391  0.00  0.00    +0.000 A 
ATOM     21  N   UNL     1       0.664   8.990  21.414  0.00  0.00    +0.000 NA
ATOM     22  C   UNL     1       1.261   8.577  20.287  0.00  0.00    +0.000 A 
ATOM     23  C   UNL     1       1.936   7.361  20.288  0.00  0.00    +0.000 A 
ATOM     24  C   UNL     1       2.593   6.893  19.150  0.00  0.00    +0.000 A 
ATOM     25  C   UNL     1       2.577   7.664  17.997  0.00  0.00    +0.000 A 
ATOM     26  C   UNL     1       1.893   8.885  17.988  0.00  0.00    +0.000 A 
ATOM     27  C   UNL     1       1.220   9.359  19.114  0.00  0.00    +0.000 A 
ATOM     28  N   UNL     1       0.550  10.536  19.081  0.00  0.00    +0.000 NA
ATOM     29  C   UNL     1      -0.065  10.958  20.227  0.00  0.00    +0.000 A 
ENDBRANCH  18  29
ENDBRANCH  17  18
ENDBRANCH   1  17
TORSDOF 4
ENDMDL
