MODEL 1
REMARK VINA RESULT:      -7.8      0.000      0.000
REMARK  Name = 
REMARK  3 active torsions:
REMARK  status: ('A' for Active; 'I' for Inactive)
REMARK    1  A    between atoms: C_2  and  C_3
REMARK    2  A    between atoms: C_3  and  C_4
REMARK    3  A    between atoms: N_13  and  C_14
REMARK                            x       y       z     vdW  Elec       q    Type
REMARK                         _______ _______ _______ _____ _____    ______ ____
ROOT
ATOM      1  O   UNL     1       1.885   7.841  19.764  0.00  0.00    +0.000 OA
ATOM      2  C   UNL     1       2.173   8.015  18.581  0.00  0.00    +0.000 C 
ATOM      3  N   UNL     1       2.625   7.032  17.716  0.00  0.00    +0.000 N 
ATOM      4  H   UNL     1       3.063   7.325  16.845  0.00  0.00    +0.000 HD
ENDROOT
BRANCH   3   5
ATOM      5  C   UNL     1       2.779   5.659  18.017  0.00  0.00    +0.000 A 
ATOM      6  C   UNL     1       1.733   4.722  17.979  0.00  0.00    +0.000 A 
ATOM      7  C   UNL     1       1.935   3.385  18.344  0.00  0.00    +0.000 A 
ATOM      8  C   UNL     1       3.188   2.922  18.753  0.00  0.00    +0.000 A 
ATOM      9  C   UNL     1       4.227   3.852  18.739  0.00  0.00    +0.000 A 
ATOM     10  N   UNL     1       5.558   3.748  19.057  0.00  0.00    +0.000 N 
ATOM     11  C   UNL     1       6.135   4.973  18.862  0.00  0.00    +0.000 A 
ATOM     12  N   UNL     1       5.261   5.864  18.454  0.00  0.00    +0.000 NA
ATOM     13  C   UNL     1       4.062   5.185  18.374  0.00  0.00    +0.000 A 
ATOM     14  H   UNL     1       6.026   2.915  19.381  0.00  0.00    +0.000 HD
ENDBRANCH   3   5
BRANCH   2  15
ATOM     15  C   UNL     1       1.971   9.378  17.940  0.00  0.00    +0.000 C 
BRANCH  15  16
ATOM     16  C   UNL     1       0.933  10.232  18.595  0.00  0.00    +0.000 A 
ATOM     17  C   UNL     1       1.155  11.132  19.621  0.00  0.00    +0.000 A 
ATOM     18  N   UNL     1      -0.027  11.756  19.914  0.00  0.00    +0.000 N 
ATOM     19  C   UNL     1      -1.028  11.285  19.097  0.00  0.00    +0.000 A 
ATOM     20  C   UNL     1      -2.384  11.634  19.046  0.00  0.00    +0.000 A 
ATOM     21  C   UNL     1      -3.182  10.990  18.098  0.00  0.00    +0.000 A 
ATOM     22  C   UNL     1      -2.641  10.047  17.228  0.00  0.00    +0.000 A 
ATOM     23  C   UNL     1      -1.280   9.715  17.288  0.00  0.00    +0.000 A 
ATOM     24  C   UNL     1      -0.455  10.336  18.250  0.00  0.00    +0.000 A 
ATOM     25  H   UNL     1      -0.153  12.468  20.619  0.00  0.00    +0.000 HD
ENDBRANCH  15  16
ENDBRANCH   2  15
TORSDOF 3
ENDMDL
MODEL 2
REMARK VINA RESULT:      -7.7      2.306      7.222
REMARK  Name = 
REMARK  3 active torsions:
REMARK  status: ('A' for Active; 'I' for Inactive)
REMARK    1  A    between atoms: C_2  and  C_3
REMARK    2  A    between atoms: C_3  and  C_4
REMARK    3  A    between atoms: N_13  and  C_14
REMARK                            x       y       z     vdW  Elec       q    Type
REMARK                         _______ _______ _______ _____ _____    ______ ____
ROOT
ATOM      1  O   UNL     1       0.911   4.945  20.374  0.00  0.00    +0.000 OA
ATOM      2  C   UNL     1       2.065   5.367  20.438  0.00  0.00    +0.000 C 
ATOM      3  N   UNL     1       2.425   6.703  20.504  0.00  0.00    +0.000 N 
ATOM      4  H   UNL     1       3.392   6.949  20.306  0.00  0.00    +0.000 HD
ENDROOT
BRANCH   3   5
ATOM      5  C   UNL     1       1.541   7.805  20.569  0.00  0.00    +0.000 A 
ATOM      6  C   UNL     1       0.683   8.065  21.651  0.00  0.00    +0.000 A 
ATOM      7  C   UNL     1      -0.212   9.142  21.632  0.00  0.00    +0.000 A 
ATOM      8  C   UNL     1      -0.285  10.012  20.541  0.00  0.00    +0.000 A 
ATOM      9  C   UNL     1       0.606   9.770  19.496  0.00  0.00    +0.000 A 
ATOM     10  N   UNL     1       0.818  10.413  18.303  0.00  0.00    +0.000 N 
ATOM     11  C   UNL     1       1.823   9.759  17.644  0.00  0.00    +0.000 A 
ATOM     12  N   UNL     1       2.263   8.727  18.328  0.00  0.00    +0.000 NA
ATOM     13  C   UNL     1       1.513   8.714  19.486  0.00  0.00    +0.000 A 
ATOM     14  H   UNL     1       0.317  11.222  17.969  0.00  0.00    +0.000 HD
ENDBRANCH   3   5
BRANCH   2  15
ATOM     15  C   UNL     1       3.228   4.393  20.525  0.00  0.00    +0.000 C 
BRANCH  15  16
ATOM     16  C   UNL     1       3.721   3.884  19.208  0.00  0.00    +0.000 A 
ATOM     17  C   UNL     1       3.665   2.572  18.776  0.00  0.00    +0.000 A 
ATOM     18  N   UNL     1       4.167   2.513  17.504  0.00  0.00    +0.000 N 
ATOM     19  C   UNL     1       4.553   3.765  17.087  0.00  0.00    +0.000 A 
ATOM     20  C   UNL     1       5.117   4.173  15.871  0.00  0.00    +0.000 A 
ATOM     21  C   UNL     1       5.409   5.529  15.716  0.00  0.00    +0.000 A 
ATOM     22  C   UNL     1       5.134   6.442  16.731  0.00  0.00    +0.000 A 
ATOM     23  C   UNL     1       4.563   6.018  17.939  0.00  0.00    +0.000 A 
ATOM     24  C   UNL     1       4.276   4.650  18.130  0.00  0.00    +0.000 A 
ATOM     25  H   UNL     1       4.236   1.677  16.942  0.00  0.00    +0.000 HD
ENDBRANCH  15  16
ENDBRANCH   2  15
TORSDOF 3
ENDMDL
MODEL 3
REMARK VINA RESULT:      -7.6      5.860      8.363
REMARK  Name = 
REMARK  3 active torsions:
REMARK  status: ('A' for Active; 'I' for Inactive)
REMARK    1  A    between atoms: C_2  and  C_3
REMARK    2  A    between atoms: C_3  and  C_4
REMARK    3  A    between atoms: N_13  and  C_14
REMARK                            x       y       z     vdW  Elec       q    Type
REMARK                         _______ _______ _______ _____ _____    ______ ____
ROOT
ATOM      1  O   UNL     1       8.433   7.480  18.641  0.00  0.00    +0.000 OA
ATOM      2  C   UNL     1       7.860   8.161  17.791  0.00  0.00    +0.000 C 
ATOM      3  N   UNL     1       6.791   7.741  17.019  0.00  0.00    +0.000 N 
ATOM      4  H   UNL     1       6.556   8.283  16.190  0.00  0.00    +0.000 HD
ENDROOT
BRANCH   3   5
ATOM      5  C   UNL     1       6.135   6.491  17.108  0.00  0.00    +0.000 A 
ATOM      6  C   UNL     1       5.253   6.136  18.142  0.00  0.00    +0.000 A 
ATOM      7  C   UNL     1       4.677   4.860  18.207  0.00  0.00    +0.000 A 
ATOM      8  C   UNL     1       4.947   3.888  17.241  0.00  0.00    +0.000 A 
ATOM      9  C   UNL     1       5.786   4.271  16.194  0.00  0.00    +0.000 A 
ATOM     10  N   UNL     1       6.245   3.596  15.091  0.00  0.00    +0.000 N 
ATOM     11  C   UNL     1       7.045   4.448  14.379  0.00  0.00    +0.000 A 
ATOM     12  N   UNL     1       7.144   5.623  14.958  0.00  0.00    +0.000 NA
ATOM     13  C   UNL     1       6.367   5.532  16.095  0.00  0.00    +0.000 A 
ATOM     14  H   UNL     1       6.033   2.640  14.851  0.00  0.00    +0.000 HD
ENDBRANCH   3   5
BRANCH   2  15
ATOM     15  C   UNL     1       8.268   9.609  17.575  0.00  0.00    +0.000 C 
BRANCH  15  16
ATOM     16  C   UNL     1       9.039  10.220  18.701  0.00  0.00    +0.000 A 
ATOM     17  C   UNL     1       8.838   9.972  20.047  0.00  0.00    +0.000 A 
ATOM     18  N   UNL     1       9.769  10.676  20.760  0.00  0.00    +0.000 N 
ATOM     19  C   UNL     1      10.584  11.385  19.910  0.00  0.00    +0.000 A 
ATOM     20  C   UNL     1      11.659  12.236  20.196  0.00  0.00    +0.000 A 
ATOM     21  C   UNL     1      12.321  12.828  19.119  0.00  0.00    +0.000 A 
ATOM     22  C   UNL     1      11.932  12.566  17.808  0.00  0.00    +0.000 A 
ATOM     23  C   UNL     1      10.858  11.707  17.538  0.00  0.00    +0.000 A 
ATOM     24  C   UNL     1      10.159  11.111  18.609  0.00  0.00    +0.000 A 
ATOM     25  H   UNL     1       9.859  10.673  21.766  0.00  0.00    +0.000 HD
ENDBRANCH  15  16
ENDBRANCH   2  15
TORSDOF 3
ENDMDL
MODEL 4
REMARK VINA RESULT:      -7.5      2.357      7.531
REMARK  Name = 
REMARK  3 active torsions:
REMARK  status: ('A' for Active; 'I' for Inactive)
REMARK    1  A    between atoms: C_2  and  C_3
REMARK    2  A    between atoms: C_3  and  C_4
REMARK    3  A    between atoms: N_13  and  C_14
REMARK                            x       y       z     vdW  Elec       q    Type
REMARK                         _______ _______ _______ _____ _____    ______ ____
ROOT
ATOM      1  O   UNL     1       0.890   4.674  20.368  0.00  0.00    +0.000 OA
ATOM      2  C   UNL     1       2.068   5.027  20.345  0.00  0.00    +0.000 C 
ATOM      3  N   UNL     1       2.510   6.339  20.358  0.00  0.00    +0.000 N 
ATOM      4  H   UNL     1       3.475   6.523  20.090  0.00  0.00    +0.000 HD
ENDROOT
BRANCH   3   5
ATOM      5  C   UNL     1       1.699   7.493  20.460  0.00  0.00    +0.000 A 
ATOM      6  C   UNL     1       0.889   7.793  21.568  0.00  0.00    +0.000 A 
ATOM      7  C   UNL     1       0.063   8.924  21.587  0.00  0.00    +0.000 A 
ATOM      8  C   UNL     1       0.015   9.810  20.507  0.00  0.00    +0.000 A 
ATOM      9  C   UNL     1       0.860   9.526  19.435  0.00  0.00    +0.000 A 
ATOM     10  N   UNL     1       1.080  10.170  18.243  0.00  0.00    +0.000 N 
ATOM     11  C   UNL     1       2.024   9.463  17.550  0.00  0.00    +0.000 A 
ATOM     12  N   UNL     1       2.417   8.397  18.210  0.00  0.00    +0.000 NA
ATOM     13  C   UNL     1       1.699   8.416  19.388  0.00  0.00    +0.000 A 
ATOM     14  H   UNL     1       0.623  11.013  17.933  0.00  0.00    +0.000 HD
ENDBRANCH   3   5
BRANCH   2  15
ATOM     15  C   UNL     1       3.176   3.986  20.373  0.00  0.00    +0.000 C 
BRANCH  15  16
ATOM     16  C   UNL     1       3.938   3.845  19.095  0.00  0.00    +0.000 A 
ATOM     17  C   UNL     1       3.538   3.114  17.991  0.00  0.00    +0.000 A 
ATOM     18  N   UNL     1       4.475   3.270  17.006  0.00  0.00    +0.000 N 
ATOM     19  C   UNL     1       5.488   4.093  17.438  0.00  0.00    +0.000 A 
ATOM     20  C   UNL     1       6.644   4.522  16.773  0.00  0.00    +0.000 A 
ATOM     21  C   UNL     1       7.509   5.373  17.463  0.00  0.00    +0.000 A 
ATOM     22  C   UNL     1       7.221   5.790  18.761  0.00  0.00    +0.000 A 
ATOM     23  C   UNL     1       6.057   5.356  19.409  0.00  0.00    +0.000 A 
ATOM     24  C   UNL     1       5.175   4.480  18.742  0.00  0.00    +0.000 A 
ATOM     25  H   UNL     1       4.431   2.854  16.087  0.00  0.00    +0.000 HD
ENDBRANCH  15  16
ENDBRANCH   2  15
TORSDOF 3
ENDMDL
MODEL 5
REMARK VINA RESULT:      -7.3      2.294      7.529
REMARK  Name = 
REMARK  3 active torsions:
REMARK  status: ('A' for Active; 'I' for Inactive)
REMARK    1  A    between atoms: C_2  and  C_3
REMARK    2  A    between atoms: C_3  and  C_4
REMARK    3  A    between atoms: N_13  and  C_14
REMARK                            x       y       z     vdW  Elec       q    Type
REMARK                         _______ _______ _______ _____ _____    ______ ____
ROOT
ATOM      1  O   UNL     1       1.813   5.086  18.794  0.00  0.00    +0.000 OA
ATOM      2  C   UNL     1       2.867   5.601  19.168  0.00  0.00    +0.000 C 
ATOM      3  N   UNL     1       3.086   6.961  19.310  0.00  0.00    +0.000 N 
ATOM      4  H   UNL     1       4.047   7.287  19.384  0.00  0.00    +0.000 HD
ENDROOT
BRANCH   3   5
ATOM      5  C   UNL     1       2.132   7.987  19.110  0.00  0.00    +0.000 A 
ATOM      6  C   UNL     1       1.801   8.521  17.854  0.00  0.00    +0.000 A 
ATOM      7  C   UNL     1       0.889   9.577  17.726  0.00  0.00    +0.000 A 
ATOM      8  C   UNL     1       0.261  10.138  18.841  0.00  0.00    +0.000 A 
ATOM      9  C   UNL     1       0.563   9.565  20.076  0.00  0.00    +0.000 A 
ATOM     10  N   UNL     1       0.133   9.844  21.348  0.00  0.00    +0.000 N 
ATOM     11  C   UNL     1       0.745   8.969  22.203  0.00  0.00    +0.000 A 
ATOM     12  N   UNL     1       1.554   8.152  21.567  0.00  0.00    +0.000 NA
ATOM     13  C   UNL     1       1.458   8.510  20.237  0.00  0.00    +0.000 A 
ATOM     14  H   UNL     1      -0.518  10.570  21.607  0.00  0.00    +0.000 HD
ENDBRANCH   3   5
BRANCH   2  15
ATOM     15  C   UNL     1       4.034   4.724  19.590  0.00  0.00    +0.000 C 
BRANCH  15  16
ATOM     16  C   UNL     1       5.298   4.949  18.822  0.00  0.00    +0.000 A 
ATOM     17  C   UNL     1       6.497   5.393  19.349  0.00  0.00    +0.000 A 
ATOM     18  N   UNL     1       7.426   5.423  18.345  0.00  0.00    +0.000 N 
ATOM     19  C   UNL     1       6.863   5.004  17.163  0.00  0.00    +0.000 A 
ATOM     20  C   UNL     1       7.435   4.879  15.890  0.00  0.00    +0.000 A 
ATOM     21  C   UNL     1       6.618   4.417  14.856  0.00  0.00    +0.000 A 
ATOM     22  C   UNL     1       5.287   4.080  15.091  0.00  0.00    +0.000 A 
ATOM     23  C   UNL     1       4.733   4.205  16.372  0.00  0.00    +0.000 A 
ATOM     24  C   UNL     1       5.531   4.688  17.431  0.00  0.00    +0.000 A 
ATOM     25  H   UNL     1       8.392   5.700  18.451  0.00  0.00    +0.000 HD
ENDBRANCH  15  16
ENDBRANCH   2  15
TORSDOF 3
ENDMDL
MODEL 6
REMARK VINA RESULT:      -7.3      1.698      7.853
REMARK  Name = 
REMARK  3 active torsions:
REMARK  status: ('A' for Active; 'I' for Inactive)
REMARK    1  A    between atoms: C_2  and  C_3
REMARK    2  A    between atoms: C_3  and  C_4
REMARK    3  A    between atoms: N_13  and  C_14
REMARK                            x       y       z     vdW  Elec       q    Type
REMARK                         _______ _______ _______ _____ _____    ______ ____
ROOT
ATOM      1  O   UNL     1       2.093   8.949  17.406  0.00  0.00    +0.000 OA
ATOM      2  C   UNL     1       1.866   8.831  18.610  0.00  0.00    +0.000 C 
ATOM      3  N   UNL     1       1.282   9.798  19.412  0.00  0.00    +0.000 N 
ATOM      4  H   UNL     1       1.366   9.698  20.421  0.00  0.00    +0.000 HD
ENDROOT
BRANCH   3   5
ATOM      5  C   UNL     1       0.794  11.055  18.985  0.00  0.00    +0.000 A 
ATOM      6  C   UNL     1       1.567  12.227  18.939  0.00  0.00    +0.000 A 
ATOM      7  C   UNL     1       1.011  13.455  18.560  0.00  0.00    +0.000 A 
ATOM      8  C   UNL     1      -0.335  13.568  18.202  0.00  0.00    +0.000 A 
ATOM      9  C   UNL     1      -1.077  12.388  18.206  0.00  0.00    +0.000 A 
ATOM     10  N   UNL     1      -2.390  12.128  17.905  0.00  0.00    +0.000 N 
ATOM     11  C   UNL     1      -2.604  10.787  18.071  0.00  0.00    +0.000 A 
ATOM     12  N   UNL     1      -1.518  10.167  18.475  0.00  0.00    +0.000 NA
ATOM     13  C   UNL     1      -0.554  11.150  18.569  0.00  0.00    +0.000 A 
ATOM     14  H   UNL     1      -3.077  12.807  17.616  0.00  0.00    +0.000 HD
ENDBRANCH   3   5
BRANCH   2  15
ATOM     15  C   UNL     1       2.163   7.518  19.316  0.00  0.00    +0.000 C 
BRANCH  15  16
ATOM     16  C   UNL     1       2.852   6.494  18.473  0.00  0.00    +0.000 A 
ATOM     17  C   UNL     1       3.986   6.705  17.709  0.00  0.00    +0.000 A 
ATOM     18  N   UNL     1       4.341   5.519  17.125  0.00  0.00    +0.000 N 
ATOM     19  C   UNL     1       3.463   4.527  17.490  0.00  0.00    +0.000 A 
ATOM     20  C   UNL     1       3.438   3.172  17.133  0.00  0.00    +0.000 A 
ATOM     21  C   UNL     1       2.418   2.382  17.665  0.00  0.00    +0.000 A 
ATOM     22  C   UNL     1       1.471   2.922  18.532  0.00  0.00    +0.000 A 
ATOM     23  C   UNL     1       1.515   4.277  18.885  0.00  0.00    +0.000 A 
ATOM     24  C   UNL     1       2.523   5.104  18.346  0.00  0.00    +0.000 A 
ATOM     25  H   UNL     1       5.139   5.382  16.520  0.00  0.00    +0.000 HD
ENDBRANCH  15  16
ENDBRANCH   2  15
TORSDOF 3
ENDMDL
MODEL 7
REMARK VINA RESULT:      -7.3      2.064      2.716
REMARK  Name = 
REMARK  3 active torsions:
REMARK  status: ('A' for Active; 'I' for Inactive)
REMARK    1  A    between atoms: C_2  and  C_3
REMARK    2  A    between atoms: C_3  and  C_4
REMARK    3  A    between atoms: N_13  and  C_14
REMARK                            x       y       z     vdW  Elec       q    Type
REMARK                         _______ _______ _______ _____ _____    ______ ____
ROOT
ATOM      1  O   UNL     1       1.598   7.125  17.715  0.00  0.00    +0.000 OA
ATOM      2  C   UNL     1       2.044   7.648  18.736  0.00  0.00    +0.000 C 
ATOM      3  N   UNL     1       2.470   6.965  19.862  0.00  0.00    +0.000 N 
ATOM      4  H   UNL     1       2.586   7.490  20.726  0.00  0.00    +0.000 HD
ENDROOT
BRANCH   3   5
ATOM      5  C   UNL     1       2.524   5.560  20.018  0.00  0.00    +0.000 A 
ATOM      6  C   UNL     1       1.497   4.790  20.589  0.00  0.00    +0.000 A 
ATOM      7  C   UNL     1       1.633   3.407  20.767  0.00  0.00    +0.000 A 
ATOM      8  C   UNL     1       2.792   2.731  20.377  0.00  0.00    +0.000 A 
ATOM      9  C   UNL     1       3.782   3.500  19.767  0.00  0.00    +0.000 A 
ATOM     10  N   UNL     1       5.014   3.176  19.259  0.00  0.00    +0.000 N 
ATOM     11  C   UNL     1       5.583   4.320  18.768  0.00  0.00    +0.000 A 
ATOM     12  N   UNL     1       4.804   5.364  18.941  0.00  0.00    +0.000 NA
ATOM     13  C   UNL     1       3.676   4.874  19.567  0.00  0.00    +0.000 A 
ATOM     14  H   UNL     1       5.429   2.257  19.251  0.00  0.00    +0.000 HD
ENDBRANCH   3   5
BRANCH   2  15
ATOM     15  C   UNL     1       2.233   9.155  18.800  0.00  0.00    +0.000 C 
BRANCH  15  16
ATOM     16  C   UNL     1       1.074   9.909  19.368  0.00  0.00    +0.000 A 
ATOM     17  C   UNL     1       0.205  10.714  18.654  0.00  0.00    +0.000 A 
ATOM     18  N   UNL     1      -0.750  11.188  19.513  0.00  0.00    +0.000 N 
ATOM     19  C   UNL     1      -0.528  10.710  20.782  0.00  0.00    +0.000 A 
ATOM     20  C   UNL     1      -1.244  10.934  21.965  0.00  0.00    +0.000 A 
ATOM     21  C   UNL     1      -0.789  10.306  23.126  0.00  0.00    +0.000 A 
ATOM     22  C   UNL     1       0.329   9.475  23.100  0.00  0.00    +0.000 A 
ATOM     23  C   UNL     1       1.030   9.256  21.906  0.00  0.00    +0.000 A 
ATOM     24  C   UNL     1       0.603   9.894  20.723  0.00  0.00    +0.000 A 
ATOM     25  H   UNL     1      -1.517  11.793  19.257  0.00  0.00    +0.000 HD
ENDBRANCH  15  16
ENDBRANCH   2  15
TORSDOF 3
ENDMDL
MODEL 8
REMARK VINA RESULT:      -7.3      4.199      6.547
REMARK  Name = 
REMARK  3 active torsions:
REMARK  status: ('A' for Active; 'I' for Inactive)
REMARK    1  A    between atoms: C_2  and  C_3
REMARK    2  A    between atoms: C_3  and  C_4
REMARK    3  A    between atoms: N_13  and  C_14
REMARK                            x       y       z     vdW  Elec       q    Type
REMARK                         _______ _______ _______ _____ _____    ______ ____
ROOT
ATOM      1  O   UNL     1       1.977   7.103  18.140  0.00  0.00    +0.000 OA
ATOM      2  C   UNL     1       3.177   6.839  18.217  0.00  0.00    +0.000 C 
ATOM      3  N   UNL     1       3.715   5.761  18.900  0.00  0.00    +0.000 N 
ATOM      4  H   UNL     1       4.712   5.773  19.106  0.00  0.00    +0.000 HD
ENDROOT
BRANCH   3   5
ATOM      5  C   UNL     1       2.990   4.750  19.572  0.00  0.00    +0.000 A 
ATOM      6  C   UNL     1       2.506   4.868  20.886  0.00  0.00    +0.000 A 
ATOM      7  C   UNL     1       1.842   3.809  21.518  0.00  0.00    +0.000 A 
ATOM      8  C   UNL     1       1.624   2.592  20.868  0.00  0.00    +0.000 A 
ATOM      9  C   UNL     1       2.067   2.506  19.548  0.00  0.00    +0.000 A 
ATOM     10  N   UNL     1       2.010   1.494  18.624  0.00  0.00    +0.000 N 
ATOM     11  C   UNL     1       2.595   1.942  17.471  0.00  0.00    +0.000 A 
ATOM     12  N   UNL     1       3.038   3.173  17.596  0.00  0.00    +0.000 NA
ATOM     13  C   UNL     1       2.722   3.542  18.888  0.00  0.00    +0.000 A 
ATOM     14  H   UNL     1       1.611   0.580  18.771  0.00  0.00    +0.000 HD
ENDBRANCH   3   5
BRANCH   2  15
ATOM     15  C   UNL     1       4.192   7.685  17.467  0.00  0.00    +0.000 C 
BRANCH  15  16
ATOM     16  C   UNL     1       5.453   6.972  17.098  0.00  0.00    +0.000 A 
ATOM     17  C   UNL     1       6.683   7.133  17.710  0.00  0.00    +0.000 A 
ATOM     18  N   UNL     1       7.573   6.274  17.126  0.00  0.00    +0.000 N 
ATOM     19  C   UNL     1       6.954   5.545  16.138  0.00  0.00    +0.000 A 
ATOM     20  C   UNL     1       7.474   4.562  15.286  0.00  0.00    +0.000 A 
ATOM     21  C   UNL     1       6.602   3.976  14.367  0.00  0.00    +0.000 A 
ATOM     22  C   UNL     1       5.261   4.349  14.313  0.00  0.00    +0.000 A 
ATOM     23  C   UNL     1       4.756   5.329  15.177  0.00  0.00    +0.000 A 
ATOM     24  C   UNL     1       5.620   5.952  16.103  0.00  0.00    +0.000 A 
ATOM     25  H   UNL     1       8.545   6.174  17.385  0.00  0.00    +0.000 HD
ENDBRANCH  15  16
ENDBRANCH   2  15
TORSDOF 3
ENDMDL
MODEL 9
REMARK VINA RESULT:      -7.3      2.314      7.440
REMARK  Name = 
REMARK  3 active torsions:
REMARK  status: ('A' for Active; 'I' for Inactive)
REMARK    1  A    between atoms: C_2  and  C_3
REMARK    2  A    between atoms: C_3  and  C_4
REMARK    3  A    between atoms: N_13  and  C_14
REMARK                            x       y       z     vdW  Elec       q    Type
REMARK                         _______ _______ _______ _____ _____    ______ ____
ROOT
ATOM      1  O   UNL     1       2.362   7.293  20.212  0.00  0.00    +0.000 OA
ATOM      2  C   UNL     1       2.028   8.029  19.285  0.00  0.00    +0.000 C 
ATOM      3  N   UNL     1       1.163   9.106  19.391  0.00  0.00    +0.000 N 
ATOM      4  H   UNL     1       0.767   9.488  18.535  0.00  0.00    +0.000 HD
ENDROOT
BRANCH   3   5
ATOM      5  C   UNL     1       0.564   9.583  20.580  0.00  0.00    +0.000 A 
ATOM      6  C   UNL     1       0.044   8.754  21.588  0.00  0.00    +0.000 A 
ATOM      7  C   UNL     1      -0.589   9.286  22.718  0.00  0.00    +0.000 A 
ATOM      8  C   UNL     1      -0.725  10.666  22.897  0.00  0.00    +0.000 A 
ATOM      9  C   UNL     1      -0.161  11.476  21.912  0.00  0.00    +0.000 A 
ATOM     10  N   UNL     1      -0.094  12.839  21.771  0.00  0.00    +0.000 N 
ATOM     11  C   UNL     1       0.580  13.111  20.612  0.00  0.00    +0.000 A 
ATOM     12  N   UNL     1       0.939  12.013  19.988  0.00  0.00    +0.000 NA
ATOM     13  C   UNL     1       0.482  10.980  20.782  0.00  0.00    +0.000 A 
ATOM     14  H   UNL     1      -0.478  13.520  22.409  0.00  0.00    +0.000 HD
ENDBRANCH   3   5
BRANCH   2  15
ATOM     15  C   UNL     1       2.632   7.836  17.904  0.00  0.00    +0.000 C 
BRANCH  15  16
ATOM     16  C   UNL     1       3.426   6.580  17.736  0.00  0.00    +0.000 A 
ATOM     17  C   UNL     1       4.796   6.507  17.556  0.00  0.00    +0.000 A 
ATOM     18  N   UNL     1       5.154   5.188  17.493  0.00  0.00    +0.000 N 
ATOM     19  C   UNL     1       4.045   4.386  17.629  0.00  0.00    +0.000 A 
ATOM     20  C   UNL     1       3.940   2.989  17.622  0.00  0.00    +0.000 A 
ATOM     21  C   UNL     1       2.669   2.436  17.789  0.00  0.00    +0.000 A 
ATOM     22  C   UNL     1       1.552   3.247  17.970  0.00  0.00    +0.000 A 
ATOM     23  C   UNL     1       1.676   4.643  17.980  0.00  0.00    +0.000 A 
ATOM     24  C   UNL     1       2.946   5.230  17.794  0.00  0.00    +0.000 A 
ATOM     25  H   UNL     1       6.096   4.844  17.375  0.00  0.00    +0.000 HD
ENDBRANCH  15  16
ENDBRANCH   2  15
TORSDOF 3
ENDMDL
