MODEL 1
REMARK VINA RESULT:      -8.1      0.000      0.000
REMARK  Name = 
REMARK  4 active torsions:
REMARK  status: ('A' for Active; 'I' for Inactive)
REMARK    1  A    between atoms: C_1  and  C_2
REMARK    2  A    between atoms: C_7  and  C_9
REMARK    3  A    between atoms: C_13  and  C_15
REMARK    4  A    between atoms: C_22  and  C_23
REMARK                            x       y       z     vdW  Elec       q    Type
REMARK                         _______ _______ _______ _____ _____    ______ ____
ROOT
ATOM      1  C   UNL     1       0.620   9.917  18.885  0.00  0.00    +0.000 C 
ATOM      2  C   UNL     1       0.534   9.252  20.268  0.00  0.00    +0.000 C 
ATOM      3  C   UNL     1       1.800   8.471  20.640  0.00  0.00    +0.000 C 
ATOM      4  N   UNL     1       2.188   7.558  19.565  0.00  0.00    +0.000 N 
ATOM      5  C   UNL     1       2.349   6.188  19.849  0.00  0.00    +0.000 C 
ATOM      6  O   UNL     1       2.160   5.754  20.985  0.00  0.00    +0.000 OA
ATOM      7  C   UNL     1       2.422   8.236  18.291  0.00  0.00    +0.000 C 
ATOM      8  C   UNL     1       1.106   8.887  17.837  0.00  0.00    +0.000 C 
ENDROOT
BRANCH   1  15
ATOM      9  C   UNL     1       4.314  16.892  20.045  0.00  0.00    +0.000 C 
ATOM     10  C   UNL     1       3.497  15.642  20.039  0.00  0.00    +0.000 A 
ATOM     11  C   UNL     1       2.475  15.395  20.955  0.00  0.00    +0.000 A 
ATOM     12  C   UNL     1       1.746  14.202  20.883  0.00  0.00    +0.000 A 
ATOM     13  C   UNL     1       2.059  13.284  19.892  0.00  0.00    +0.000 A 
ATOM     14  N   UNL     1       1.321  12.088  19.807  0.00  0.00    +0.000 N 
ATOM     15  C   UNL     1       1.527  11.154  18.812  0.00  0.00    +0.000 C 
ATOM     16  O   UNL     1       2.306  11.278  17.872  0.00  0.00    +0.000 OA
ATOM     17  N   UNL     1       3.051  13.511  19.015  0.00  0.00    +0.000 NA
ATOM     18  C   UNL     1       3.742  14.664  19.092  0.00  0.00    +0.000 A 
ATOM     19  H   UNL     1       0.580  11.949  20.479  0.00  0.00    +0.000 HD
ENDBRANCH   1  15
BRANCH   5  20
ATOM     20  C   UNL     1       2.673   5.213  18.757  0.00  0.00    +0.000 A 
ATOM     21  C   UNL     1       1.643   4.392  18.261  0.00  0.00    +0.000 A 
ATOM     22  C   UNL     1       1.868   3.515  17.211  0.00  0.00    +0.000 A 
ATOM     23  C   UNL     1       3.154   3.368  16.720  0.00  0.00    +0.000 A 
ATOM     24  C   UNL     1       4.216   4.091  17.284  0.00  0.00    +0.000 A 
ATOM     25  C   UNL     1       5.519   3.847  16.835  0.00  0.00    +0.000 A 
ATOM     26  C   UNL     1       6.587   4.526  17.398  0.00  0.00    +0.000 A 
ATOM     27  C   UNL     1       6.321   5.463  18.379  0.00  0.00    +0.000 A 
ATOM     28  C   UNL     1       7.436   6.217  19.041  0.00  0.00    +0.000 C 
ATOM     29  N   UNL     1       5.062   5.738  18.803  0.00  0.00    +0.000 NA
ATOM     30  C   UNL     1       4.002   5.049  18.307  0.00  0.00    +0.000 A 
ENDBRANCH   5  20
TORSDOF 2
ENDMDL
MODEL 2
REMARK VINA RESULT:      -7.8      1.141      1.380
REMARK  Name = 
REMARK  4 active torsions:
REMARK  status: ('A' for Active; 'I' for Inactive)
REMARK    1  A    between atoms: C_1  and  C_2
REMARK    2  A    between atoms: C_7  and  C_9
REMARK    3  A    between atoms: C_13  and  C_15
REMARK    4  A    between atoms: C_22  and  C_23
REMARK                            x       y       z     vdW  Elec       q    Type
REMARK                         _______ _______ _______ _____ _____    ______ ____
ROOT
ATOM      1  C   UNL     1       0.220   9.543  20.149  0.00  0.00    +0.000 C 
ATOM      2  C   UNL     1       0.223   8.599  21.362  0.00  0.00    +0.000 C 
ATOM      3  C   UNL     1       1.551   7.854  21.542  0.00  0.00    +0.000 C 
ATOM      4  N   UNL     1       1.970   7.219  20.293  0.00  0.00    +0.000 N 
ATOM      5  C   UNL     1       2.237   5.836  20.279  0.00  0.00    +0.000 C 
ATOM      6  O   UNL     1       2.113   5.160  21.300  0.00  0.00    +0.000 OA
ATOM      7  C   UNL     1       2.118   8.165  19.187  0.00  0.00    +0.000 C 
ATOM      8  C   UNL     1       0.746   8.795  18.901  0.00  0.00    +0.000 C 
ENDROOT
BRANCH   1  15
ATOM      9  C   UNL     1       4.329  16.308  19.147  0.00  0.00    +0.000 C 
ATOM     10  C   UNL     1       3.524  15.052  19.086  0.00  0.00    +0.000 A 
ATOM     11  C   UNL     1       3.091  14.481  17.889  0.00  0.00    +0.000 A 
ATOM     12  C   UNL     1       2.345  13.297  17.909  0.00  0.00    +0.000 A 
ATOM     13  C   UNL     1       2.051  12.711  19.131  0.00  0.00    +0.000 A 
ATOM     14  N   UNL     1       1.312  11.512  19.157  0.00  0.00    +0.000 N 
ATOM     15  C   UNL     1       1.035  10.833  20.326  0.00  0.00    +0.000 C 
ATOM     16  O   UNL     1       1.441  11.143  21.441  0.00  0.00    +0.000 OA
ATOM     17  N   UNL     1       2.455  13.262  20.288  0.00  0.00    +0.000 NA
ATOM     18  C   UNL     1       3.175  14.399  20.255  0.00  0.00    +0.000 A 
ATOM     19  H   UNL     1       1.027  11.122  18.271  0.00  0.00    +0.000 HD
ENDBRANCH   1  15
BRANCH   5  20
ATOM     20  C   UNL     1       2.596   5.139  19.001  0.00  0.00    +0.000 A 
ATOM     21  C   UNL     1       1.571   4.509  18.268  0.00  0.00    +0.000 A 
ATOM     22  C   UNL     1       1.832   3.901  17.049  0.00  0.00    +0.000 A 
ATOM     23  C   UNL     1       3.141   3.818  16.605  0.00  0.00    +0.000 A 
ATOM     24  C   UNL     1       4.189   4.334  17.381  0.00  0.00    +0.000 A 
ATOM     25  C   UNL     1       5.508   4.145  16.955  0.00  0.00    +0.000 A 
ATOM     26  C   UNL     1       6.562   4.619  17.721  0.00  0.00    +0.000 A 
ATOM     27  C   UNL     1       6.266   5.303  18.885  0.00  0.00    +0.000 A 
ATOM     28  C   UNL     1       7.362   5.824  19.767  0.00  0.00    +0.000 C 
ATOM     29  N   UNL     1       4.992   5.525  19.297  0.00  0.00    +0.000 NA
ATOM     30  C   UNL     1       3.943   5.026  18.594  0.00  0.00    +0.000 A 
ENDBRANCH   5  20
TORSDOF 2
ENDMDL
MODEL 3
REMARK VINA RESULT:      -7.6      6.551      9.450
REMARK  Name = 
REMARK  4 active torsions:
REMARK  status: ('A' for Active; 'I' for Inactive)
REMARK    1  A    between atoms: C_1  and  C_2
REMARK    2  A    between atoms: C_7  and  C_9
REMARK    3  A    between atoms: C_13  and  C_15
REMARK    4  A    between atoms: C_22  and  C_23
REMARK                            x       y       z     vdW  Elec       q    Type
REMARK                         _______ _______ _______ _____ _____    ______ ____
ROOT
ATOM      1  C   UNL     1       5.766  16.086  22.349  0.00  0.00    +0.000 C 
ATOM      2  C   UNL     1       4.843  16.065  21.121  0.00  0.00    +0.000 C 
ATOM      3  C   UNL     1       5.160  14.921  20.150  0.00  0.00    +0.000 C 
ATOM      4  N   UNL     1       6.586  14.889  19.823  0.00  0.00    +0.000 N 
ATOM      5  C   UNL     1       6.985  14.938  18.474  0.00  0.00    +0.000 C 
ATOM      6  O   UNL     1       6.150  15.015  17.573  0.00  0.00    +0.000 OA
ATOM      7  C   UNL     1       7.442  14.746  21.000  0.00  0.00    +0.000 C 
ATOM      8  C   UNL     1       7.243  15.976  21.899  0.00  0.00    +0.000 C 
ENDROOT
BRANCH   1  15
ATOM      9  C   UNL     1       6.206  10.610  28.135  0.00  0.00    +0.000 C 
ATOM     10  C   UNL     1       6.365  11.682  27.108  0.00  0.00    +0.000 A 
ATOM     11  C   UNL     1       7.585  12.298  26.831  0.00  0.00    +0.000 A 
ATOM     12  C   UNL     1       7.659  13.290  25.847  0.00  0.00    +0.000 A 
ATOM     13  C   UNL     1       6.506  13.642  25.162  0.00  0.00    +0.000 A 
ATOM     14  N   UNL     1       6.577  14.632  24.162  0.00  0.00    +0.000 N 
ATOM     15  C   UNL     1       5.490  14.991  23.391  0.00  0.00    +0.000 C 
ATOM     16  O   UNL     1       4.383  14.464  23.434  0.00  0.00    +0.000 OA
ATOM     17  N   UNL     1       5.326  13.061  25.432  0.00  0.00    +0.000 NA
ATOM     18  C   UNL     1       5.268  12.105  26.378  0.00  0.00    +0.000 A 
ATOM     19  H   UNL     1       7.479  15.046  23.980  0.00  0.00    +0.000 HD
ENDBRANCH   1  15
BRANCH   5  20
ATOM     20  C   UNL     1       8.437  14.982  18.106  0.00  0.00    +0.000 A 
ATOM     21  C   UNL     1       8.999  16.218  17.732  0.00  0.00    +0.000 A 
ATOM     22  C   UNL     1      10.349  16.333  17.441  0.00  0.00    +0.000 A 
ATOM     23  C   UNL     1      11.131  15.191  17.411  0.00  0.00    +0.000 A 
ATOM     24  C   UNL     1      10.562  13.934  17.663  0.00  0.00    +0.000 A 
ATOM     25  C   UNL     1      11.354  12.788  17.525  0.00  0.00    +0.000 A 
ATOM     26  C   UNL     1      10.805  11.533  17.739  0.00  0.00    +0.000 A 
ATOM     27  C   UNL     1       9.479  11.457  18.120  0.00  0.00    +0.000 A 
ATOM     28  C   UNL     1       8.822  10.128  18.347  0.00  0.00    +0.000 C 
ATOM     29  N   UNL     1       8.705  12.559  18.291  0.00  0.00    +0.000 NA
ATOM     30  C   UNL     1       9.201  13.796  18.037  0.00  0.00    +0.000 A 
ENDBRANCH   5  20
TORSDOF 2
ENDMDL
MODEL 4
REMARK VINA RESULT:      -7.5      5.703     10.337
REMARK  Name = 
REMARK  4 active torsions:
REMARK  status: ('A' for Active; 'I' for Inactive)
REMARK    1  A    between atoms: C_1  and  C_2
REMARK    2  A    between atoms: C_7  and  C_9
REMARK    3  A    between atoms: C_13  and  C_15
REMARK    4  A    between atoms: C_22  and  C_23
REMARK                            x       y       z     vdW  Elec       q    Type
REMARK                         _______ _______ _______ _____ _____    ______ ____
ROOT
ATOM      1  C   UNL     1      -0.346  12.914  21.904  0.00  0.00    +0.000 C 
ATOM      2  C   UNL     1      -1.190  12.951  23.188  0.00  0.00    +0.000 C 
ATOM      3  C   UNL     1      -2.585  12.339  23.010  0.00  0.00    +0.000 C 
ATOM      4  N   UNL     1      -3.259  12.900  21.838  0.00  0.00    +0.000 N 
ATOM      5  C   UNL     1      -4.527  13.491  21.991  0.00  0.00    +0.000 C 
ATOM      6  O   UNL     1      -5.068  13.546  23.095  0.00  0.00    +0.000 OA
ATOM      7  C   UNL     1      -2.509  12.710  20.597  0.00  0.00    +0.000 C 
ATOM      8  C   UNL     1      -1.174  13.461  20.716  0.00  0.00    +0.000 C 
ENDROOT
BRANCH   1  15
ATOM      9  C   UNL     1       2.609   6.510  18.174  0.00  0.00    +0.000 C 
ATOM     10  C   UNL     1       2.085   7.825  18.651  0.00  0.00    +0.000 A 
ATOM     11  C   UNL     1       1.884   8.917  17.807  0.00  0.00    +0.000 A 
ATOM     12  C   UNL     1       1.381  10.116  18.324  0.00  0.00    +0.000 A 
ATOM     13  C   UNL     1       1.092  10.193  19.678  0.00  0.00    +0.000 A 
ATOM     14  N   UNL     1       0.575  11.394  20.202  0.00  0.00    +0.000 N 
ATOM     15  C   UNL     1       0.200  11.530  21.523  0.00  0.00    +0.000 C 
ATOM     16  O   UNL     1       0.209  10.632  22.360  0.00  0.00    +0.000 OA
ATOM     17  N   UNL     1       1.295   9.149  20.498  0.00  0.00    +0.000 NA
ATOM     18  C   UNL     1       1.775   7.999  19.988  0.00  0.00    +0.000 A 
ATOM     19  H   UNL     1       0.430  12.158  19.559  0.00  0.00    +0.000 HD
ENDBRANCH   1  15
BRANCH   5  20
ATOM     20  C   UNL     1      -5.213  14.142  20.828  0.00  0.00    +0.000 A 
ATOM     21  C   UNL     1      -5.252  15.549  20.771  0.00  0.00    +0.000 A 
ATOM     22  C   UNL     1      -5.818  16.207  19.690  0.00  0.00    +0.000 A 
ATOM     23  C   UNL     1      -6.453  15.466  18.708  0.00  0.00    +0.000 A 
ATOM     24  C   UNL     1      -6.529  14.069  18.810  0.00  0.00    +0.000 A 
ATOM     25  C   UNL     1      -7.264  13.356  17.856  0.00  0.00    +0.000 A 
ATOM     26  C   UNL     1      -7.380  11.979  17.953  0.00  0.00    +0.000 A 
ATOM     27  C   UNL     1      -6.725  11.340  18.990  0.00  0.00    +0.000 A 
ATOM     28  C   UNL     1      -6.827   9.854  19.161  0.00  0.00    +0.000 C 
ATOM     29  N   UNL     1      -5.980  12.011  19.905  0.00  0.00    +0.000 NA
ATOM     30  C   UNL     1      -5.894  13.366  19.865  0.00  0.00    +0.000 A 
ENDBRANCH   5  20
TORSDOF 2
ENDMDL
MODEL 5
REMARK VINA RESULT:      -7.4      4.662      9.882
REMARK  Name = 
REMARK  4 active torsions:
REMARK  status: ('A' for Active; 'I' for Inactive)
REMARK    1  A    between atoms: C_1  and  C_2
REMARK    2  A    between atoms: C_7  and  C_9
REMARK    3  A    between atoms: C_13  and  C_15
REMARK    4  A    between atoms: C_22  and  C_23
REMARK                            x       y       z     vdW  Elec       q    Type
REMARK                         _______ _______ _______ _____ _____    ______ ____
ROOT
ATOM      1  C   UNL     1       1.066  10.284  18.409  0.00  0.00    +0.000 C 
ATOM      2  C   UNL     1       1.074  11.486  19.366  0.00  0.00    +0.000 C 
ATOM      3  C   UNL     1      -0.077  11.457  20.379  0.00  0.00    +0.000 C 
ATOM      4  N   UNL     1      -1.360  11.238  19.710  0.00  0.00    +0.000 N 
ATOM      5  C   UNL     1      -2.407  12.158  19.909  0.00  0.00    +0.000 C 
ATOM      6  O   UNL     1      -2.251  13.143  20.631  0.00  0.00    +0.000 OA
ATOM      7  C   UNL     1      -1.399  10.001  18.931  0.00  0.00    +0.000 C 
ATOM      8  C   UNL     1      -0.350  10.097  17.813  0.00  0.00    +0.000 C 
ENDROOT
BRANCH   1  15
ATOM      9  C   UNL     1       3.943   2.981  19.841  0.00  0.00    +0.000 C 
ATOM     10  C   UNL     1       3.490   4.313  19.338  0.00  0.00    +0.000 A 
ATOM     11  C   UNL     1       3.587   4.696  18.001  0.00  0.00    +0.000 A 
ATOM     12  C   UNL     1       3.133   5.959  17.603  0.00  0.00    +0.000 A 
ATOM     13  C   UNL     1       2.593   6.809  18.556  0.00  0.00    +0.000 A 
ATOM     14  N   UNL     1       2.124   8.076  18.158  0.00  0.00    +0.000 N 
ATOM     15  C   UNL     1       1.513   8.953  19.032  0.00  0.00    +0.000 C 
ATOM     16  O   UNL     1       1.252   8.717  20.208  0.00  0.00    +0.000 OA
ATOM     17  N   UNL     1       2.508   6.450  19.847  0.00  0.00    +0.000 NA
ATOM     18  C   UNL     1       2.943   5.231  20.217  0.00  0.00    +0.000 A 
ATOM     19  H   UNL     1       2.198   8.314  17.180  0.00  0.00    +0.000 HD
ENDBRANCH   1  15
BRANCH   5  20
ATOM     20  C   UNL     1      -3.709  12.006  19.181  0.00  0.00    +0.000 A 
ATOM     21  C   UNL     1      -3.682  11.839  17.783  0.00  0.00    +0.000 A 
ATOM     22  C   UNL     1      -4.849  11.632  17.064  0.00  0.00    +0.000 A 
ATOM     23  C   UNL     1      -6.066  11.703  17.720  0.00  0.00    +0.000 A 
ATOM     24  C   UNL     1      -6.117  11.989  19.093  0.00  0.00    +0.000 A 
ATOM     25  C   UNL     1      -7.364  12.155  19.707  0.00  0.00    +0.000 A 
ATOM     26  C   UNL     1      -7.439  12.468  21.055  0.00  0.00    +0.000 A 
ATOM     27  C   UNL     1      -6.258  12.576  21.767  0.00  0.00    +0.000 A 
ATOM     28  C   UNL     1      -6.272  12.931  23.224  0.00  0.00    +0.000 C 
ATOM     29  N   UNL     1      -5.042  12.385  21.196  0.00  0.00    +0.000 NA
ATOM     30  C   UNL     1      -4.937  12.130  19.866  0.00  0.00    +0.000 A 
ENDBRANCH   5  20
TORSDOF 2
ENDMDL
MODEL 6
REMARK VINA RESULT:      -7.4      1.806      2.854
REMARK  Name = 
REMARK  4 active torsions:
REMARK  status: ('A' for Active; 'I' for Inactive)
REMARK    1  A    between atoms: C_1  and  C_2
REMARK    2  A    between atoms: C_7  and  C_9
REMARK    3  A    between atoms: C_13  and  C_15
REMARK    4  A    between atoms: C_22  and  C_23
REMARK                            x       y       z     vdW  Elec       q    Type
REMARK                         _______ _______ _______ _____ _____    ______ ____
ROOT
ATOM      1  C   UNL     1      -0.547  10.294  18.755  0.00  0.00    +0.000 C 
ATOM      2  C   UNL     1      -0.620   9.461  20.045  0.00  0.00    +0.000 C 
ATOM      3  C   UNL     1       0.759   9.092  20.603  0.00  0.00    +0.000 C 
ATOM      4  N   UNL     1       1.606   8.505  19.564  0.00  0.00    +0.000 N 
ATOM      5  C   UNL     1       2.181   7.238  19.778  0.00  0.00    +0.000 C 
ATOM      6  O   UNL     1       1.972   6.620  20.822  0.00  0.00    +0.000 OA
ATOM      7  C   UNL     1       1.794   9.385  18.411  0.00  0.00    +0.000 C 
ATOM      8  C   UNL     1       0.427   9.626  17.754  0.00  0.00    +0.000 C 
ENDROOT
BRANCH   1  15
ATOM      9  C   UNL     1       3.271  17.298  18.886  0.00  0.00    +0.000 C 
ATOM     10  C   UNL     1       2.756  15.905  18.731  0.00  0.00    +0.000 A 
ATOM     11  C   UNL     1       3.500  14.877  18.154  0.00  0.00    +0.000 A 
ATOM     12  C   UNL     1       2.953  13.593  18.050  0.00  0.00    +0.000 A 
ATOM     13  C   UNL     1       1.670  13.369  18.528  0.00  0.00    +0.000 A 
ATOM     14  N   UNL     1       1.120  12.076  18.437  0.00  0.00    +0.000 N 
ATOM     15  C   UNL     1      -0.121  11.757  18.948  0.00  0.00    +0.000 C 
ATOM     16  O   UNL     1      -0.846  12.519  19.582  0.00  0.00    +0.000 OA
ATOM     17  N   UNL     1       0.945  14.358  19.073  0.00  0.00    +0.000 NA
ATOM     18  C   UNL     1       1.483  15.588  19.172  0.00  0.00    +0.000 A 
ATOM     19  H   UNL     1       1.693  11.354  18.025  0.00  0.00    +0.000 HD
ENDBRANCH   1  15
BRANCH   5  20
ATOM     20  C   UNL     1       2.992   6.574  18.706  0.00  0.00    +0.000 A 
ATOM     21  C   UNL     1       3.884   7.362  17.953  0.00  0.00    +0.000 A 
ATOM     22  C   UNL     1       4.705   6.793  16.991  0.00  0.00    +0.000 A 
ATOM     23  C   UNL     1       4.561   5.449  16.693  0.00  0.00    +0.000 A 
ATOM     24  C   UNL     1       3.593   4.675  17.349  0.00  0.00    +0.000 A 
ATOM     25  C   UNL     1       3.403   3.346  16.955  0.00  0.00    +0.000 A 
ATOM     26  C   UNL     1       2.431   2.571  17.568  0.00  0.00    +0.000 A 
ATOM     27  C   UNL     1       1.692   3.138  18.589  0.00  0.00    +0.000 A 
ATOM     28  C   UNL     1       0.613   2.358  19.279  0.00  0.00    +0.000 C 
ATOM     29  N   UNL     1       1.885   4.414  19.008  0.00  0.00    +0.000 NA
ATOM     30  C   UNL     1       2.793   5.212  18.389  0.00  0.00    +0.000 A 
ENDBRANCH   5  20
TORSDOF 2
ENDMDL
MODEL 7
REMARK VINA RESULT:      -7.3      3.605      9.253
REMARK  Name = 
REMARK  4 active torsions:
REMARK  status: ('A' for Active; 'I' for Inactive)
REMARK    1  A    between atoms: C_1  and  C_2
REMARK    2  A    between atoms: C_7  and  C_9
REMARK    3  A    between atoms: C_13  and  C_15
REMARK    4  A    between atoms: C_22  and  C_23
REMARK                            x       y       z     vdW  Elec       q    Type
REMARK                         _______ _______ _______ _____ _____    ______ ____
ROOT
ATOM      1  C   UNL     1       1.162   9.488  17.928  0.00  0.00    +0.000 C 
ATOM      2  C   UNL     1       1.776  10.851  18.285  0.00  0.00    +0.000 C 
ATOM      3  C   UNL     1       1.347  11.362  19.666  0.00  0.00    +0.000 C 
ATOM      4  N   UNL     1      -0.108  11.307  19.817  0.00  0.00    +0.000 N 
ATOM      5  C   UNL     1      -0.808  12.477  20.166  0.00  0.00    +0.000 C 
ATOM      6  O   UNL     1      -0.213  13.541  20.336  0.00  0.00    +0.000 OA
ATOM      7  C   UNL     1      -0.655   9.964  19.630  0.00  0.00    +0.000 C 
ATOM      8  C   UNL     1      -0.363   9.515  18.191  0.00  0.00    +0.000 C 
ENDROOT
BRANCH   1  15
ATOM      9  C   UNL     1       4.393   2.499  20.019  0.00  0.00    +0.000 C 
ATOM     10  C   UNL     1       3.814   3.724  19.391  0.00  0.00    +0.000 A 
ATOM     11  C   UNL     1       3.574   3.839  18.022  0.00  0.00    +0.000 A 
ATOM     12  C   UNL     1       3.021   5.017  17.507  0.00  0.00    +0.000 A 
ATOM     13  C   UNL     1       2.721   6.054  18.377  0.00  0.00    +0.000 A 
ATOM     14  N   UNL     1       2.153   7.237  17.865  0.00  0.00    +0.000 N 
ATOM     15  C   UNL     1       1.765   8.287  18.671  0.00  0.00    +0.000 C 
ATOM     16  O   UNL     1       1.805   8.293  19.898  0.00  0.00    +0.000 OA
ATOM     17  N   UNL     1       2.961   5.954  19.694  0.00  0.00    +0.000 NA
ATOM     18  C   UNL     1       3.489   4.815  20.179  0.00  0.00    +0.000 A 
ATOM     19  H   UNL     1       1.981   7.278  16.871  0.00  0.00    +0.000 HD
ENDBRANCH   1  15
BRANCH   5  20
ATOM     20  C   UNL     1      -2.305  12.475  20.256  0.00  0.00    +0.000 A 
ATOM     21  C   UNL     1      -2.903  12.720  21.507  0.00  0.00    +0.000 A 
ATOM     22  C   UNL     1      -4.282  12.791  21.640  0.00  0.00    +0.000 A 
ATOM     23  C   UNL     1      -5.079  12.506  20.545  0.00  0.00    +0.000 A 
ATOM     24  C   UNL     1      -4.501  12.141  19.320  0.00  0.00    +0.000 A 
ATOM     25  C   UNL     1      -5.333  11.760  18.261  0.00  0.00    +0.000 A 
ATOM     26  C   UNL     1      -4.783  11.366  17.052  0.00  0.00    +0.000 A 
ATOM     27  C   UNL     1      -3.407  11.395  16.920  0.00  0.00    +0.000 A 
ATOM     28  C   UNL     1      -2.751  10.962  15.643  0.00  0.00    +0.000 C 
ATOM     29  N   UNL     1      -2.587  11.794  17.924  0.00  0.00    +0.000 NA
ATOM     30  C   UNL     1      -3.095  12.134  19.136  0.00  0.00    +0.000 A 
ENDBRANCH   5  20
TORSDOF 2
ENDMDL
MODEL 8
REMARK VINA RESULT:      -7.2      3.693      4.935
REMARK  Name = 
REMARK  4 active torsions:
REMARK  status: ('A' for Active; 'I' for Inactive)
REMARK    1  A    between atoms: C_1  and  C_2
REMARK    2  A    between atoms: C_7  and  C_9
REMARK    3  A    between atoms: C_13  and  C_15
REMARK    4  A    between atoms: C_22  and  C_23
REMARK                            x       y       z     vdW  Elec       q    Type
REMARK                         _______ _______ _______ _____ _____    ______ ____
ROOT
ATOM      1  C   UNL     1       0.779  11.621  20.946  0.00  0.00    +0.000 C 
ATOM      2  C   UNL     1       1.421  11.794  19.561  0.00  0.00    +0.000 C 
ATOM      3  C   UNL     1       1.017  10.698  18.568  0.00  0.00    +0.000 C 
ATOM      4  N   UNL     1       1.205   9.368  19.149  0.00  0.00    +0.000 N 
ATOM      5  C   UNL     1       2.005   8.428  18.472  0.00  0.00    +0.000 C 
ATOM      6  O   UNL     1       2.549   8.715  17.406  0.00  0.00    +0.000 OA
ATOM      7  C   UNL     1       0.454   9.170  20.388  0.00  0.00    +0.000 C 
ATOM      8  C   UNL     1       0.972  10.166  21.436  0.00  0.00    +0.000 C 
ENDROOT
BRANCH   1  15
ATOM      9  C   UNL     1      -6.699  13.229  23.216  0.00  0.00    +0.000 C 
ATOM     10  C   UNL     1      -5.249  12.920  23.038  0.00  0.00    +0.000 A 
ATOM     11  C   UNL     1      -4.394  12.633  24.102  0.00  0.00    +0.000 A 
ATOM     12  C   UNL     1      -3.047  12.344  23.857  0.00  0.00    +0.000 A 
ATOM     13  C   UNL     1      -2.587  12.349  22.548  0.00  0.00    +0.000 A 
ATOM     14  N   UNL     1      -1.235  12.047  22.295  0.00  0.00    +0.000 N 
ATOM     15  C   UNL     1      -0.716  11.967  21.019  0.00  0.00    +0.000 C 
ATOM     16  O   UNL     1      -1.362  12.079  19.981  0.00  0.00    +0.000 OA
ATOM     17  N   UNL     1      -3.403  12.636  21.521  0.00  0.00    +0.000 NA
ATOM     18  C   UNL     1      -4.698  12.908  21.769  0.00  0.00    +0.000 A 
ATOM     19  H   UNL     1      -0.650  11.832  23.088  0.00  0.00    +0.000 HD
ENDBRANCH   1  15
BRANCH   5  20
ATOM     20  C   UNL     1       2.280   7.083  19.074  0.00  0.00    +0.000 A 
ATOM     21  C   UNL     1       1.717   6.779  20.328  0.00  0.00    +0.000 A 
ATOM     22  C   UNL     1       1.885   5.530  20.906  0.00  0.00    +0.000 A 
ATOM     23  C   UNL     1       2.714   4.609  20.288  0.00  0.00    +0.000 A 
ATOM     24  C   UNL     1       3.379   4.938  19.098  0.00  0.00    +0.000 A 
ATOM     25  C   UNL     1       4.288   4.024  18.551  0.00  0.00    +0.000 A 
ATOM     26  C   UNL     1       4.980   4.340  17.393  0.00  0.00    +0.000 A 
ATOM     27  C   UNL     1       4.720   5.556  16.788  0.00  0.00    +0.000 A 
ATOM     28  C   UNL     1       5.451   5.963  15.544  0.00  0.00    +0.000 C 
ATOM     29  N   UNL     1       3.819   6.439  17.285  0.00  0.00    +0.000 NA
ATOM     30  C   UNL     1       3.166   6.179  18.447  0.00  0.00    +0.000 A 
ENDBRANCH   5  20
TORSDOF 2
ENDMDL
MODEL 9
REMARK VINA RESULT:      -7.2      5.804     10.621
REMARK  Name = 
REMARK  4 active torsions:
REMARK  status: ('A' for Active; 'I' for Inactive)
REMARK    1  A    between atoms: C_1  and  C_2
REMARK    2  A    between atoms: C_7  and  C_9
REMARK    3  A    between atoms: C_13  and  C_15
REMARK    4  A    between atoms: C_22  and  C_23
REMARK                            x       y       z     vdW  Elec       q    Type
REMARK                         _______ _______ _______ _____ _____    ______ ____
ROOT
ATOM      1  C   UNL     1      -0.691  12.886  21.605  0.00  0.00    +0.000 C 
ATOM      2  C   UNL     1      -1.388  13.010  22.968  0.00  0.00    +0.000 C 
ATOM      3  C   UNL     1      -2.708  12.233  23.043  0.00  0.00    +0.000 C 
ATOM      4  N   UNL     1      -3.569  12.552  21.903  0.00  0.00    +0.000 N 
ATOM      5  C   UNL     1      -4.876  13.018  22.137  0.00  0.00    +0.000 C 
ATOM      6  O   UNL     1      -5.296  13.168  23.285  0.00  0.00    +0.000 OA
ATOM      7  C   UNL     1      -2.941  12.273  20.612  0.00  0.00    +0.000 C 
ATOM      8  C   UNL     1      -1.703  13.171  20.470  0.00  0.00    +0.000 C 
ENDROOT
BRANCH   1  15
ATOM      9  C   UNL     1       2.804   6.475  18.390  0.00  0.00    +0.000 C 
ATOM     10  C   UNL     1       2.166   7.773  18.760  0.00  0.00    +0.000 A 
ATOM     11  C   UNL     1       1.857   8.764  17.829  0.00  0.00    +0.000 A 
ATOM     12  C   UNL     1       1.252   9.954  18.250  0.00  0.00    +0.000 A 
ATOM     13  C   UNL     1       0.970  10.122  19.597  0.00  0.00    +0.000 A 
ATOM     14  N   UNL     1       0.349  11.313  20.024  0.00  0.00    +0.000 N 
ATOM     15  C   UNL     1      -0.023  11.529  21.335  0.00  0.00    +0.000 C 
ATOM     16  O   UNL     1       0.076  10.713  22.246  0.00  0.00    +0.000 OA
ATOM     17  N   UNL     1       1.276   9.177  20.500  0.00  0.00    +0.000 NA
ATOM     18  C   UNL     1       1.854   8.035  20.083  0.00  0.00    +0.000 A 
ATOM     19  H   UNL     1       0.129  12.001  19.320  0.00  0.00    +0.000 HD
ENDBRANCH   1  15
BRANCH   5  20
ATOM     20  C   UNL     1      -5.760  13.424  20.996  0.00  0.00    +0.000 A 
ATOM     21  C   UNL     1      -6.622  12.461  20.438  0.00  0.00    +0.000 A 
ATOM     22  C   UNL     1      -7.506  12.793  19.423  0.00  0.00    +0.000 A 
ATOM     23  C   UNL     1      -7.457  14.065  18.877  0.00  0.00    +0.000 A 
ATOM     24  C   UNL     1      -6.521  15.001  19.340  0.00  0.00    +0.000 A 
ATOM     25  C   UNL     1      -6.427  16.243  18.701  0.00  0.00    +0.000 A 
ATOM     26  C   UNL     1      -5.488  17.172  19.120  0.00  0.00    +0.000 A 
ATOM     27  C   UNL     1      -4.684  16.847  20.197  0.00  0.00    +0.000 A 
ATOM     28  C   UNL     1      -3.636  17.802  20.686  0.00  0.00    +0.000 C 
ATOM     29  N   UNL     1      -4.784  15.662  20.850  0.00  0.00    +0.000 NA
ATOM     30  C   UNL     1      -5.657  14.713  20.426  0.00  0.00    +0.000 A 
ENDBRANCH   5  20
TORSDOF 2
ENDMDL
