MODEL 1
REMARK VINA RESULT:      -8.3      0.000      0.000
REMARK  Name = 
REMARK  3 active torsions:
REMARK  status: ('A' for Active; 'I' for Inactive)
REMARK    1  A    between atoms: C_4  and  C_5
REMARK    2  A    between atoms: C_5  and  N_6
REMARK    3  A    between atoms: C_22  and  O_23
REMARK                            x       y       z     vdW  Elec       q    Type
REMARK                         _______ _______ _______ _____ _____    ______ ____
ROOT
ATOM      1  C   UNL     1      -0.564  11.813  19.512  0.00  0.00    +0.000 C 
ENDROOT
BRANCH   1   2
ATOM      2  N   UNL     1      -1.899  11.520  18.986  0.00  0.00    +0.000 NA
ATOM      3  C   UNL     1      -3.004  11.966  19.854  0.00  0.00    +0.000 C 
ATOM      4  C   UNL     1      -4.336  12.260  19.165  0.00  0.00    +0.000 A 
ATOM      5  C   UNL     1      -5.310  12.981  19.880  0.00  0.00    +0.000 A 
ATOM      6  C   UNL     1      -6.460  13.428  19.239  0.00  0.00    +0.000 A 
ATOM      7  C   UNL     1      -6.644  13.151  17.889  0.00  0.00    +0.000 A 
ATOM      8  C   UNL     1      -5.701  12.385  17.189  0.00  0.00    +0.000 A 
ATOM      9  C   UNL     1      -4.536  11.895  17.812  0.00  0.00    +0.000 A 
ATOM     10  C   UNL     1      -3.343  11.129  17.069  0.00  0.00    +0.000 C 
ATOM     11  C   UNL     1      -3.520  10.666  15.557  0.00  0.00    +0.000 C 
ATOM     12  C   UNL     1      -2.509   9.544  15.886  0.00  0.00    +0.000 C 
ATOM     13  C   UNL     1      -3.151   9.573  17.299  0.00  0.00    +0.000 C 
ATOM     14  C   UNL     1      -2.069  11.877  17.566  0.00  0.00    +0.000 C 
ENDBRANCH   1   2
BRANCH   1  18
ATOM     15  O   UNL     1       0.401   9.628  23.682  0.00  0.00    +0.000 OA
ATOM     16  C   UNL     1       0.554   9.601  22.467  0.00  0.00    +0.000 A 
ATOM     17  C   UNL     1      -0.048  10.637  21.621  0.00  0.00    +0.000 A 
ATOM     18  C   UNL     1       0.064  10.683  20.287  0.00  0.00    +0.000 A 
ATOM     19  C   UNL     1       0.863   9.607  19.642  0.00  0.00    +0.000 A 
ATOM     20  C   UNL     1       1.091   9.518  18.263  0.00  0.00    +0.000 A 
ATOM     21  C   UNL     1       1.810   8.448  17.709  0.00  0.00    +0.000 A 
ATOM     22  C   UNL     1       2.356   7.478  18.542  0.00  0.00    +0.000 A 
ATOM     23  C   UNL     1       2.179   7.553  19.912  0.00  0.00    +0.000 A 
ATOM     24  C   UNL     1       1.428   8.608  20.445  0.00  0.00    +0.000 A 
ATOM     25  O   UNL     1       1.278   8.611  21.840  0.00  0.00    +0.000 OA
BRANCH  22  26
ATOM     26  O   UNL     1       3.071   6.430  18.045  0.00  0.00    +0.000 OA
ATOM     27  H   UNL     1       2.935   5.657  18.614  0.00  0.00    +0.000 HD
ENDBRANCH  22  26
ENDBRANCH   1  18
TORSDOF 3
ENDMDL
MODEL 2
REMARK VINA RESULT:      -8.1      5.756     10.304
REMARK  Name = 
REMARK  3 active torsions:
REMARK  status: ('A' for Active; 'I' for Inactive)
REMARK    1  A    between atoms: C_4  and  C_5
REMARK    2  A    between atoms: C_5  and  N_6
REMARK    3  A    between atoms: C_22  and  O_23
REMARK                            x       y       z     vdW  Elec       q    Type
REMARK                         _______ _______ _______ _____ _____    ______ ____
ROOT
ATOM      1  C   UNL     1       3.190   3.969  16.948  0.00  0.00    +0.000 C 
ENDROOT
BRANCH   1   2
ATOM      2  N   UNL     1       4.578   4.145  16.515  0.00  0.00    +0.000 NA
ATOM      3  C   UNL     1       4.921   3.425  15.274  0.00  0.00    +0.000 C 
ATOM      4  C   UNL     1       6.070   4.000  14.448  0.00  0.00    +0.000 A 
ATOM      5  C   UNL     1       6.226   3.553  13.124  0.00  0.00    +0.000 A 
ATOM      6  C   UNL     1       7.139   4.174  12.278  0.00  0.00    +0.000 A 
ATOM      7  C   UNL     1       7.900   5.237  12.753  0.00  0.00    +0.000 A 
ATOM      8  C   UNL     1       7.785   5.649  14.089  0.00  0.00    +0.000 A 
ATOM      9  C   UNL     1       6.889   5.026  14.980  0.00  0.00    +0.000 A 
ATOM     10  C   UNL     1       6.592   5.506  16.478  0.00  0.00    +0.000 C 
ATOM     11  C   UNL     1       7.497   6.633  17.141  0.00  0.00    +0.000 C 
ATOM     12  C   UNL     1       7.144   5.980  18.497  0.00  0.00    +0.000 C 
ATOM     13  C   UNL     1       7.137   4.651  17.696  0.00  0.00    +0.000 C 
ATOM     14  C   UNL     1       5.035   5.545  16.542  0.00  0.00    +0.000 C 
ENDBRANCH   1   2
BRANCH   1  18
ATOM     15  O   UNL     1       3.017   2.559  21.540  0.00  0.00    +0.000 OA
ATOM     16  C   UNL     1       2.852   3.490  20.760  0.00  0.00    +0.000 A 
ATOM     17  C   UNL     1       3.097   3.307  19.326  0.00  0.00    +0.000 A 
ATOM     18  C   UNL     1       2.947   4.269  18.406  0.00  0.00    +0.000 A 
ATOM     19  C   UNL     1       2.495   5.600  18.891  0.00  0.00    +0.000 A 
ATOM     20  C   UNL     1       2.274   6.705  18.061  0.00  0.00    +0.000 A 
ATOM     21  C   UNL     1       1.899   7.952  18.586  0.00  0.00    +0.000 A 
ATOM     22  C   UNL     1       1.688   8.089  19.954  0.00  0.00    +0.000 A 
ATOM     23  C   UNL     1       1.864   7.008  20.800  0.00  0.00    +0.000 A 
ATOM     24  C   UNL     1       2.274   5.782  20.263  0.00  0.00    +0.000 A 
ATOM     25  O   UNL     1       2.446   4.736  21.182  0.00  0.00    +0.000 OA
BRANCH  22  26
ATOM     26  O   UNL     1       1.310   9.277  20.502  0.00  0.00    +0.000 OA
ATOM     27  H   UNL     1       0.807   9.783  19.845  0.00  0.00    +0.000 HD
ENDBRANCH  22  26
ENDBRANCH   1  18
TORSDOF 3
ENDMDL
MODEL 3
REMARK VINA RESULT:      -8.0      3.343      5.769
REMARK  Name = 
REMARK  3 active torsions:
REMARK  status: ('A' for Active; 'I' for Inactive)
REMARK    1  A    between atoms: C_4  and  C_5
REMARK    2  A    between atoms: C_5  and  N_6
REMARK    3  A    between atoms: C_22  and  O_23
REMARK                            x       y       z     vdW  Elec       q    Type
REMARK                         _______ _______ _______ _____ _____    ______ ____
ROOT
ATOM      1  C   UNL     1       2.713   8.441  17.876  0.00  0.00    +0.000 C 
ENDROOT
BRANCH   1   2
ATOM      2  N   UNL     1       1.503   8.803  18.617  0.00  0.00    +0.000 NA
ATOM      3  C   UNL     1       1.452   8.272  19.992  0.00  0.00    +0.000 C 
ATOM      4  C   UNL     1       0.602   9.052  20.993  0.00  0.00    +0.000 A 
ATOM      5  C   UNL     1       0.771   8.781  22.363  0.00  0.00    +0.000 A 
ATOM      6  C   UNL     1       0.156   9.585  23.317  0.00  0.00    +0.000 A 
ATOM      7  C   UNL     1      -0.632  10.654  22.906  0.00  0.00    +0.000 A 
ATOM      8  C   UNL     1      -0.847  10.893  21.541  0.00  0.00    +0.000 A 
ATOM      9  C   UNL     1      -0.260  10.084  20.548  0.00  0.00    +0.000 A 
ATOM     10  C   UNL     1      -0.337  10.352  18.971  0.00  0.00    +0.000 C 
ATOM     11  C   UNL     1      -1.310  11.478  18.408  0.00  0.00    +0.000 C 
ATOM     12  C   UNL     1      -1.370  10.638  17.112  0.00  0.00    +0.000 C 
ATOM     13  C   UNL     1      -1.239   9.418  18.063  0.00  0.00    +0.000 C 
ATOM     14  C   UNL     1       1.146  10.229  18.511  0.00  0.00    +0.000 C 
ENDBRANCH   1   2
BRANCH   1  18
ATOM     15  O   UNL     1       1.040   3.935  17.873  0.00  0.00    +0.000 OA
ATOM     16  C   UNL     1       2.032   4.646  17.761  0.00  0.00    +0.000 A 
ATOM     17  C   UNL     1       1.911   6.105  17.850  0.00  0.00    +0.000 A 
ATOM     18  C   UNL     1       2.938   6.957  17.734  0.00  0.00    +0.000 A 
ATOM     19  C   UNL     1       4.283   6.362  17.509  0.00  0.00    +0.000 A 
ATOM     20  C   UNL     1       5.460   7.109  17.384  0.00  0.00    +0.000 A 
ATOM     21  C   UNL     1       6.693   6.492  17.119  0.00  0.00    +0.000 A 
ATOM     22  C   UNL     1       6.766   5.106  17.030  0.00  0.00    +0.000 A 
ATOM     23  C   UNL     1       5.627   4.335  17.183  0.00  0.00    +0.000 A 
ATOM     24  C   UNL     1       4.400   4.970  17.410  0.00  0.00    +0.000 A 
ATOM     25  O   UNL     1       3.287   4.125  17.540  0.00  0.00    +0.000 OA
BRANCH  22  26
ATOM     26  O   UNL     1       7.944   4.468  16.788  0.00  0.00    +0.000 OA
ATOM     27  H   UNL     1       8.628   4.834  17.370  0.00  0.00    +0.000 HD
ENDBRANCH  22  26
ENDBRANCH   1  18
TORSDOF 3
ENDMDL
MODEL 4
REMARK VINA RESULT:      -7.9      4.296      8.558
REMARK  Name = 
REMARK  3 active torsions:
REMARK  status: ('A' for Active; 'I' for Inactive)
REMARK    1  A    between atoms: C_4  and  C_5
REMARK    2  A    between atoms: C_5  and  N_6
REMARK    3  A    between atoms: C_22  and  O_23
REMARK                            x       y       z     vdW  Elec       q    Type
REMARK                         _______ _______ _______ _____ _____    ______ ____
ROOT
ATOM      1  C   UNL     1       1.974   6.855  20.401  0.00  0.00    +0.000 C 
ENDROOT
BRANCH   1   2
ATOM      2  N   UNL     1       2.326   6.021  19.250  0.00  0.00    +0.000 NA
ATOM      3  C   UNL     1       3.110   6.717  18.213  0.00  0.00    +0.000 C 
ATOM      4  C   UNL     1       4.006   5.845  17.335  0.00  0.00    +0.000 A 
ATOM      5  C   UNL     1       4.997   6.475  16.562  0.00  0.00    +0.000 A 
ATOM      6  C   UNL     1       5.949   5.717  15.889  0.00  0.00    +0.000 A 
ATOM      7  C   UNL     1       5.909   4.330  15.982  0.00  0.00    +0.000 A 
ATOM      8  C   UNL     1       4.890   3.697  16.708  0.00  0.00    +0.000 A 
ATOM      9  C   UNL     1       3.895   4.433  17.381  0.00  0.00    +0.000 A 
ATOM     10  C   UNL     1       2.773   3.811  18.339  0.00  0.00    +0.000 C 
ATOM     11  C   UNL     1       2.580   2.234  18.409  0.00  0.00    +0.000 C 
ATOM     12  C   UNL     1       1.109   2.530  18.781  0.00  0.00    +0.000 C 
ATOM     13  C   UNL     1       1.267   3.760  17.847  0.00  0.00    +0.000 C 
ATOM     14  C   UNL     1       2.859   4.697  19.618  0.00  0.00    +0.000 C 
ENDBRANCH   1   2
BRANCH   1  18
ATOM     15  O   UNL     1       1.933  10.554  17.332  0.00  0.00    +0.000 OA
ATOM     16  C   UNL     1       1.597  10.155  18.440  0.00  0.00    +0.000 A 
ATOM     17  C   UNL     1       1.908   8.786  18.862  0.00  0.00    +0.000 A 
ATOM     18  C   UNL     1       1.575   8.267  20.050  0.00  0.00    +0.000 A 
ATOM     19  C   UNL     1       0.849   9.158  20.994  0.00  0.00    +0.000 A 
ATOM     20  C   UNL     1       0.444   8.777  22.279  0.00  0.00    +0.000 A 
ATOM     21  C   UNL     1      -0.285   9.648  23.104  0.00  0.00    +0.000 A 
ATOM     22  C   UNL     1      -0.572  10.936  22.665  0.00  0.00    +0.000 A 
ATOM     23  C   UNL     1      -0.158  11.356  21.414  0.00  0.00    +0.000 A 
ATOM     24  C   UNL     1       0.537  10.463  20.590  0.00  0.00    +0.000 A 
ATOM     25  O   UNL     1       0.913  10.953  19.331  0.00  0.00    +0.000 OA
BRANCH  22  26
ATOM     26  O   UNL     1      -1.266  11.816  23.439  0.00  0.00    +0.000 OA
ATOM     27  H   UNL     1      -0.686  12.557  23.673  0.00  0.00    +0.000 HD
ENDBRANCH  22  26
ENDBRANCH   1  18
TORSDOF 3
ENDMDL
MODEL 5
REMARK VINA RESULT:      -7.4      3.889      5.691
REMARK  Name = 
REMARK  3 active torsions:
REMARK  status: ('A' for Active; 'I' for Inactive)
REMARK    1  A    between atoms: C_4  and  C_5
REMARK    2  A    between atoms: C_5  and  N_6
REMARK    3  A    between atoms: C_22  and  O_23
REMARK                            x       y       z     vdW  Elec       q    Type
REMARK                         _______ _______ _______ _____ _____    ______ ____
ROOT
ATOM      1  C   UNL     1       2.262   8.136  17.625  0.00  0.00    +0.000 C 
ENDROOT
BRANCH   1   2
ATOM      2  N   UNL     1       1.926   9.231  18.537  0.00  0.00    +0.000 NA
ATOM      3  C   UNL     1       2.551  10.522  18.191  0.00  0.00    +0.000 C 
ATOM      4  C   UNL     1       1.824  11.779  18.665  0.00  0.00    +0.000 A 
ATOM      5  C   UNL     1       2.193  13.013  18.100  0.00  0.00    +0.000 A 
ATOM      6  C   UNL     1       1.444  14.155  18.363  0.00  0.00    +0.000 A 
ATOM      7  C   UNL     1       0.332  14.069  19.194  0.00  0.00    +0.000 A 
ATOM      8  C   UNL     1      -0.005  12.852  19.802  0.00  0.00    +0.000 A 
ATOM      9  C   UNL     1       0.745  11.680  19.577  0.00  0.00    +0.000 A 
ATOM     10  C   UNL     1       0.366  10.221  20.117  0.00  0.00    +0.000 C 
ATOM     11  C   UNL     1      -0.816  10.050  21.167  0.00  0.00    +0.000 C 
ATOM     12  C   UNL     1      -0.070   8.786  21.652  0.00  0.00    +0.000 C 
ATOM     13  C   UNL     1       1.215   9.577  21.290  0.00  0.00    +0.000 C 
ATOM     14  C   UNL     1       0.489   9.324  18.849  0.00  0.00    +0.000 C 
ENDBRANCH   1   2
BRANCH   1  18
ATOM     15  O   UNL     1       2.265   4.782  21.068  0.00  0.00    +0.000 OA
ATOM     16  C   UNL     1       2.860   5.237  20.097  0.00  0.00    +0.000 A 
ATOM     17  C   UNL     1       2.312   6.381  19.361  0.00  0.00    +0.000 A 
ATOM     18  C   UNL     1       2.891   6.938  18.290  0.00  0.00    +0.000 A 
ATOM     19  C   UNL     1       4.178   6.347  17.838  0.00  0.00    +0.000 A 
ATOM     20  C   UNL     1       4.919   6.819  16.748  0.00  0.00    +0.000 A 
ATOM     21  C   UNL     1       6.102   6.184  16.338  0.00  0.00    +0.000 A 
ATOM     22  C   UNL     1       6.585   5.094  17.054  0.00  0.00    +0.000 A 
ATOM     23  C   UNL     1       5.896   4.623  18.157  0.00  0.00    +0.000 A 
ATOM     24  C   UNL     1       4.698   5.245  18.530  0.00  0.00    +0.000 A 
ATOM     25  O   UNL     1       4.047   4.704  19.648  0.00  0.00    +0.000 OA
BRANCH  22  26
ATOM     26  O   UNL     1       7.735   4.458  16.697  0.00  0.00    +0.000 OA
ATOM     27  H   UNL     1       7.541   3.523  16.531  0.00  0.00    +0.000 HD
ENDBRANCH  22  26
ENDBRANCH   1  18
TORSDOF 3
ENDMDL
MODEL 6
REMARK VINA RESULT:      -7.3      3.282      7.960
REMARK  Name = 
REMARK  3 active torsions:
REMARK  status: ('A' for Active; 'I' for Inactive)
REMARK    1  A    between atoms: C_4  and  C_5
REMARK    2  A    between atoms: C_5  and  N_6
REMARK    3  A    between atoms: C_22  and  O_23
REMARK                            x       y       z     vdW  Elec       q    Type
REMARK                         _______ _______ _______ _____ _____    ______ ____
ROOT
ATOM      1  C   UNL     1       2.181   8.284  18.424  0.00  0.00    +0.000 C 
ENDROOT
BRANCH   1   2
ATOM      2  N   UNL     1       2.720   6.989  18.845  0.00  0.00    +0.000 NA
ATOM      3  C   UNL     1       1.868   6.261  19.804  0.00  0.00    +0.000 C 
ATOM      4  C   UNL     1       2.010   4.740  19.822  0.00  0.00    +0.000 A 
ATOM      5  C   UNL     1       1.014   3.986  20.471  0.00  0.00    +0.000 A 
ATOM      6  C   UNL     1       1.002   2.600  20.361  0.00  0.00    +0.000 A 
ATOM      7  C   UNL     1       1.984   1.964  19.610  0.00  0.00    +0.000 A 
ATOM      8  C   UNL     1       3.008   2.708  19.007  0.00  0.00    +0.000 A 
ATOM      9  C   UNL     1       3.066   4.111  19.118  0.00  0.00    +0.000 A 
ATOM     10  C   UNL     1       4.114   5.056  18.362  0.00  0.00    +0.000 C 
ATOM     11  C   UNL     1       5.339   4.411  17.580  0.00  0.00    +0.000 C 
ATOM     12  C   UNL     1       6.088   5.734  17.861  0.00  0.00    +0.000 C 
ATOM     13  C   UNL     1       5.279   5.748  19.185  0.00  0.00    +0.000 C 
ATOM     14  C   UNL     1       3.214   6.161  17.731  0.00  0.00    +0.000 C 
ENDBRANCH   1   2
BRANCH   1  18
ATOM     15  O   UNL     1       1.466   9.429  23.037  0.00  0.00    +0.000 OA
ATOM     16  C   UNL     1       1.064   9.562  21.887  0.00  0.00    +0.000 A 
ATOM     17  C   UNL     1       1.771   8.919  20.776  0.00  0.00    +0.000 A 
ATOM     18  C   UNL     1       1.405   9.015  19.491  0.00  0.00    +0.000 A 
ATOM     19  C   UNL     1       0.194   9.826  19.195  0.00  0.00    +0.000 A 
ATOM     20  C   UNL     1      -0.331  10.013  17.911  0.00  0.00    +0.000 A 
ATOM     21  C   UNL     1      -1.448  10.834  17.690  0.00  0.00    +0.000 A 
ATOM     22  C   UNL     1      -2.085  11.437  18.768  0.00  0.00    +0.000 A 
ATOM     23  C   UNL     1      -1.613  11.246  20.055  0.00  0.00    +0.000 A 
ATOM     24  C   UNL     1      -0.476  10.454  20.253  0.00  0.00    +0.000 A 
ATOM     25  O   UNL     1      -0.047  10.317  21.582  0.00  0.00    +0.000 OA
BRANCH  22  26
ATOM     26  O   UNL     1      -3.179  12.231  18.598  0.00  0.00    +0.000 OA
ATOM     27  H   UNL     1      -3.071  12.747  17.784  0.00  0.00    +0.000 HD
ENDBRANCH  22  26
ENDBRANCH   1  18
TORSDOF 3
ENDMDL
MODEL 7
REMARK VINA RESULT:      -7.3      6.899     10.622
REMARK  Name = 
REMARK  3 active torsions:
REMARK  status: ('A' for Active; 'I' for Inactive)
REMARK    1  A    between atoms: C_4  and  C_5
REMARK    2  A    between atoms: C_5  and  N_6
REMARK    3  A    between atoms: C_22  and  O_23
REMARK                            x       y       z     vdW  Elec       q    Type
REMARK                         _______ _______ _______ _____ _____    ______ ____
ROOT
ATOM      1  C   UNL     1       3.373   3.768  16.547  0.00  0.00    +0.000 C 
ENDROOT
BRANCH   1   2
ATOM      2  N   UNL     1       4.756   4.019  16.138  0.00  0.00    +0.000 NA
ATOM      3  C   UNL     1       5.141   3.367  14.871  0.00  0.00    +0.000 C 
ATOM      4  C   UNL     1       6.273   4.024  14.084  0.00  0.00    +0.000 A 
ATOM      5  C   UNL     1       6.460   3.641  12.743  0.00  0.00    +0.000 A 
ATOM      6  C   UNL     1       7.354   4.334  11.934  0.00  0.00    +0.000 A 
ATOM      7  C   UNL     1       8.066   5.406  12.463  0.00  0.00    +0.000 A 
ATOM      8  C   UNL     1       7.922   5.755  13.813  0.00  0.00    +0.000 A 
ATOM      9  C   UNL     1       7.044   5.059  14.668  0.00  0.00    +0.000 A 
ATOM     10  C   UNL     1       6.712   5.462  16.181  0.00  0.00    +0.000 C 
ATOM     11  C   UNL     1       7.564   6.596  16.902  0.00  0.00    +0.000 C 
ATOM     12  C   UNL     1       7.225   5.871  18.225  0.00  0.00    +0.000 C 
ATOM     13  C   UNL     1       7.281   4.578  17.368  0.00  0.00    +0.000 C 
ATOM     14  C   UNL     1       5.155   5.434  16.229  0.00  0.00    +0.000 C 
ENDBRANCH   1   2
BRANCH   1  18
ATOM     15  O   UNL     1       2.647   7.954  18.794  0.00  0.00    +0.000 OA
ATOM     16  C   UNL     1       2.588   6.733  18.884  0.00  0.00    +0.000 A 
ATOM     17  C   UNL     1       2.967   5.887  17.749  0.00  0.00    +0.000 A 
ATOM     18  C   UNL     1       2.928   4.548  17.758  0.00  0.00    +0.000 A 
ATOM     19  C   UNL     1       2.475   3.897  19.016  0.00  0.00    +0.000 A 
ATOM     20  C   UNL     1       2.394   2.511  19.198  0.00  0.00    +0.000 A 
ATOM     21  C   UNL     1       1.908   1.958  20.393  0.00  0.00    +0.000 A 
ATOM     22  C   UNL     1       1.547   2.793  21.444  0.00  0.00    +0.000 A 
ATOM     23  C   UNL     1       1.647   4.167  21.311  0.00  0.00    +0.000 A 
ATOM     24  C   UNL     1       2.099   4.703  20.099  0.00  0.00    +0.000 A 
ATOM     25  O   UNL     1       2.161   6.103  20.032  0.00  0.00    +0.000 OA
BRANCH  22  26
ATOM     26  O   UNL     1       1.083   2.296  22.624  0.00  0.00    +0.000 OA
ATOM     27  H   UNL     1       1.835   2.000  23.160  0.00  0.00    +0.000 HD
ENDBRANCH  22  26
ENDBRANCH   1  18
TORSDOF 3
ENDMDL
MODEL 8
REMARK VINA RESULT:      -7.3      2.884      5.312
REMARK  Name = 
REMARK  3 active torsions:
REMARK  status: ('A' for Active; 'I' for Inactive)
REMARK    1  A    between atoms: C_4  and  C_5
REMARK    2  A    between atoms: C_5  and  N_6
REMARK    3  A    between atoms: C_22  and  O_23
REMARK                            x       y       z     vdW  Elec       q    Type
REMARK                         _______ _______ _______ _____ _____    ______ ____
ROOT
ATOM      1  C   UNL     1       1.839   8.101  20.053  0.00  0.00    +0.000 C 
ENDROOT
BRANCH   1   2
ATOM      2  N   UNL     1       1.242   9.273  19.410  0.00  0.00    +0.000 NA
ATOM      3  C   UNL     1       0.427   8.962  18.221  0.00  0.00    +0.000 C 
ATOM      4  C   UNL     1      -0.676   9.960  17.871  0.00  0.00    +0.000 A 
ATOM      5  C   UNL     1      -1.670   9.561  16.959  0.00  0.00    +0.000 A 
ATOM      6  C   UNL     1      -2.787  10.360  16.746  0.00  0.00    +0.000 A 
ATOM      7  C   UNL     1      -2.912  11.561  17.438  0.00  0.00    +0.000 A 
ATOM      8  C   UNL     1      -1.897  11.987  18.306  0.00  0.00    +0.000 A 
ATOM      9  C   UNL     1      -0.739  11.214  18.526  0.00  0.00    +0.000 A 
ATOM     10  C   UNL     1       0.408  11.549  19.592  0.00  0.00    +0.000 C 
ATOM     11  C   UNL     1       0.407  12.954  20.337  0.00  0.00    +0.000 C 
ATOM     12  C   UNL     1       1.939  12.781  20.453  0.00  0.00    +0.000 C 
ATOM     13  C   UNL     1       1.820  12.059  19.085  0.00  0.00    +0.000 C 
ATOM     14  C   UNL     1       0.597  10.203  20.353  0.00  0.00    +0.000 C 
ENDBRANCH   1   2
BRANCH   1  18
ATOM     15  O   UNL     1       4.753   7.186  16.342  0.00  0.00    +0.000 OA
ATOM     16  C   UNL     1       3.986   6.706  17.169  0.00  0.00    +0.000 A 
ATOM     17  C   UNL     1       3.333   7.566  18.160  0.00  0.00    +0.000 A 
ATOM     18  C   UNL     1       2.487   7.127  19.101  0.00  0.00    +0.000 A 
ATOM     19  C   UNL     1       2.198   5.668  19.118  0.00  0.00    +0.000 A 
ATOM     20  C   UNL     1       1.326   5.051  20.022  0.00  0.00    +0.000 A 
ATOM     21  C   UNL     1       1.135   3.660  20.022  0.00  0.00    +0.000 A 
ATOM     22  C   UNL     1       1.782   2.876  19.073  0.00  0.00    +0.000 A 
ATOM     23  C   UNL     1       2.624   3.457  18.142  0.00  0.00    +0.000 A 
ATOM     24  C   UNL     1       2.831   4.841  18.181  0.00  0.00    +0.000 A 
ATOM     25  O   UNL     1       3.709   5.358  17.216  0.00  0.00    +0.000 OA
BRANCH  22  26
ATOM     26  O   UNL     1       1.614   1.525  19.030  0.00  0.00    +0.000 OA
ATOM     27  H   UNL     1       1.385   1.206  19.917  0.00  0.00    +0.000 HD
ENDBRANCH  22  26
ENDBRANCH   1  18
TORSDOF 3
ENDMDL
MODEL 9
REMARK VINA RESULT:      -7.3      3.161      5.353
REMARK  Name = 
REMARK  3 active torsions:
REMARK  status: ('A' for Active; 'I' for Inactive)
REMARK    1  A    between atoms: C_4  and  C_5
REMARK    2  A    between atoms: C_5  and  N_6
REMARK    3  A    between atoms: C_22  and  O_23
REMARK                            x       y       z     vdW  Elec       q    Type
REMARK                         _______ _______ _______ _____ _____    ______ ____
ROOT
ATOM      1  C   UNL     1      -0.451  11.659  19.262  0.00  0.00    +0.000 C 
ENDROOT
BRANCH   1   2
ATOM      2  N   UNL     1       0.188  12.966  19.425  0.00  0.00    +0.000 NA
ATOM      3  C   UNL     1       1.650  12.954  19.229  0.00  0.00    +0.000 C 
ATOM      4  C   UNL     1       2.288  14.269  18.783  0.00  0.00    +0.000 A 
ATOM      5  C   UNL     1       3.602  14.234  18.281  0.00  0.00    +0.000 A 
ATOM      6  C   UNL     1       4.159  15.367  17.698  0.00  0.00    +0.000 A 
ATOM      7  C   UNL     1       3.410  16.536  17.621  0.00  0.00    +0.000 A 
ATOM      8  C   UNL     1       2.121  16.589  18.169  0.00  0.00    +0.000 A 
ATOM      9  C   UNL     1       1.535  15.468  18.790  0.00  0.00    +0.000 A 
ATOM     10  C   UNL     1       0.028  15.390  19.325  0.00  0.00    +0.000 C 
ATOM     11  C   UNL     1      -0.859  16.709  19.385  0.00  0.00    +0.000 C 
ATOM     12  C   UNL     1      -1.621  16.025  20.543  0.00  0.00    +0.000 C 
ATOM     13  C   UNL     1      -0.248  15.391  20.886  0.00  0.00    +0.000 C 
ATOM     14  C   UNL     1      -0.503  14.058  18.716  0.00  0.00    +0.000 C 
ENDBRANCH   1   2
BRANCH   1  18
ATOM     15  O   UNL     1       0.208   9.728  23.614  0.00  0.00    +0.000 OA
ATOM     16  C   UNL     1       0.441   9.625  22.415  0.00  0.00    +0.000 A 
ATOM     17  C   UNL     1      -0.090  10.612  21.469  0.00  0.00    +0.000 A 
ATOM     18  C   UNL     1       0.110  10.574  20.146  0.00  0.00    +0.000 A 
ATOM     19  C   UNL     1       0.935   9.452  19.622  0.00  0.00    +0.000 A 
ATOM     20  C   UNL     1       1.252   9.276  18.270  0.00  0.00    +0.000 A 
ATOM     21  C   UNL     1       1.992   8.166  17.831  0.00  0.00    +0.000 A 
ATOM     22  C   UNL     1       2.468   7.245  18.757  0.00  0.00    +0.000 A 
ATOM     23  C   UNL     1       2.202   7.407  20.105  0.00  0.00    +0.000 A 
ATOM     24  C   UNL     1       1.432   8.500  20.521  0.00  0.00    +0.000 A 
ATOM     25  O   UNL     1       1.191   8.591  21.900  0.00  0.00    +0.000 OA
BRANCH  22  26
ATOM     26  O   UNL     1       3.200   6.162  18.374  0.00  0.00    +0.000 OA
ATOM     27  H   UNL     1       4.070   6.202  18.800  0.00  0.00    +0.000 HD
ENDBRANCH  22  26
ENDBRANCH   1  18
TORSDOF 3
ENDMDL
