MODEL 1
REMARK VINA RESULT:      -8.4      0.000      0.000
REMARK  Name = 
REMARK  4 active torsions:
REMARK  status: ('A' for Active; 'I' for Inactive)
REMARK    1  A    between atoms: C_2  and  C_20
REMARK    2  A    between atoms: N_3  and  C_4
REMARK    3  A    between atoms: N_12  and  C_13
REMARK    4  A    between atoms: C_13  and  C_14
REMARK                            x       y       z     vdW  Elec       q    Type
REMARK                         _______ _______ _______ _____ _____    ______ ____
ROOT
ATOM      1  C   UNL     1       0.148  10.370  19.413  0.00  0.00    +0.000 C 
ATOM      2  C   UNL     1      -0.366  10.184  20.856  0.00  0.00    +0.000 C 
ATOM      3  C   UNL     1       0.220   9.073  21.759  0.00  0.00    +0.000 C 
ATOM      4  C   UNL     1       1.240   8.067  21.212  0.00  0.00    +0.000 C 
ATOM      5  C   UNL     1       1.625   8.343  19.819  0.00  0.00    +0.000 A 
ATOM      6  C   UNL     1       1.146   9.346  19.010  0.00  0.00    +0.000 A 
ATOM      7  C   UNL     1       1.794   9.135  17.776  0.00  0.00    +0.000 A 
ATOM      8  N   UNL     1       2.619   8.085  17.802  0.00  0.00    +0.000 NA
ATOM      9  N   UNL     1       2.517   7.617  19.068  0.00  0.00    +0.000 N 
ENDROOT
BRANCH   1  12
ATOM     10  O   UNL     1      -0.977  12.750  18.182  0.00  0.00    +0.000 OA
ATOM     11  C   UNL     1       0.165  12.757  18.627  0.00  0.00    +0.000 C 
ATOM     12  N   UNL     1       0.770  11.664  19.231  0.00  0.00    +0.000 N 
ATOM     13  H   UNL     1       1.632  11.854  19.736  0.00  0.00    +0.000 HD
BRANCH  11  14
ATOM     14  C   UNL     1       1.159  13.902  18.444  0.00  0.00    +0.000 C 
ATOM     15  C   UNL     1       1.268  14.938  19.565  0.00  0.00    +0.000 C 
ATOM     16  C   UNL     1       2.651  15.397  19.250  0.00  0.00    +0.000 A 
ATOM     17  C   UNL     1       3.317  16.571  19.552  0.00  0.00    +0.000 A 
ATOM     18  C   UNL     1       4.636  16.715  19.101  0.00  0.00    +0.000 A 
ATOM     19  C   UNL     1       5.278  15.683  18.392  0.00  0.00    +0.000 A 
ATOM     20  C   UNL     1       4.604  14.498  18.112  0.00  0.00    +0.000 A 
ATOM     21  C   UNL     1       3.293  14.400  18.527  0.00  0.00    +0.000 A 
ATOM     22  O   UNL     1       2.481  13.339  18.230  0.00  0.00    +0.000 OA
ENDBRANCH  11  14
ENDBRANCH   1  12
BRANCH   9  23
ATOM     23  C   UNL     1       3.203   6.380  19.435  0.00  0.00    +0.000 C 
BRANCH  23  24
ATOM     24  C   UNL     1       2.319   5.158  19.346  0.00  0.00    +0.000 A 
ATOM     25  C   UNL     1       2.063   4.546  18.109  0.00  0.00    +0.000 A 
ATOM     26  C   UNL     1       1.288   3.385  18.037  0.00  0.00    +0.000 A 
ATOM     27  C   UNL     1       0.764   2.822  19.197  0.00  0.00    +0.000 A 
ATOM     28  C   UNL     1       1.013   3.417  20.432  0.00  0.00    +0.000 A 
ATOM     29  C   UNL     1       1.787   4.576  20.507  0.00  0.00    +0.000 A 
ENDBRANCH  23  24
ENDBRANCH   9  23
TORSDOF 4
ENDMDL
MODEL 2
REMARK VINA RESULT:      -8.2      0.651      1.134
REMARK  Name = 
REMARK  4 active torsions:
REMARK  status: ('A' for Active; 'I' for Inactive)
REMARK    1  A    between atoms: C_2  and  C_20
REMARK    2  A    between atoms: N_3  and  C_4
REMARK    3  A    between atoms: N_12  and  C_13
REMARK    4  A    between atoms: C_13  and  C_14
REMARK                            x       y       z     vdW  Elec       q    Type
REMARK                         _______ _______ _______ _____ _____    ______ ____
ROOT
ATOM      1  C   UNL     1      -0.266  10.412  19.957  0.00  0.00    +0.000 C 
ATOM      2  C   UNL     1      -0.452  10.223  21.477  0.00  0.00    +0.000 C 
ATOM      3  C   UNL     1       0.404   9.190  22.248  0.00  0.00    +0.000 C 
ATOM      4  C   UNL     1       1.374   8.259  21.508  0.00  0.00    +0.000 C 
ATOM      5  C   UNL     1       1.435   8.529  20.063  0.00  0.00    +0.000 A 
ATOM      6  C   UNL     1       0.712   9.466  19.364  0.00  0.00    +0.000 A 
ATOM      7  C   UNL     1       1.106   9.278  18.023  0.00  0.00    +0.000 A 
ATOM      8  N   UNL     1       2.007   8.302  17.885  0.00  0.00    +0.000 NA
ATOM      9  N   UNL     1       2.212   7.861  19.149  0.00  0.00    +0.000 N 
ENDROOT
BRANCH   1  12
ATOM     10  O   UNL     1      -1.458  12.330  18.128  0.00  0.00    +0.000 OA
ATOM     11  C   UNL     1      -0.437  12.608  18.746  0.00  0.00    +0.000 C 
ATOM     12  N   UNL     1       0.189  11.749  19.638  0.00  0.00    +0.000 N 
ATOM     13  H   UNL     1       0.900  12.166  20.234  0.00  0.00    +0.000 HD
BRANCH  11  14
ATOM     14  C   UNL     1       0.399  13.864  18.516  0.00  0.00    +0.000 C 
ATOM     15  C   UNL     1       0.429  14.916  19.627  0.00  0.00    +0.000 C 
ATOM     16  C   UNL     1       1.730  15.538  19.251  0.00  0.00    +0.000 A 
ATOM     17  C   UNL     1       2.259  16.787  19.520  0.00  0.00    +0.000 A 
ATOM     18  C   UNL     1       3.530  17.089  19.011  0.00  0.00    +0.000 A 
ATOM     19  C   UNL     1       4.263  16.136  18.279  0.00  0.00    +0.000 A 
ATOM     20  C   UNL     1       3.728  14.875  18.032  0.00  0.00    +0.000 A 
ATOM     21  C   UNL     1       2.458  14.621  18.504  0.00  0.00    +0.000 A 
ATOM     22  O   UNL     1       1.771  13.466  18.246  0.00  0.00    +0.000 OA
ENDBRANCH  11  14
ENDBRANCH   1  12
BRANCH   9  23
ATOM     23  C   UNL     1       3.065   6.696  19.374  0.00  0.00    +0.000 C 
BRANCH  23  24
ATOM     24  C   UNL     1       2.307   5.389  19.356  0.00  0.00    +0.000 A 
ATOM     25  C   UNL     1       1.764   4.858  20.536  0.00  0.00    +0.000 A 
ATOM     26  C   UNL     1       1.019   3.677  20.508  0.00  0.00    +0.000 A 
ATOM     27  C   UNL     1       0.804   3.015  19.302  0.00  0.00    +0.000 A 
ATOM     28  C   UNL     1       1.334   3.532  18.122  0.00  0.00    +0.000 A 
ATOM     29  C   UNL     1       2.079   4.712  18.148  0.00  0.00    +0.000 A 
ENDBRANCH  23  24
ENDBRANCH   9  23
TORSDOF 4
ENDMDL
MODEL 3
REMARK VINA RESULT:      -8.2      1.392      1.928
REMARK  Name = 
REMARK  4 active torsions:
REMARK  status: ('A' for Active; 'I' for Inactive)
REMARK    1  A    between atoms: C_2  and  C_20
REMARK    2  A    between atoms: N_3  and  C_4
REMARK    3  A    between atoms: N_12  and  C_13
REMARK    4  A    between atoms: C_13  and  C_14
REMARK                            x       y       z     vdW  Elec       q    Type
REMARK                         _______ _______ _______ _____ _____    ______ ____
ROOT
ATOM      1  C   UNL     1      -0.009  10.423  19.387  0.00  0.00    +0.000 C 
ATOM      2  C   UNL     1      -0.590  10.206  20.800  0.00  0.00    +0.000 C 
ATOM      3  C   UNL     1      -0.025   9.094  21.716  0.00  0.00    +0.000 C 
ATOM      4  C   UNL     1       1.042   8.117  21.206  0.00  0.00    +0.000 C 
ATOM      5  C   UNL     1       1.488   8.421  19.837  0.00  0.00    +0.000 A 
ATOM      6  C   UNL     1       1.028   9.426  19.019  0.00  0.00    +0.000 A 
ATOM      7  C   UNL     1       1.741   9.247  17.816  0.00  0.00    +0.000 A 
ATOM      8  N   UNL     1       2.585   8.213  17.868  0.00  0.00    +0.000 NA
ATOM      9  N   UNL     1       2.431   7.724  19.121  0.00  0.00    +0.000 N 
ENDROOT
BRANCH   1  12
ATOM     10  O   UNL     1       1.635  11.850  21.311  0.00  0.00    +0.000 OA
ATOM     11  C   UNL     1       1.369  12.351  20.225  0.00  0.00    +0.000 C 
ATOM     12  N   UNL     1       0.594  11.732  19.253  0.00  0.00    +0.000 N 
ATOM     13  H   UNL     1       0.617  12.155  18.329  0.00  0.00    +0.000 HD
BRANCH  11  14
ATOM     14  C   UNL     1       1.699  13.788  19.829  0.00  0.00    +0.000 C 
ATOM     15  C   UNL     1       2.727  14.004  18.716  0.00  0.00    +0.000 C 
ATOM     16  C   UNL     1       2.262  15.358  18.302  0.00  0.00    +0.000 A 
ATOM     17  C   UNL     1       2.908  16.383  17.634  0.00  0.00    +0.000 A 
ATOM     18  C   UNL     1       2.195  17.565  17.394  0.00  0.00    +0.000 A 
ATOM     19  C   UNL     1       0.850  17.695  17.788  0.00  0.00    +0.000 A 
ATOM     20  C   UNL     1       0.206  16.649  18.443  0.00  0.00    +0.000 A 
ATOM     21  C   UNL     1       0.943  15.515  18.707  0.00  0.00    +0.000 A 
ATOM     22  O   UNL     1       0.470  14.455  19.432  0.00  0.00    +0.000 OA
ENDBRANCH  11  14
ENDBRANCH   1  12
BRANCH   9  23
ATOM     23  C   UNL     1       3.124   6.496  19.504  0.00  0.00    +0.000 C 
BRANCH  23  24
ATOM     24  C   UNL     1       2.268   5.259  19.364  0.00  0.00    +0.000 A 
ATOM     25  C   UNL     1       2.059   4.670  18.107  0.00  0.00    +0.000 A 
ATOM     26  C   UNL     1       1.310   3.496  17.988  0.00  0.00    +0.000 A 
ATOM     27  C   UNL     1       0.766   2.896  19.121  0.00  0.00    +0.000 A 
ATOM     28  C   UNL     1       0.968   3.468  20.375  0.00  0.00    +0.000 A 
ATOM     29  C   UNL     1       1.716   4.641  20.496  0.00  0.00    +0.000 A 
ENDBRANCH  23  24
ENDBRANCH   9  23
TORSDOF 4
ENDMDL
MODEL 4
REMARK VINA RESULT:      -8.1      1.358      2.034
REMARK  Name = 
REMARK  4 active torsions:
REMARK  status: ('A' for Active; 'I' for Inactive)
REMARK    1  A    between atoms: C_2  and  C_20
REMARK    2  A    between atoms: N_3  and  C_4
REMARK    3  A    between atoms: N_12  and  C_13
REMARK    4  A    between atoms: C_13  and  C_14
REMARK                            x       y       z     vdW  Elec       q    Type
REMARK                         _______ _______ _______ _____ _____    ______ ____
ROOT
ATOM      1  C   UNL     1       0.352  10.166  19.180  0.00  0.00    +0.000 C 
ATOM      2  C   UNL     1      -0.360  10.018  20.541  0.00  0.00    +0.000 C 
ATOM      3  C   UNL     1       0.067   8.909  21.532  0.00  0.00    +0.000 C 
ATOM      4  C   UNL     1       1.126   7.868  21.143  0.00  0.00    +0.000 C 
ATOM      5  C   UNL     1       1.704   8.111  19.812  0.00  0.00    +0.000 A 
ATOM      6  C   UNL     1       1.367   9.112  18.932  0.00  0.00    +0.000 A 
ATOM      7  C   UNL     1       2.172   8.864  17.801  0.00  0.00    +0.000 A 
ATOM      8  N   UNL     1       2.957   7.794  17.953  0.00  0.00    +0.000 NA
ATOM      9  N   UNL     1       2.671   7.350  19.200  0.00  0.00    +0.000 N 
ENDROOT
BRANCH   1  12
ATOM     10  O   UNL     1       1.500  11.786  21.302  0.00  0.00    +0.000 OA
ATOM     11  C   UNL     1       1.549  12.159  20.135  0.00  0.00    +0.000 C 
ATOM     12  N   UNL     1       1.028  11.441  19.068  0.00  0.00    +0.000 N 
ATOM     13  H   UNL     1       1.310  11.752  18.142  0.00  0.00    +0.000 HD
BRANCH  11  14
ATOM     14  C   UNL     1       2.036  13.535  19.685  0.00  0.00    +0.000 C 
ATOM     15  C   UNL     1       2.906  13.607  18.428  0.00  0.00    +0.000 C 
ATOM     16  C   UNL     1       2.601  15.025  18.081  0.00  0.00    +0.000 A 
ATOM     17  C   UNL     1       3.290  15.948  17.316  0.00  0.00    +0.000 A 
ATOM     18  C   UNL     1       2.742  17.231  17.179  0.00  0.00    +0.000 A 
ATOM     19  C   UNL     1       1.509  17.561  17.772  0.00  0.00    +0.000 A 
ATOM     20  C   UNL     1       0.815  16.616  18.524  0.00  0.00    +0.000 A 
ATOM     21  C   UNL     1       1.398  15.377  18.680  0.00  0.00    +0.000 A 
ATOM     22  O   UNL     1       0.880  14.390  19.475  0.00  0.00    +0.000 OA
ENDBRANCH  11  14
ENDBRANCH   1  12
BRANCH   9  23
ATOM     23  C   UNL     1       3.267   6.103  19.674  0.00  0.00    +0.000 C 
BRANCH  23  24
ATOM     24  C   UNL     1       2.399   4.893  19.421  0.00  0.00    +0.000 A 
ATOM     25  C   UNL     1       1.629   4.334  20.453  0.00  0.00    +0.000 A 
ATOM     26  C   UNL     1       0.787   3.247  20.203  0.00  0.00    +0.000 A 
ATOM     27  C   UNL     1       0.700   2.711  18.921  0.00  0.00    +0.000 A 
ATOM     28  C   UNL     1       1.455   3.258  17.886  0.00  0.00    +0.000 A 
ATOM     29  C   UNL     1       2.297   4.343  18.134  0.00  0.00    +0.000 A 
ENDBRANCH  23  24
ENDBRANCH   9  23
TORSDOF 4
ENDMDL
MODEL 5
REMARK VINA RESULT:      -8.0      1.556      2.406
REMARK  Name = 
REMARK  4 active torsions:
REMARK  status: ('A' for Active; 'I' for Inactive)
REMARK    1  A    between atoms: C_2  and  C_20
REMARK    2  A    between atoms: N_3  and  C_4
REMARK    3  A    between atoms: N_12  and  C_13
REMARK    4  A    between atoms: C_13  and  C_14
REMARK                            x       y       z     vdW  Elec       q    Type
REMARK                         _______ _______ _______ _____ _____    ______ ____
ROOT
ATOM      1  C   UNL     1      -0.370  10.599  20.096  0.00  0.00    +0.000 C 
ATOM      2  C   UNL     1      -0.562  10.352  21.607  0.00  0.00    +0.000 C 
ATOM      3  C   UNL     1       0.301   9.301  22.345  0.00  0.00    +0.000 C 
ATOM      4  C   UNL     1       1.285   8.408  21.578  0.00  0.00    +0.000 C 
ATOM      5  C   UNL     1       1.351   8.731  20.144  0.00  0.00    +0.000 A 
ATOM      6  C   UNL     1       0.622   9.685  19.475  0.00  0.00    +0.000 A 
ATOM      7  C   UNL     1       1.026   9.550  18.131  0.00  0.00    +0.000 A 
ATOM      8  N   UNL     1       1.938   8.589  17.962  0.00  0.00    +0.000 NA
ATOM      9  N   UNL     1       2.141   8.105  19.211  0.00  0.00    +0.000 N 
ENDROOT
BRANCH   1  12
ATOM     10  O   UNL     1       1.833  12.046  21.319  0.00  0.00    +0.000 OA
ATOM     11  C   UNL     1       1.138  12.577  20.461  0.00  0.00    +0.000 C 
ATOM     12  N   UNL     1       0.072  11.951  19.829  0.00  0.00    +0.000 N 
ATOM     13  H   UNL     1      -0.290  12.417  19.001  0.00  0.00    +0.000 HD
BRANCH  11  14
ATOM     14  C   UNL     1       1.220  14.050  20.067  0.00  0.00    +0.000 C 
ATOM     15  C   UNL     1       2.333  14.470  19.105  0.00  0.00    +0.000 C 
ATOM     16  C   UNL     1       1.665  15.697  18.584  0.00  0.00    +0.000 A 
ATOM     17  C   UNL     1       2.177  16.831  17.979  0.00  0.00    +0.000 A 
ATOM     18  C   UNL     1       1.279  17.838  17.601  0.00  0.00    +0.000 A 
ATOM     19  C   UNL     1      -0.107  17.687  17.797  0.00  0.00    +0.000 A 
ATOM     20  C   UNL     1      -0.611  16.532  18.389  0.00  0.00    +0.000 A 
ATOM     21  C   UNL     1       0.297  15.577  18.792  0.00  0.00    +0.000 A 
ATOM     22  O   UNL     1      -0.048  14.444  19.478  0.00  0.00    +0.000 OA
ENDBRANCH  11  14
ENDBRANCH   1  12
BRANCH   9  23
ATOM     23  C   UNL     1       3.005   6.942  19.399  0.00  0.00    +0.000 C 
BRANCH  23  24
ATOM     24  C   UNL     1       2.270   5.627  19.284  0.00  0.00    +0.000 A 
ATOM     25  C   UNL     1       1.674   5.037  20.410  0.00  0.00    +0.000 A 
ATOM     26  C   UNL     1       0.950   3.849  20.290  0.00  0.00    +0.000 A 
ATOM     27  C   UNL     1       0.809   3.238  19.047  0.00  0.00    +0.000 A 
ATOM     28  C   UNL     1       1.392   3.814  17.921  0.00  0.00    +0.000 A 
ATOM     29  C   UNL     1       2.116   5.001  18.037  0.00  0.00    +0.000 A 
ENDBRANCH  23  24
ENDBRANCH   9  23
TORSDOF 4
ENDMDL
MODEL 6
REMARK VINA RESULT:      -8.0      4.216      8.065
REMARK  Name = 
REMARK  4 active torsions:
REMARK  status: ('A' for Active; 'I' for Inactive)
REMARK    1  A    between atoms: C_2  and  C_20
REMARK    2  A    between atoms: N_3  and  C_4
REMARK    3  A    between atoms: N_12  and  C_13
REMARK    4  A    between atoms: C_13  and  C_14
REMARK                            x       y       z     vdW  Elec       q    Type
REMARK                         _______ _______ _______ _____ _____    ______ ____
ROOT
ATOM      1  C   UNL     1      -0.792  11.847  18.880  0.00  0.00    +0.000 C 
ATOM      2  C   UNL     1      -0.825  12.450  20.299  0.00  0.00    +0.000 C 
ATOM      3  C   UNL     1      -2.175  12.761  20.987  0.00  0.00    +0.000 C 
ATOM      4  C   UNL     1      -3.503  12.580  20.239  0.00  0.00    +0.000 C 
ATOM      5  C   UNL     1      -3.327  12.022  18.889  0.00  0.00    +0.000 A 
ATOM      6  C   UNL     1      -2.139  11.703  18.272  0.00  0.00    +0.000 A 
ATOM      7  C   UNL     1      -2.524  11.261  16.990  0.00  0.00    +0.000 A 
ATOM      8  N   UNL     1      -3.846  11.294  16.810  0.00  0.00    +0.000 NA
ATOM      9  N   UNL     1      -4.329  11.749  17.991  0.00  0.00    +0.000 N 
ENDROOT
BRANCH   1  12
ATOM     10  O   UNL     1       1.976  11.154  18.331  0.00  0.00    +0.000 OA
ATOM     11  C   UNL     1       1.155  10.283  18.596  0.00  0.00    +0.000 C 
ATOM     12  N   UNL     1      -0.181  10.534  18.873  0.00  0.00    +0.000 N 
ATOM     13  H   UNL     1      -0.706   9.761  19.274  0.00  0.00    +0.000 HD
BRANCH  11  14
ATOM     14  C   UNL     1       1.423   8.783  18.503  0.00  0.00    +0.000 C 
ATOM     15  C   UNL     1       2.645   8.324  17.705  0.00  0.00    +0.000 C 
ATOM     16  C   UNL     1       2.820   7.008  18.384  0.00  0.00    +0.000 A 
ATOM     17  C   UNL     1       3.452   5.846  17.980  0.00  0.00    +0.000 A 
ATOM     18  C   UNL     1       3.439   4.751  18.855  0.00  0.00    +0.000 A 
ATOM     19  C   UNL     1       2.833   4.841  20.122  0.00  0.00    +0.000 A 
ATOM     20  C   UNL     1       2.218   6.023  20.524  0.00  0.00    +0.000 A 
ATOM     21  C   UNL     1       2.205   7.069  19.628  0.00  0.00    +0.000 A 
ATOM     22  O   UNL     1       1.548   8.249  19.850  0.00  0.00    +0.000 OA
ENDBRANCH  11  14
ENDBRANCH   1  12
BRANCH   9  23
ATOM     23  C   UNL     1      -5.757  12.029  18.124  0.00  0.00    +0.000 C 
BRANCH  23  24
ATOM     24  C   UNL     1      -6.459  11.099  19.085  0.00  0.00    +0.000 A 
ATOM     25  C   UNL     1      -7.221  11.608  20.149  0.00  0.00    +0.000 A 
ATOM     26  C   UNL     1      -7.913  10.746  21.004  0.00  0.00    +0.000 A 
ATOM     27  C   UNL     1      -7.855   9.369  20.805  0.00  0.00    +0.000 A 
ATOM     28  C   UNL     1      -7.107   8.850  19.752  0.00  0.00    +0.000 A 
ATOM     29  C   UNL     1      -6.415   9.709  18.896  0.00  0.00    +0.000 A 
ENDBRANCH  23  24
ENDBRANCH   9  23
TORSDOF 4
ENDMDL
MODEL 7
REMARK VINA RESULT:      -7.8      1.646      2.230
REMARK  Name = 
REMARK  4 active torsions:
REMARK  status: ('A' for Active; 'I' for Inactive)
REMARK    1  A    between atoms: C_2  and  C_20
REMARK    2  A    between atoms: N_3  and  C_4
REMARK    3  A    between atoms: N_12  and  C_13
REMARK    4  A    between atoms: C_13  and  C_14
REMARK                            x       y       z     vdW  Elec       q    Type
REMARK                         _______ _______ _______ _____ _____    ______ ____
ROOT
ATOM      1  C   UNL     1      -0.395  10.621  20.607  0.00  0.00    +0.000 C 
ATOM      2  C   UNL     1      -0.469  10.245  22.101  0.00  0.00    +0.000 C 
ATOM      3  C   UNL     1       0.446   9.139  22.677  0.00  0.00    +0.000 C 
ATOM      4  C   UNL     1       1.366   8.319  21.763  0.00  0.00    +0.000 C 
ATOM      5  C   UNL     1       1.322   8.764  20.360  0.00  0.00    +0.000 A 
ATOM      6  C   UNL     1       0.545   9.769  19.834  0.00  0.00    +0.000 A 
ATOM      7  C   UNL     1       0.843   9.752  18.456  0.00  0.00    +0.000 A 
ATOM      8  N   UNL     1       1.738   8.814  18.136  0.00  0.00    +0.000 NA
ATOM      9  N   UNL     1       2.035   8.225  19.319  0.00  0.00    +0.000 N 
ENDROOT
BRANCH   1  12
ATOM     10  O   UNL     1      -2.011  13.033  20.728  0.00  0.00    +0.000 OA
ATOM     11  C   UNL     1      -0.810  13.098  20.494  0.00  0.00    +0.000 C 
ATOM     12  N   UNL     1       0.028  11.994  20.423  0.00  0.00    +0.000 N 
ATOM     13  H   UNL     1       1.026  12.191  20.427  0.00  0.00    +0.000 HD
BRANCH  11  14
ATOM     14  C   UNL     1      -0.075  14.371  20.080  0.00  0.00    +0.000 C 
ATOM     15  C   UNL     1       1.250  14.218  19.330  0.00  0.00    +0.000 C 
ATOM     16  C   UNL     1       1.231  15.549  18.658  0.00  0.00    +0.000 A 
ATOM     17  C   UNL     1       2.247  16.321  18.127  0.00  0.00    +0.000 A 
ATOM     18  C   UNL     1       1.909  17.556  17.559  0.00  0.00    +0.000 A 
ATOM     19  C   UNL     1       0.569  17.984  17.496  0.00  0.00    +0.000 A 
ATOM     20  C   UNL     1      -0.448  17.188  18.017  0.00  0.00    +0.000 A 
ATOM     21  C   UNL     1      -0.083  15.999  18.611  0.00  0.00    +0.000 A 
ATOM     22  O   UNL     1      -0.963  15.171  19.253  0.00  0.00    +0.000 OA
ENDBRANCH  11  14
ENDBRANCH   1  12
BRANCH   9  23
ATOM     23  C   UNL     1       2.910   7.054  19.339  0.00  0.00    +0.000 C 
BRANCH  23  24
ATOM     24  C   UNL     1       2.160   5.747  19.236  0.00  0.00    +0.000 A 
ATOM     25  C   UNL     1       2.040   5.083  18.005  0.00  0.00    +0.000 A 
ATOM     26  C   UNL     1       1.391   3.848  17.923  0.00  0.00    +0.000 A 
ATOM     27  C   UNL     1       0.858   3.261  19.068  0.00  0.00    +0.000 A 
ATOM     28  C   UNL     1       0.973   3.907  20.297  0.00  0.00    +0.000 A 
ATOM     29  C   UNL     1       1.621   5.141  20.381  0.00  0.00    +0.000 A 
ENDBRANCH  23  24
ENDBRANCH   9  23
TORSDOF 4
ENDMDL
MODEL 8
REMARK VINA RESULT:      -7.7      4.277      6.750
REMARK  Name = 
REMARK  4 active torsions:
REMARK  status: ('A' for Active; 'I' for Inactive)
REMARK    1  A    between atoms: C_2  and  C_20
REMARK    2  A    between atoms: N_3  and  C_4
REMARK    3  A    between atoms: N_12  and  C_13
REMARK    4  A    between atoms: C_13  and  C_14
REMARK                            x       y       z     vdW  Elec       q    Type
REMARK                         _______ _______ _______ _____ _____    ______ ____
ROOT
ATOM      1  C   UNL     1       2.834   5.490  18.597  0.00  0.00    +0.000 C 
ATOM      2  C   UNL     1       3.185   4.283  19.491  0.00  0.00    +0.000 C 
ATOM      3  C   UNL     1       4.585   3.629  19.409  0.00  0.00    +0.000 C 
ATOM      4  C   UNL     1       5.613   4.091  18.368  0.00  0.00    +0.000 C 
ATOM      5  C   UNL     1       5.141   5.231  17.566  0.00  0.00    +0.000 A 
ATOM      6  C   UNL     1       3.917   5.852  17.648  0.00  0.00    +0.000 A 
ATOM      7  C   UNL     1       3.960   6.836  16.639  0.00  0.00    +0.000 A 
ATOM      8  N   UNL     1       5.118   6.840  15.973  0.00  0.00    +0.000 NA
ATOM      9  N   UNL     1       5.841   5.859  16.564  0.00  0.00    +0.000 N 
ENDROOT
BRANCH   1  12
ATOM     10  O   UNL     1       1.049   5.744  20.876  0.00  0.00    +0.000 OA
ATOM     11  C   UNL     1       1.676   6.713  20.463  0.00  0.00    +0.000 C 
ATOM     12  N   UNL     1       2.548   6.671  19.384  0.00  0.00    +0.000 N 
ATOM     13  H   UNL     1       3.154   7.479  19.270  0.00  0.00    +0.000 HD
BRANCH  11  14
ATOM     14  C   UNL     1       1.477   8.146  20.952  0.00  0.00    +0.000 C 
ATOM     15  C   UNL     1       1.190   9.224  19.904  0.00  0.00    +0.000 C 
ATOM     16  C   UNL     1       0.506  10.184  20.817  0.00  0.00    +0.000 A 
ATOM     17  C   UNL     1       0.301  11.548  20.724  0.00  0.00    +0.000 A 
ATOM     18  C   UNL     1      -0.382  12.185  21.768  0.00  0.00    +0.000 A 
ATOM     19  C   UNL     1      -0.878  11.454  22.864  0.00  0.00    +0.000 A 
ATOM     20  C   UNL     1      -0.682  10.077  22.937  0.00  0.00    +0.000 A 
ATOM     21  C   UNL     1       0.033   9.483  21.919  0.00  0.00    +0.000 A 
ATOM     22  O   UNL     1       0.388   8.161  21.914  0.00  0.00    +0.000 OA
ENDBRANCH  11  14
ENDBRANCH   1  12
BRANCH   9  23
ATOM     23  C   UNL     1       7.142   5.493  16.011  0.00  0.00    +0.000 C 
BRANCH  23  24
ATOM     24  C   UNL     1       7.059   4.930  14.611  0.00  0.00    +0.000 A 
ATOM     25  C   UNL     1       6.148   3.908  14.302  0.00  0.00    +0.000 A 
ATOM     26  C   UNL     1       6.036   3.426  12.995  0.00  0.00    +0.000 A 
ATOM     27  C   UNL     1       6.828   3.961  11.983  0.00  0.00    +0.000 A 
ATOM     28  C   UNL     1       7.734   4.978  12.274  0.00  0.00    +0.000 A 
ATOM     29  C   UNL     1       7.847   5.461  13.579  0.00  0.00    +0.000 A 
ENDBRANCH  23  24
ENDBRANCH   9  23
TORSDOF 4
ENDMDL
MODEL 9
REMARK VINA RESULT:      -7.7      1.872      2.253
REMARK  Name = 
REMARK  4 active torsions:
REMARK  status: ('A' for Active; 'I' for Inactive)
REMARK    1  A    between atoms: C_2  and  C_20
REMARK    2  A    between atoms: N_3  and  C_4
REMARK    3  A    between atoms: N_12  and  C_13
REMARK    4  A    between atoms: C_13  and  C_14
REMARK                            x       y       z     vdW  Elec       q    Type
REMARK                         _______ _______ _______ _____ _____    ______ ____
ROOT
ATOM      1  C   UNL     1      -0.392  10.588  19.763  0.00  0.00    +0.000 C 
ATOM      2  C   UNL     1      -0.603  10.462  21.286  0.00  0.00    +0.000 C 
ATOM      3  C   UNL     1       0.244   9.466  22.114  0.00  0.00    +0.000 C 
ATOM      4  C   UNL     1       1.230   8.510  21.432  0.00  0.00    +0.000 C 
ATOM      5  C   UNL     1       1.315   8.719  19.977  0.00  0.00    +0.000 A 
ATOM      6  C   UNL     1       0.600   9.623  19.227  0.00  0.00    +0.000 A 
ATOM      7  C   UNL     1       1.019   9.380  17.902  0.00  0.00    +0.000 A 
ATOM      8  N   UNL     1       1.927   8.404  17.821  0.00  0.00    +0.000 NA
ATOM      9  N   UNL     1       2.111   8.017  19.106  0.00  0.00    +0.000 N 
ENDROOT
BRANCH   1  12
ATOM     10  O   UNL     1       1.642  12.214  21.053  0.00  0.00    +0.000 OA
ATOM     11  C   UNL     1       1.043  12.629  20.068  0.00  0.00    +0.000 C 
ATOM     12  N   UNL     1       0.062  11.912  19.396  0.00  0.00    +0.000 N 
ATOM     13  H   UNL     1      -0.209  12.275  18.486  0.00  0.00    +0.000 HD
BRANCH  11  14
ATOM     14  C   UNL     1       1.152  14.051  19.523  0.00  0.00    +0.000 C 
ATOM     15  C   UNL     1      -0.028  14.600  18.718  0.00  0.00    +0.000 C 
ATOM     16  C   UNL     1       0.250  16.045  18.954  0.00  0.00    +0.000 A 
ATOM     17  C   UNL     1      -0.124  17.176  18.252  0.00  0.00    +0.000 A 
ATOM     18  C   UNL     1       0.309  18.421  18.727  0.00  0.00    +0.000 A 
ATOM     19  C   UNL     1       1.072  18.523  19.906  0.00  0.00    +0.000 A 
ATOM     20  C   UNL     1       1.426  17.378  20.615  0.00  0.00    +0.000 A 
ATOM     21  C   UNL     1       1.026  16.164  20.101  0.00  0.00    +0.000 A 
ATOM     22  O   UNL     1       1.389  14.957  20.635  0.00  0.00    +0.000 OA
ENDBRANCH  11  14
ENDBRANCH   1  12
BRANCH   9  23
ATOM     23  C   UNL     1       2.966   6.868  19.394  0.00  0.00    +0.000 C 
BRANCH  23  24
ATOM     24  C   UNL     1       2.224   5.552  19.368  0.00  0.00    +0.000 A 
ATOM     25  C   UNL     1       2.074   4.836  18.170  0.00  0.00    +0.000 A 
ATOM     26  C   UNL     1       1.434   3.594  18.158  0.00  0.00    +0.000 A 
ATOM     27  C   UNL     1       0.941   3.051  19.342  0.00  0.00    +0.000 A 
ATOM     28  C   UNL     1       1.086   3.749  20.539  0.00  0.00    +0.000 A 
ATOM     29  C   UNL     1       1.725   4.989  20.553  0.00  0.00    +0.000 A 
ENDBRANCH  23  24
ENDBRANCH   9  23
TORSDOF 4
ENDMDL
