MODEL 1
REMARK VINA RESULT:      -8.5      0.000      0.000
REMARK  Name = 
REMARK  4 active torsions:
REMARK  status: ('A' for Active; 'I' for Inactive)
REMARK    1  A    between atoms: C_2  and  C_3
REMARK    2  A    between atoms: C_3  and  N_4
REMARK    3  A    between atoms: N_15  and  C_16
REMARK    4  A    between atoms: C_19  and  C_20
REMARK                            x       y       z     vdW  Elec       q    Type
REMARK                         _______ _______ _______ _____ _____    ______ ____
ROOT
ATOM      1  O   UNL     1       1.576   4.578  17.795  0.00  0.00    +0.000 OA
ATOM      2  C   UNL     1       2.776   4.787  17.969  0.00  0.00    +0.000 C 
ATOM      3  N   UNL     1       3.348   5.999  18.334  0.00  0.00    +0.000 N 
ATOM      4  H   UNL     1       4.341   6.115  18.142  0.00  0.00    +0.000 HD
ENDROOT
BRANCH   3   5
ATOM      5  C   UNL     1       2.629   7.161  18.697  0.00  0.00    +0.000 A 
ATOM      6  C   UNL     1       2.156   7.383  19.987  0.00  0.00    +0.000 A 
ATOM      7  C   UNL     1       1.317   8.464  20.268  0.00  0.00    +0.000 A 
ATOM      8  C   UNL     1       0.948   9.391  19.278  0.00  0.00    +0.000 A 
ATOM      9  C   UNL     1       1.536   9.220  18.011  0.00  0.00    +0.000 A 
ATOM     10  C   UNL     1       2.363   8.125  17.721  0.00  0.00    +0.000 A 
BRANCH   8  11
ATOM     11  C   UNL     1      -0.048  10.455  19.554  0.00  0.00    +0.000 A 
ATOM     12  C   UNL     1      -0.609  11.230  18.521  0.00  0.00    +0.000 A 
ATOM     13  C   UNL     1      -1.494  12.281  18.787  0.00  0.00    +0.000 A 
ATOM     14  C   UNL     1      -1.856  12.571  20.099  0.00  0.00    +0.000 A 
ATOM     15  C   UNL     1      -1.330  11.815  21.140  0.00  0.00    +0.000 A 
ATOM     16  C   UNL     1      -0.433  10.777  20.870  0.00  0.00    +0.000 A 
ENDBRANCH   8  11
ENDBRANCH   3   5
BRANCH   2  17
ATOM     17  C   UNL     1       3.790   3.669  17.720  0.00  0.00    +0.000 C 
BRANCH  17  18
ATOM     18  N   UNL     1       5.121   4.170  17.399  0.00  0.00    +0.000 N 
ATOM     19  C   UNL     1       5.965   4.455  18.461  0.00  0.00    +0.000 A 
ATOM     20  O   UNL     1       5.653   4.391  19.647  0.00  0.00    +0.000 OA
ATOM     21  C   UNL     1       7.371   4.863  18.114  0.00  0.00    +0.000 A 
ATOM     22  N   UNL     1       7.828   4.958  16.904  0.00  0.00    +0.000 NA
ATOM     23  C   UNL     1       6.944   4.667  15.853  0.00  0.00    +0.000 A 
ATOM     24  C   UNL     1       7.456   4.741  14.550  0.00  0.00    +0.000 A 
ATOM     25  C   UNL     1       6.654   4.453  13.450  0.00  0.00    +0.000 A 
ATOM     26  C   UNL     1       5.317   4.119  13.648  0.00  0.00    +0.000 A 
ATOM     27  C   UNL     1       4.787   4.053  14.939  0.00  0.00    +0.000 A 
ATOM     28  C   UNL     1       5.597   4.300  16.058  0.00  0.00    +0.000 A 
ENDBRANCH  17  18
ENDBRANCH   2  17
TORSDOF 4
ENDMDL
MODEL 2
REMARK VINA RESULT:      -8.3      0.588      1.429
REMARK  Name = 
REMARK  4 active torsions:
REMARK  status: ('A' for Active; 'I' for Inactive)
REMARK    1  A    between atoms: C_2  and  C_3
REMARK    2  A    between atoms: C_3  and  N_4
REMARK    3  A    between atoms: N_15  and  C_16
REMARK    4  A    between atoms: C_19  and  C_20
REMARK                            x       y       z     vdW  Elec       q    Type
REMARK                         _______ _______ _______ _____ _____    ______ ____
ROOT
ATOM      1  O   UNL     1       1.667   4.643  17.862  0.00  0.00    +0.000 OA
ATOM      2  C   UNL     1       2.814   4.925  18.210  0.00  0.00    +0.000 C 
ATOM      3  N   UNL     1       3.256   6.175  18.624  0.00  0.00    +0.000 N 
ATOM      4  H   UNL     1       4.259   6.343  18.582  0.00  0.00    +0.000 HD
ENDROOT
BRANCH   3   5
ATOM      5  C   UNL     1       2.428   7.300  18.843  0.00  0.00    +0.000 A 
ATOM      6  C   UNL     1       2.105   8.204  17.835  0.00  0.00    +0.000 A 
ATOM      7  C   UNL     1       1.416   9.385  18.125  0.00  0.00    +0.000 A 
ATOM      8  C   UNL     1       0.988   9.691  19.429  0.00  0.00    +0.000 A 
ATOM      9  C   UNL     1       1.215   8.707  20.409  0.00  0.00    +0.000 A 
ATOM     10  C   UNL     1       1.924   7.529  20.125  0.00  0.00    +0.000 A 
BRANCH   8  11
ATOM     11  C   UNL     1       0.378  11.004  19.749  0.00  0.00    +0.000 A 
ATOM     12  C   UNL     1       0.280  11.472  21.074  0.00  0.00    +0.000 A 
ATOM     13  C   UNL     1      -0.359  12.678  21.383  0.00  0.00    +0.000 A 
ATOM     14  C   UNL     1      -0.902  13.458  20.367  0.00  0.00    +0.000 A 
ATOM     15  C   UNL     1      -0.808  13.032  19.048  0.00  0.00    +0.000 A 
ATOM     16  C   UNL     1      -0.183  11.817  18.746  0.00  0.00    +0.000 A 
ENDBRANCH   8  11
ENDBRANCH   3   5
BRANCH   2  17
ATOM     17  C   UNL     1       3.913   3.863  18.149  0.00  0.00    +0.000 C 
BRANCH  17  18
ATOM     18  N   UNL     1       5.201   4.402  17.732  0.00  0.00    +0.000 N 
ATOM     19  C   UNL     1       6.066   4.820  18.731  0.00  0.00    +0.000 A 
ATOM     20  O   UNL     1       5.802   4.842  19.930  0.00  0.00    +0.000 OA
ATOM     21  C   UNL     1       7.435   5.269  18.293  0.00  0.00    +0.000 A 
ATOM     22  N   UNL     1       7.841   5.282  17.062  0.00  0.00    +0.000 NA
ATOM     23  C   UNL     1       6.937   4.857  16.077  0.00  0.00    +0.000 A 
ATOM     24  C   UNL     1       7.396   4.845  14.752  0.00  0.00    +0.000 A 
ATOM     25  C   UNL     1       6.571   4.422  13.714  0.00  0.00    +0.000 A 
ATOM     26  C   UNL     1       5.263   4.038  13.994  0.00  0.00    +0.000 A 
ATOM     27  C   UNL     1       4.785   4.056  15.307  0.00  0.00    +0.000 A 
ATOM     28  C   UNL     1       5.620   4.440  16.367  0.00  0.00    +0.000 A 
ENDBRANCH  17  18
ENDBRANCH   2  17
TORSDOF 4
ENDMDL
MODEL 3
REMARK VINA RESULT:      -8.3      1.076      1.853
REMARK  Name = 
REMARK  4 active torsions:
REMARK  status: ('A' for Active; 'I' for Inactive)
REMARK    1  A    between atoms: C_2  and  C_3
REMARK    2  A    between atoms: C_3  and  N_4
REMARK    3  A    between atoms: N_15  and  C_16
REMARK    4  A    between atoms: C_19  and  C_20
REMARK                            x       y       z     vdW  Elec       q    Type
REMARK                         _______ _______ _______ _____ _____    ______ ____
ROOT
ATOM      1  O   UNL     1       1.745   3.795  17.996  0.00  0.00    +0.000 OA
ATOM      2  C   UNL     1       2.917   4.154  18.106  0.00  0.00    +0.000 C 
ATOM      3  N   UNL     1       3.352   5.382  18.589  0.00  0.00    +0.000 N 
ATOM      4  H   UNL     1       4.298   5.663  18.340  0.00  0.00    +0.000 HD
ENDROOT
BRANCH   3   5
ATOM      5  C   UNL     1       2.520   6.374  19.158  0.00  0.00    +0.000 A 
ATOM      6  C   UNL     1       2.360   7.637  18.596  0.00  0.00    +0.000 A 
ATOM      7  C   UNL     1       1.656   8.638  19.270  0.00  0.00    +0.000 A 
ATOM      8  C   UNL     1       1.050   8.405  20.516  0.00  0.00    +0.000 A 
ATOM      9  C   UNL     1       1.116   7.088  21.007  0.00  0.00    +0.000 A 
ATOM     10  C   UNL     1       1.839   6.086  20.343  0.00  0.00    +0.000 A 
BRANCH   8  11
ATOM     11  C   UNL     1       0.421   9.508  21.284  0.00  0.00    +0.000 A 
ATOM     12  C   UNL     1      -0.146   9.296  22.556  0.00  0.00    +0.000 A 
ATOM     13  C   UNL     1      -0.801  10.320  23.249  0.00  0.00    +0.000 A 
ATOM     14  C   UNL     1      -0.889  11.592  22.692  0.00  0.00    +0.000 A 
ATOM     15  C   UNL     1      -0.327  11.837  21.445  0.00  0.00    +0.000 A 
ATOM     16  C   UNL     1       0.313  10.806  20.749  0.00  0.00    +0.000 A 
ENDBRANCH   8  11
ENDBRANCH   3   5
BRANCH   2  17
ATOM     17  C   UNL     1       4.045   3.234  17.635  0.00  0.00    +0.000 C 
BRANCH  17  18
ATOM     18  N   UNL     1       5.270   3.956  17.316  0.00  0.00    +0.000 N 
ATOM     19  C   UNL     1       6.056   4.372  18.379  0.00  0.00    +0.000 A 
ATOM     20  O   UNL     1       5.763   4.247  19.565  0.00  0.00    +0.000 OA
ATOM     21  C   UNL     1       7.372   5.015  18.034  0.00  0.00    +0.000 A 
ATOM     22  N   UNL     1       7.803   5.195  16.824  0.00  0.00    +0.000 NA
ATOM     23  C   UNL     1       6.980   4.767  15.772  0.00  0.00    +0.000 A 
ATOM     24  C   UNL     1       7.468   4.936  14.470  0.00  0.00    +0.000 A 
ATOM     25  C   UNL     1       6.724   4.525  13.368  0.00  0.00    +0.000 A 
ATOM     26  C   UNL     1       5.464   3.967  13.564  0.00  0.00    +0.000 A 
ATOM     27  C   UNL     1       4.955   3.802  14.856  0.00  0.00    +0.000 A 
ATOM     28  C   UNL     1       5.714   4.175  15.976  0.00  0.00    +0.000 A 
ENDBRANCH  17  18
ENDBRANCH   2  17
TORSDOF 4
ENDMDL
MODEL 4
REMARK VINA RESULT:      -8.2      4.268     10.582
REMARK  Name = 
REMARK  4 active torsions:
REMARK  status: ('A' for Active; 'I' for Inactive)
REMARK    1  A    between atoms: C_2  and  C_3
REMARK    2  A    between atoms: C_3  and  N_4
REMARK    3  A    between atoms: N_15  and  C_16
REMARK    4  A    between atoms: C_19  and  C_20
REMARK                            x       y       z     vdW  Elec       q    Type
REMARK                         _______ _______ _______ _____ _____    ______ ____
ROOT
ATOM      1  O   UNL     1      -1.777  10.536  18.906  0.00  0.00    +0.000 OA
ATOM      2  C   UNL     1      -1.031  11.304  19.513  0.00  0.00    +0.000 C 
ATOM      3  N   UNL     1       0.295  11.059  19.848  0.00  0.00    +0.000 N 
ATOM      4  H   UNL     1       0.690  11.622  20.599  0.00  0.00    +0.000 HD
ENDROOT
BRANCH   3   5
ATOM      5  C   UNL     1       1.046   9.937  19.428  0.00  0.00    +0.000 A 
ATOM      6  C   UNL     1       1.572   9.819  18.145  0.00  0.00    +0.000 A 
ATOM      7  C   UNL     1       2.170   8.629  17.722  0.00  0.00    +0.000 A 
ATOM      8  C   UNL     1       2.303   7.523  18.578  0.00  0.00    +0.000 A 
ATOM      9  C   UNL     1       1.879   7.705  19.907  0.00  0.00    +0.000 A 
ATOM     10  C   UNL     1       1.259   8.891  20.330  0.00  0.00    +0.000 A 
BRANCH   8  11
ATOM     11  C   UNL     1       2.818   6.223  18.080  0.00  0.00    +0.000 A 
ATOM     12  C   UNL     1       1.992   5.086  17.988  0.00  0.00    +0.000 A 
ATOM     13  C   UNL     1       2.494   3.843  17.586  0.00  0.00    +0.000 A 
ATOM     14  C   UNL     1       3.837   3.711  17.247  0.00  0.00    +0.000 A 
ATOM     15  C   UNL     1       4.675   4.819  17.314  0.00  0.00    +0.000 A 
ATOM     16  C   UNL     1       4.171   6.055  17.731  0.00  0.00    +0.000 A 
ENDBRANCH   8  11
ENDBRANCH   3   5
BRANCH   2  17
ATOM     17  C   UNL     1      -1.566  12.643  20.024  0.00  0.00    +0.000 C 
BRANCH  17  18
ATOM     18  N   UNL     1      -2.531  12.494  21.105  0.00  0.00    +0.000 N 
ATOM     19  C   UNL     1      -2.028  12.296  22.382  0.00  0.00    +0.000 A 
ATOM     20  O   UNL     1      -0.840  12.162  22.659  0.00  0.00    +0.000 OA
ATOM     21  C   UNL     1      -3.032  12.256  23.503  0.00  0.00    +0.000 A 
ATOM     22  N   UNL     1      -4.311  12.396  23.345  0.00  0.00    +0.000 NA
ATOM     23  C   UNL     1      -4.785  12.589  22.039  0.00  0.00    +0.000 A 
ATOM     24  C   UNL     1      -6.166  12.772  21.882  0.00  0.00    +0.000 A 
ATOM     25  C   UNL     1      -6.721  12.986  20.623  0.00  0.00    +0.000 A 
ATOM     26  C   UNL     1      -5.893  12.986  19.504  0.00  0.00    +0.000 A 
ATOM     27  C   UNL     1      -4.516  12.793  19.640  0.00  0.00    +0.000 A 
ATOM     28  C   UNL     1      -3.940  12.618  20.908  0.00  0.00    +0.000 A 
ENDBRANCH  17  18
ENDBRANCH   2  17
TORSDOF 4
ENDMDL
MODEL 5
REMARK VINA RESULT:      -8.2      4.300     10.339
REMARK  Name = 
REMARK  4 active torsions:
REMARK  status: ('A' for Active; 'I' for Inactive)
REMARK    1  A    between atoms: C_2  and  C_3
REMARK    2  A    between atoms: C_3  and  N_4
REMARK    3  A    between atoms: N_15  and  C_16
REMARK    4  A    between atoms: C_19  and  C_20
REMARK                            x       y       z     vdW  Elec       q    Type
REMARK                         _______ _______ _______ _____ _____    ______ ____
ROOT
ATOM      1  O   UNL     1      -1.753  10.103  17.770  0.00  0.00    +0.000 OA
ATOM      2  C   UNL     1      -1.227  11.000  18.430  0.00  0.00    +0.000 C 
ATOM      3  N   UNL     1      -0.020  10.910  19.112  0.00  0.00    +0.000 N 
ATOM      4  H   UNL     1       0.141  11.591  19.851  0.00  0.00    +0.000 HD
ENDROOT
BRANCH   3   5
ATOM      5  C   UNL     1       0.870   9.813  19.049  0.00  0.00    +0.000 A 
ATOM      6  C   UNL     1       1.600   9.499  17.906  0.00  0.00    +0.000 A 
ATOM      7  C   UNL     1       2.346   8.319  17.833  0.00  0.00    +0.000 A 
ATOM      8  C   UNL     1       2.424   7.426  18.915  0.00  0.00    +0.000 A 
ATOM      9  C   UNL     1       1.781   7.822  20.102  0.00  0.00    +0.000 A 
ATOM     10  C   UNL     1       1.015   8.996  20.173  0.00  0.00    +0.000 A 
BRANCH   8  11
ATOM     11  C   UNL     1       3.106   6.115  18.781  0.00  0.00    +0.000 A 
ATOM     12  C   UNL     1       3.744   5.730  17.587  0.00  0.00    +0.000 A 
ATOM     13  C   UNL     1       4.326   4.466  17.438  0.00  0.00    +0.000 A 
ATOM     14  C   UNL     1       4.300   3.559  18.492  0.00  0.00    +0.000 A 
ATOM     15  C   UNL     1       3.691   3.915  19.690  0.00  0.00    +0.000 A 
ATOM     16  C   UNL     1       3.097   5.173  19.828  0.00  0.00    +0.000 A 
ENDBRANCH   8  11
ENDBRANCH   3   5
BRANCH   2  17
ATOM     17  C   UNL     1      -1.943  12.341  18.603  0.00  0.00    +0.000 C 
BRANCH  17  18
ATOM     18  N   UNL     1      -2.966  12.308  19.640  0.00  0.00    +0.000 N 
ATOM     19  C   UNL     1      -2.564  12.591  20.936  0.00  0.00    +0.000 A 
ATOM     20  O   UNL     1      -1.405  12.790  21.288  0.00  0.00    +0.000 OA
ATOM     21  C   UNL     1      -3.649  12.664  21.977  0.00  0.00    +0.000 A 
ATOM     22  N   UNL     1      -4.910  12.485  21.734  0.00  0.00    +0.000 NA
ATOM     23  C   UNL     1      -5.280  12.196  20.412  0.00  0.00    +0.000 A 
ATOM     24  C   UNL     1      -6.648  12.036  20.153  0.00  0.00    +0.000 A 
ATOM     25  C   UNL     1      -7.105  11.763  18.866  0.00  0.00    +0.000 A 
ATOM     26  C   UNL     1      -6.186  11.616  17.832  0.00  0.00    +0.000 A 
ATOM     27  C   UNL     1      -4.816  11.760  18.075  0.00  0.00    +0.000 A 
ATOM     28  C   UNL     1      -4.347  12.076  19.359  0.00  0.00    +0.000 A 
ENDBRANCH  17  18
ENDBRANCH   2  17
TORSDOF 4
ENDMDL
MODEL 6
REMARK VINA RESULT:      -8.1      4.110      9.846
REMARK  Name = 
REMARK  4 active torsions:
REMARK  status: ('A' for Active; 'I' for Inactive)
REMARK    1  A    between atoms: C_2  and  C_3
REMARK    2  A    between atoms: C_3  and  N_4
REMARK    3  A    between atoms: N_15  and  C_16
REMARK    4  A    between atoms: C_19  and  C_20
REMARK                            x       y       z     vdW  Elec       q    Type
REMARK                         _______ _______ _______ _____ _____    ______ ____
ROOT
ATOM      1  O   UNL     1      -0.664   9.824  17.963  0.00  0.00    +0.000 OA
ATOM      2  C   UNL     1       0.094  10.497  18.662  0.00  0.00    +0.000 C 
ATOM      3  N   UNL     1       1.214  10.026  19.335  0.00  0.00    +0.000 N 
ATOM      4  H   UNL     1       1.559  10.596  20.105  0.00  0.00    +0.000 HD
ENDROOT
BRANCH   3   5
ATOM      5  C   UNL     1       1.745   8.721  19.220  0.00  0.00    +0.000 A 
ATOM      6  C   UNL     1       2.349   8.252  18.057  0.00  0.00    +0.000 A 
ATOM      7  C   UNL     1       2.717   6.911  17.929  0.00  0.00    +0.000 A 
ATOM      8  C   UNL     1       2.532   5.991  18.975  0.00  0.00    +0.000 A 
ATOM      9  C   UNL     1       2.036   6.510  20.185  0.00  0.00    +0.000 A 
ATOM     10  C   UNL     1       1.647   7.853  20.310  0.00  0.00    +0.000 A 
BRANCH   8  11
ATOM     11  C   UNL     1       2.802   4.544  18.784  0.00  0.00    +0.000 A 
ATOM     12  C   UNL     1       2.187   3.806  17.754  0.00  0.00    +0.000 A 
ATOM     13  C   UNL     1       2.386   2.428  17.618  0.00  0.00    +0.000 A 
ATOM     14  C   UNL     1       3.224   1.755  18.501  0.00  0.00    +0.000 A 
ATOM     15  C   UNL     1       3.857   2.458  19.519  0.00  0.00    +0.000 A 
ATOM     16  C   UNL     1       3.642   3.832  19.661  0.00  0.00    +0.000 A 
ENDBRANCH   8  11
ENDBRANCH   3   5
BRANCH   2  17
ATOM     17  C   UNL     1      -0.200  11.979  18.899  0.00  0.00    +0.000 C 
BRANCH  17  18
ATOM     18  N   UNL     1      -0.890  12.227  20.158  0.00  0.00    +0.000 N 
ATOM     19  C   UNL     1      -0.105  12.467  21.275  0.00  0.00    +0.000 A 
ATOM     20  O   UNL     1       1.121  12.412  21.301  0.00  0.00    +0.000 OA
ATOM     21  C   UNL     1      -0.830  12.833  22.542  0.00  0.00    +0.000 A 
ATOM     22  N   UNL     1      -2.119  12.936  22.644  0.00  0.00    +0.000 NA
ATOM     23  C   UNL     1      -2.882  12.681  21.495  0.00  0.00    +0.000 A 
ATOM     24  C   UNL     1      -4.272  12.827  21.606  0.00  0.00    +0.000 A 
ATOM     25  C   UNL     1      -5.104  12.610  20.512  0.00  0.00    +0.000 A 
ATOM     26  C   UNL     1      -4.547  12.211  19.300  0.00  0.00    +0.000 A 
ATOM     27  C   UNL     1      -3.165  12.048  19.174  0.00  0.00    +0.000 A 
ATOM     28  C   UNL     1      -2.313  12.305  20.259  0.00  0.00    +0.000 A 
ENDBRANCH  17  18
ENDBRANCH   2  17
TORSDOF 4
ENDMDL
MODEL 7
REMARK VINA RESULT:      -8.1      5.980      7.716
REMARK  Name = 
REMARK  4 active torsions:
REMARK  status: ('A' for Active; 'I' for Inactive)
REMARK    1  A    between atoms: C_2  and  C_3
REMARK    2  A    between atoms: C_3  and  N_4
REMARK    3  A    between atoms: N_15  and  C_16
REMARK    4  A    between atoms: C_19  and  C_20
REMARK                            x       y       z     vdW  Elec       q    Type
REMARK                         _______ _______ _______ _____ _____    ______ ____
ROOT
ATOM      1  O   UNL     1       7.090   7.768  16.914  0.00  0.00    +0.000 OA
ATOM      2  C   UNL     1       7.634   7.366  17.943  0.00  0.00    +0.000 C 
ATOM      3  N   UNL     1       8.465   8.111  18.771  0.00  0.00    +0.000 N 
ATOM      4  H   UNL     1       9.081   7.590  19.391  0.00  0.00    +0.000 HD
ENDROOT
BRANCH   3   5
ATOM      5  C   UNL     1       8.716   9.496  18.638  0.00  0.00    +0.000 A 
ATOM      6  C   UNL     1       8.039  10.301  17.726  0.00  0.00    +0.000 A 
ATOM      7  C   UNL     1       8.424  11.627  17.515  0.00  0.00    +0.000 A 
ATOM      8  C   UNL     1       9.478  12.215  18.236  0.00  0.00    +0.000 A 
ATOM      9  C   UNL     1      10.068  11.423  19.239  0.00  0.00    +0.000 A 
ATOM     10  C   UNL     1       9.696  10.086  19.440  0.00  0.00    +0.000 A 
BRANCH   8  11
ATOM     11  C   UNL     1       9.966  13.577  17.910  0.00  0.00    +0.000 A 
ATOM     12  C   UNL     1      11.213  13.790  17.292  0.00  0.00    +0.000 A 
ATOM     13  C   UNL     1      11.704  15.078  17.050  0.00  0.00    +0.000 A 
ATOM     14  C   UNL     1      10.948  16.189  17.406  0.00  0.00    +0.000 A 
ATOM     15  C   UNL     1       9.707  16.013  18.005  0.00  0.00    +0.000 A 
ATOM     16  C   UNL     1       9.227  14.724  18.260  0.00  0.00    +0.000 A 
ENDBRANCH   8  11
ENDBRANCH   3   5
BRANCH   2  17
ATOM     17  C   UNL     1       7.468   5.908  18.376  0.00  0.00    +0.000 C 
BRANCH  17  18
ATOM     18  N   UNL     1       6.416   5.215  17.643  0.00  0.00    +0.000 N 
ATOM     19  C   UNL     1       6.785   4.543  16.488  0.00  0.00    +0.000 A 
ATOM     20  O   UNL     1       7.910   4.550  15.996  0.00  0.00    +0.000 OA
ATOM     21  C   UNL     1       5.712   3.740  15.804  0.00  0.00    +0.000 A 
ATOM     22  N   UNL     1       4.490   3.641  16.226  0.00  0.00    +0.000 NA
ATOM     23  C   UNL     1       4.151   4.339  17.395  0.00  0.00    +0.000 A 
ATOM     24  C   UNL     1       2.836   4.200  17.863  0.00  0.00    +0.000 A 
ATOM     25  C   UNL     1       2.418   4.844  19.024  0.00  0.00    +0.000 A 
ATOM     26  C   UNL     1       3.311   5.662  19.710  0.00  0.00    +0.000 A 
ATOM     27  C   UNL     1       4.622   5.822  19.252  0.00  0.00    +0.000 A 
ATOM     28  C   UNL     1       5.067   5.144  18.106  0.00  0.00    +0.000 A 
ENDBRANCH  17  18
ENDBRANCH   2  17
TORSDOF 4
ENDMDL
MODEL 8
REMARK VINA RESULT:      -8.0      4.245     10.577
REMARK  Name = 
REMARK  4 active torsions:
REMARK  status: ('A' for Active; 'I' for Inactive)
REMARK    1  A    between atoms: C_2  and  C_3
REMARK    2  A    between atoms: C_3  and  N_4
REMARK    3  A    between atoms: N_15  and  C_16
REMARK    4  A    between atoms: C_19  and  C_20
REMARK                            x       y       z     vdW  Elec       q    Type
REMARK                         _______ _______ _______ _____ _____    ______ ____
ROOT
ATOM      1  O   UNL     1      -1.749  10.684  18.987  0.00  0.00    +0.000 OA
ATOM      2  C   UNL     1      -0.942  11.285  19.697  0.00  0.00    +0.000 C 
ATOM      3  N   UNL     1       0.331  10.844  20.038  0.00  0.00    +0.000 N 
ATOM      4  H   UNL     1       0.759  11.269  20.857  0.00  0.00    +0.000 HD
ENDROOT
BRANCH   3   5
ATOM      5  C   UNL     1       0.959   9.690  19.514  0.00  0.00    +0.000 A 
ATOM      6  C   UNL     1       1.277   8.584  20.296  0.00  0.00    +0.000 A 
ATOM      7  C   UNL     1       2.037   7.533  19.777  0.00  0.00    +0.000 A 
ATOM      8  C   UNL     1       2.477   7.527  18.443  0.00  0.00    +0.000 A 
ATOM      9  C   UNL     1       2.041   8.594  17.635  0.00  0.00    +0.000 A 
ATOM     10  C   UNL     1       1.294   9.660  18.158  0.00  0.00    +0.000 A 
BRANCH   8  11
ATOM     11  C   UNL     1       3.394   6.474  17.940  0.00  0.00    +0.000 A 
ATOM     12  C   UNL     1       3.171   5.109  18.205  0.00  0.00    +0.000 A 
ATOM     13  C   UNL     1       4.074   4.123  17.791  0.00  0.00    +0.000 A 
ATOM     14  C   UNL     1       5.217   4.478  17.083  0.00  0.00    +0.000 A 
ATOM     15  C   UNL     1       5.458   5.816  16.793  0.00  0.00    +0.000 A 
ATOM     16  C   UNL     1       4.561   6.800  17.223  0.00  0.00    +0.000 A 
ENDBRANCH   8  11
ENDBRANCH   3   5
BRANCH   2  17
ATOM     17  C   UNL     1      -1.334  12.616  20.341  0.00  0.00    +0.000 C 
BRANCH  17  18
ATOM     18  N   UNL     1      -2.315  12.463  21.408  0.00  0.00    +0.000 N 
ATOM     19  C   UNL     1      -1.835  12.150  22.671  0.00  0.00    +0.000 A 
ATOM     20  O   UNL     1      -0.660  11.918  22.942  0.00  0.00    +0.000 OA
ATOM     21  C   UNL     1      -2.847  12.106  23.784  0.00  0.00    +0.000 A 
ATOM     22  N   UNL     1      -4.112  12.342  23.633  0.00  0.00    +0.000 NA
ATOM     23  C   UNL     1      -4.564  12.650  22.340  0.00  0.00    +0.000 A 
ATOM     24  C   UNL     1      -5.928  12.935  22.192  0.00  0.00    +0.000 A 
ATOM     25  C   UNL     1      -6.458  13.267  20.948  0.00  0.00    +0.000 A 
ATOM     26  C   UNL     1      -5.625  13.283  19.833  0.00  0.00    +0.000 A 
ATOM     27  C   UNL     1      -4.265  12.989  19.961  0.00  0.00    +0.000 A 
ATOM     28  C   UNL     1      -3.711  12.694  21.216  0.00  0.00    +0.000 A 
ENDBRANCH  17  18
ENDBRANCH   2  17
TORSDOF 4
ENDMDL
MODEL 9
REMARK VINA RESULT:      -7.9      1.748      2.788
REMARK  Name = 
REMARK  4 active torsions:
REMARK  status: ('A' for Active; 'I' for Inactive)
REMARK    1  A    between atoms: C_2  and  C_3
REMARK    2  A    between atoms: C_3  and  N_4
REMARK    3  A    between atoms: N_15  and  C_16
REMARK    4  A    between atoms: C_19  and  C_20
REMARK                            x       y       z     vdW  Elec       q    Type
REMARK                         _______ _______ _______ _____ _____    ______ ____
ROOT
ATOM      1  O   UNL     1       1.348   4.744  20.728  0.00  0.00    +0.000 OA
ATOM      2  C   UNL     1       2.447   5.047  20.265  0.00  0.00    +0.000 C 
ATOM      3  N   UNL     1       2.825   6.307  19.819  0.00  0.00    +0.000 N 
ATOM      4  H   UNL     1       3.624   6.350  19.190  0.00  0.00    +0.000 HD
ENDROOT
BRANCH   3   5
ATOM      5  C   UNL     1       2.050   7.482  19.948  0.00  0.00    +0.000 A 
ATOM      6  C   UNL     1       1.361   7.807  21.113  0.00  0.00    +0.000 A 
ATOM      7  C   UNL     1       0.482   8.892  21.148  0.00  0.00    +0.000 A 
ATOM      8  C   UNL     1       0.285   9.721  20.030  0.00  0.00    +0.000 A 
ATOM      9  C   UNL     1       1.083   9.451  18.903  0.00  0.00    +0.000 A 
ATOM     10  C   UNL     1       1.952   8.350  18.858  0.00  0.00    +0.000 A 
BRANCH   8  11
ATOM     11  C   UNL     1      -0.748  10.786  20.035  0.00  0.00    +0.000 A 
ATOM     12  C   UNL     1      -0.967  11.600  21.162  0.00  0.00    +0.000 A 
ATOM     13  C   UNL     1      -1.988  12.557  21.192  0.00  0.00    +0.000 A 
ATOM     14  C   UNL     1      -2.807  12.735  20.081  0.00  0.00    +0.000 A 
ATOM     15  C   UNL     1      -2.607  11.957  18.947  0.00  0.00    +0.000 A 
ATOM     16  C   UNL     1      -1.595  10.991  18.929  0.00  0.00    +0.000 A 
ENDBRANCH   8  11
ENDBRANCH   3   5
BRANCH   2  17
ATOM     17  C   UNL     1       3.521   3.973  20.083  0.00  0.00    +0.000 C 
BRANCH  17  18
ATOM     18  N   UNL     1       4.116   3.983  18.753  0.00  0.00    +0.000 N 
ATOM     19  C   UNL     1       3.387   3.399  17.728  0.00  0.00    +0.000 A 
ATOM     20  O   UNL     1       2.320   2.808  17.869  0.00  0.00    +0.000 OA
ATOM     21  C   UNL     1       3.961   3.516  16.342  0.00  0.00    +0.000 A 
ATOM     22  N   UNL     1       5.071   4.123  16.058  0.00  0.00    +0.000 NA
ATOM     23  C   UNL     1       5.784   4.698  17.120  0.00  0.00    +0.000 A 
ATOM     24  C   UNL     1       6.967   5.380  16.800  0.00  0.00    +0.000 A 
ATOM     25  C   UNL     1       7.729   5.994  17.789  0.00  0.00    +0.000 A 
ATOM     26  C   UNL     1       7.325   5.902  19.118  0.00  0.00    +0.000 A 
ATOM     27  C   UNL     1       6.155   5.215  19.457  0.00  0.00    +0.000 A 
ATOM     28  C   UNL     1       5.357   4.628  18.464  0.00  0.00    +0.000 A 
ENDBRANCH  17  18
ENDBRANCH   2  17
TORSDOF 4
ENDMDL
