MODEL 1
REMARK VINA RESULT:      -9.0      0.000      0.000
REMARK  Name = 
REMARK  4 active torsions:
REMARK  status: ('A' for Active; 'I' for Inactive)
REMARK    1  A    between atoms: C_2  and  C_14
REMARK    2  A    between atoms: N_3  and  C_4
REMARK    3  A    between atoms: C_4  and  C_5
REMARK    4  A    between atoms: N_18  and  C_19
REMARK                            x       y       z     vdW  Elec       q    Type
REMARK                         _______ _______ _______ _____ _____    ______ ____
ROOT
ATOM      1  O   UNL     1       7.411   4.959  17.756  0.00  0.00    +0.000 OA
ATOM      2  C   UNL     1       6.825   5.942  17.311  0.00  0.00    +0.000 C 
ATOM      3  N   UNL     1       7.215   7.229  17.609  0.00  0.00    +0.000 N 
ATOM      4  H   UNL     1       6.609   8.012  17.391  0.00  0.00    +0.000 HD
ENDROOT
BRANCH   2   5
ATOM      5  C   UNL     1       5.633   5.774  16.374  0.00  0.00    +0.000 C 
ATOM      6  C   UNL     1       4.738   7.002  16.344  0.00  0.00    +0.000 C 
ATOM      7  C   UNL     1       3.723   6.707  17.426  0.00  0.00    +0.000 C 
ATOM      8  O   UNL     1       2.985   7.556  17.903  0.00  0.00    +0.000 OA
ATOM      9  N   UNL     1       3.793   5.337  17.720  0.00  0.00    +0.000 N 
ATOM     10  C   UNL     1       4.700   4.669  16.814  0.00  0.00    +0.000 C 
BRANCH   9  11
ATOM     11  C   UNL     1       3.026   4.641  18.692  0.00  0.00    +0.000 A 
ATOM     12  C   UNL     1       3.579   4.303  19.937  0.00  0.00    +0.000 A 
ATOM     13  C   UNL     1       2.823   3.622  20.895  0.00  0.00    +0.000 A 
ATOM     14  C   UNL     1       1.510   3.266  20.614  0.00  0.00    +0.000 A 
ATOM     15  F   UNL     1       0.792   2.619  21.536  0.00  0.00    +0.000 F 
ATOM     16  C   UNL     1       0.942   3.566  19.385  0.00  0.00    +0.000 A 
ATOM     17  C   UNL     1       1.699   4.244  18.438  0.00  0.00    +0.000 A 
ATOM     18  F   UNL     1       1.098   4.533  17.277  0.00  0.00    +0.000 F 
ENDBRANCH   9  11
ENDBRANCH   2   5
BRANCH   3  19
ATOM     19  C   UNL     1       8.255   7.477  18.575  0.00  0.00    +0.000 C 
BRANCH  19  20
ATOM     20  C   UNL     1       8.618   8.915  18.528  0.00  0.00    +0.000 A 
ATOM     21  C   UNL     1       8.312   9.898  17.607  0.00  0.00    +0.000 A 
ATOM     22  C   UNL     1       8.774  11.142  18.119  0.00  0.00    +0.000 A 
ATOM     23  C   UNL     1       8.690  12.476  17.672  0.00  0.00    +0.000 A 
ATOM     24  C   UNL     1       9.229  13.499  18.460  0.00  0.00    +0.000 A 
ATOM     25  C   UNL     1       9.859  13.207  19.668  0.00  0.00    +0.000 A 
ATOM     26  C   UNL     1       9.965  11.889  20.127  0.00  0.00    +0.000 A 
ATOM     27  C   UNL     1       9.406  10.879  19.333  0.00  0.00    +0.000 A 
ATOM     28  N   UNL     1       9.331   9.519  19.539  0.00  0.00    +0.000 N 
ATOM     29  H   UNL     1       9.699   9.046  20.353  0.00  0.00    +0.000 HD
ENDBRANCH  19  20
ENDBRANCH   3  19
TORSDOF 4
ENDMDL
MODEL 2
REMARK VINA RESULT:      -9.0      0.999      1.346
REMARK  Name = 
REMARK  4 active torsions:
REMARK  status: ('A' for Active; 'I' for Inactive)
REMARK    1  A    between atoms: C_2  and  C_14
REMARK    2  A    between atoms: N_3  and  C_4
REMARK    3  A    between atoms: C_4  and  C_5
REMARK    4  A    between atoms: N_18  and  C_19
REMARK                            x       y       z     vdW  Elec       q    Type
REMARK                         _______ _______ _______ _____ _____    ______ ____
ROOT
ATOM      1  O   UNL     1       7.708   4.905  16.990  0.00  0.00    +0.000 OA
ATOM      2  C   UNL     1       6.901   5.826  16.901  0.00  0.00    +0.000 C 
ATOM      3  N   UNL     1       7.079   7.028  17.549  0.00  0.00    +0.000 N 
ATOM      4  H   UNL     1       6.317   7.693  17.615  0.00  0.00    +0.000 HD
ENDROOT
BRANCH   2   5
ATOM      5  C   UNL     1       5.654   5.680  16.032  0.00  0.00    +0.000 C 
ATOM      6  C   UNL     1       4.754   6.902  16.096  0.00  0.00    +0.000 C 
ATOM      7  C   UNL     1       3.808   6.567  17.227  0.00  0.00    +0.000 C 
ATOM      8  O   UNL     1       3.097   7.396  17.774  0.00  0.00    +0.000 OA
ATOM      9  N   UNL     1       3.902   5.189  17.472  0.00  0.00    +0.000 N 
ATOM     10  C   UNL     1       4.755   4.556  16.492  0.00  0.00    +0.000 C 
BRANCH   9  11
ATOM     11  C   UNL     1       3.198   4.457  18.465  0.00  0.00    +0.000 A 
ATOM     12  C   UNL     1       1.796   4.383  18.446  0.00  0.00    +0.000 A 
ATOM     13  C   UNL     1       1.104   3.659  19.420  0.00  0.00    +0.000 A 
ATOM     14  C   UNL     1       1.807   3.008  20.427  0.00  0.00    +0.000 A 
ATOM     15  F   UNL     1       1.139   2.314  21.353  0.00  0.00    +0.000 F 
ATOM     16  C   UNL     1       3.190   3.081  20.486  0.00  0.00    +0.000 A 
ATOM     17  C   UNL     1       3.872   3.801  19.513  0.00  0.00    +0.000 A 
ATOM     18  F   UNL     1       5.208   3.819  19.600  0.00  0.00    +0.000 F 
ENDBRANCH   9  11
ENDBRANCH   2   5
BRANCH   3  19
ATOM     19  C   UNL     1       8.165   7.208  18.478  0.00  0.00    +0.000 C 
BRANCH  19  20
ATOM     20  C   UNL     1       8.551   8.641  18.490  0.00  0.00    +0.000 A 
ATOM     21  C   UNL     1       8.288   9.659  17.595  0.00  0.00    +0.000 A 
ATOM     22  C   UNL     1       8.754  10.877  18.162  0.00  0.00    +0.000 A 
ATOM     23  C   UNL     1       8.703  12.226  17.759  0.00  0.00    +0.000 A 
ATOM     24  C   UNL     1       9.234  13.213  18.596  0.00  0.00    +0.000 A 
ATOM     25  C   UNL     1       9.823  12.871  19.812  0.00  0.00    +0.000 A 
ATOM     26  C   UNL     1       9.895  11.537  20.229  0.00  0.00    +0.000 A 
ATOM     27  C   UNL     1       9.344  10.563  19.384  0.00  0.00    +0.000 A 
ATOM     28  N   UNL     1       9.243   9.198  19.542  0.00  0.00    +0.000 N 
ATOM     29  H   UNL     1       9.580   8.692  20.349  0.00  0.00    +0.000 HD
ENDBRANCH  19  20
ENDBRANCH   3  19
TORSDOF 4
ENDMDL
MODEL 3
REMARK VINA RESULT:      -9.0      1.852      2.721
REMARK  Name = 
REMARK  4 active torsions:
REMARK  status: ('A' for Active; 'I' for Inactive)
REMARK    1  A    between atoms: C_2  and  C_14
REMARK    2  A    between atoms: N_3  and  C_4
REMARK    3  A    between atoms: C_4  and  C_5
REMARK    4  A    between atoms: N_18  and  C_19
REMARK                            x       y       z     vdW  Elec       q    Type
REMARK                         _______ _______ _______ _____ _____    ______ ____
ROOT
ATOM      1  O   UNL     1       6.193   7.435  17.101  0.00  0.00    +0.000 OA
ATOM      2  C   UNL     1       7.226   7.255  17.741  0.00  0.00    +0.000 C 
ATOM      3  N   UNL     1       8.078   8.285  18.068  0.00  0.00    +0.000 N 
ATOM      4  H   UNL     1       9.007   8.090  18.424  0.00  0.00    +0.000 HD
ENDROOT
BRANCH   2   5
ATOM      5  C   UNL     1       7.601   5.858  18.228  0.00  0.00    +0.000 C 
ATOM      6  C   UNL     1       7.445   4.803  17.146  0.00  0.00    +0.000 C 
ATOM      7  C   UNL     1       6.027   4.317  17.348  0.00  0.00    +0.000 C 
ATOM      8  O   UNL     1       5.420   3.657  16.519  0.00  0.00    +0.000 OA
ATOM      9  N   UNL     1       5.605   4.739  18.618  0.00  0.00    +0.000 N 
ATOM     10  C   UNL     1       6.694   5.366  19.332  0.00  0.00    +0.000 C 
BRANCH   9  11
ATOM     11  C   UNL     1       4.330   4.514  19.202  0.00  0.00    +0.000 A 
ATOM     12  C   UNL     1       3.385   5.549  19.286  0.00  0.00    +0.000 A 
ATOM     13  C   UNL     1       2.129   5.327  19.857  0.00  0.00    +0.000 A 
ATOM     14  C   UNL     1       1.810   4.070  20.357  0.00  0.00    +0.000 A 
ATOM     15  F   UNL     1       0.606   3.864  20.897  0.00  0.00    +0.000 F 
ATOM     16  C   UNL     1       2.730   3.034  20.309  0.00  0.00    +0.000 A 
ATOM     17  C   UNL     1       3.976   3.262  19.738  0.00  0.00    +0.000 A 
ATOM     18  F   UNL     1       4.819   2.223  19.693  0.00  0.00    +0.000 F 
ENDBRANCH   9  11
ENDBRANCH   2   5
BRANCH   3  19
ATOM     19  C   UNL     1       7.860   9.613  17.551  0.00  0.00    +0.000 C 
BRANCH  19  20
ATOM     20  C   UNL     1       8.856  10.531  18.157  0.00  0.00    +0.000 A 
ATOM     21  C   UNL     1       9.814  10.318  19.128  0.00  0.00    +0.000 A 
ATOM     22  C   UNL     1      10.611  11.492  19.228  0.00  0.00    +0.000 A 
ATOM     23  C   UNL     1      11.754  11.837  19.976  0.00  0.00    +0.000 A 
ATOM     24  C   UNL     1      12.333  13.098  19.800  0.00  0.00    +0.000 A 
ATOM     25  C   UNL     1      11.782  14.015  18.908  0.00  0.00    +0.000 A 
ATOM     26  C   UNL     1      10.639  13.699  18.163  0.00  0.00    +0.000 A 
ATOM     27  C   UNL     1      10.082  12.425  18.340  0.00  0.00    +0.000 A 
ATOM     28  N   UNL     1       8.997  11.833  17.731  0.00  0.00    +0.000 N 
ATOM     29  H   UNL     1       8.425  12.279  17.027  0.00  0.00    +0.000 HD
ENDBRANCH  19  20
ENDBRANCH   3  19
TORSDOF 4
ENDMDL
MODEL 4
REMARK VINA RESULT:      -9.0      1.905      2.659
REMARK  Name = 
REMARK  4 active torsions:
REMARK  status: ('A' for Active; 'I' for Inactive)
REMARK    1  A    between atoms: C_2  and  C_14
REMARK    2  A    between atoms: N_3  and  C_4
REMARK    3  A    between atoms: C_4  and  C_5
REMARK    4  A    between atoms: N_18  and  C_19
REMARK                            x       y       z     vdW  Elec       q    Type
REMARK                         _______ _______ _______ _____ _____    ______ ____
ROOT
ATOM      1  O   UNL     1       5.977   7.209  16.850  0.00  0.00    +0.000 OA
ATOM      2  C   UNL     1       6.992   7.022  17.515  0.00  0.00    +0.000 C 
ATOM      3  N   UNL     1       7.796   8.057  17.939  0.00  0.00    +0.000 N 
ATOM      4  H   UNL     1       8.718   7.870  18.316  0.00  0.00    +0.000 HD
ENDROOT
BRANCH   2   5
ATOM      5  C   UNL     1       7.399   5.610  17.927  0.00  0.00    +0.000 C 
ATOM      6  C   UNL     1       7.632   4.700  16.733  0.00  0.00    +0.000 C 
ATOM      7  C   UNL     1       6.273   4.072  16.515  0.00  0.00    +0.000 C 
ATOM      8  O   UNL     1       5.964   3.479  15.493  0.00  0.00    +0.000 OA
ATOM      9  N   UNL     1       5.512   4.282  17.675  0.00  0.00    +0.000 N 
ATOM     10  C   UNL     1       6.317   4.899  18.705  0.00  0.00    +0.000 C 
BRANCH   9  11
ATOM     11  C   UNL     1       4.169   3.873  17.891  0.00  0.00    +0.000 A 
ATOM     12  C   UNL     1       3.865   2.536  18.190  0.00  0.00    +0.000 A 
ATOM     13  C   UNL     1       2.544   2.133  18.407  0.00  0.00    +0.000 A 
ATOM     14  C   UNL     1       1.515   3.064  18.319  0.00  0.00    +0.000 A 
ATOM     15  F   UNL     1       0.255   2.673  18.532  0.00  0.00    +0.000 F 
ATOM     16  C   UNL     1       1.782   4.387  18.004  0.00  0.00    +0.000 A 
ATOM     17  C   UNL     1       3.097   4.780  17.791  0.00  0.00    +0.000 A 
ATOM     18  F   UNL     1       3.305   6.074  17.514  0.00  0.00    +0.000 F 
ENDBRANCH   9  11
ENDBRANCH   2   5
BRANCH   3  19
ATOM     19  C   UNL     1       7.550   9.407  17.499  0.00  0.00    +0.000 C 
BRANCH  19  20
ATOM     20  C   UNL     1       8.546  10.306  18.133  0.00  0.00    +0.000 A 
ATOM     21  C   UNL     1       9.436  10.088  19.166  0.00  0.00    +0.000 A 
ATOM     22  C   UNL     1      10.275  11.232  19.275  0.00  0.00    +0.000 A 
ATOM     23  C   UNL     1      11.386  11.558  20.078  0.00  0.00    +0.000 A 
ATOM     24  C   UNL     1      12.027  12.788  19.896  0.00  0.00    +0.000 A 
ATOM     25  C   UNL     1      11.567  13.694  18.943  0.00  0.00    +0.000 A 
ATOM     26  C   UNL     1      10.458  13.398  18.142  0.00  0.00    +0.000 A 
ATOM     27  C   UNL     1       9.838  12.155  18.326  0.00  0.00    +0.000 A 
ATOM     28  N   UNL     1       8.766  11.585  17.674  0.00  0.00    +0.000 N 
ATOM     29  H   UNL     1       8.256  12.029  16.923  0.00  0.00    +0.000 HD
ENDBRANCH  19  20
ENDBRANCH   3  19
TORSDOF 4
ENDMDL
MODEL 5
REMARK VINA RESULT:      -8.7      4.307      5.661
REMARK  Name = 
REMARK  4 active torsions:
REMARK  status: ('A' for Active; 'I' for Inactive)
REMARK    1  A    between atoms: C_2  and  C_14
REMARK    2  A    between atoms: N_3  and  C_4
REMARK    3  A    between atoms: C_4  and  C_5
REMARK    4  A    between atoms: N_18  and  C_19
REMARK                            x       y       z     vdW  Elec       q    Type
REMARK                         _______ _______ _______ _____ _____    ______ ____
ROOT
ATOM      1  O   UNL     1       4.924   7.063  15.750  0.00  0.00    +0.000 OA
ATOM      2  C   UNL     1       4.759   6.567  16.861  0.00  0.00    +0.000 C 
ATOM      3  N   UNL     1       3.787   7.010  17.729  0.00  0.00    +0.000 N 
ATOM      4  H   UNL     1       3.795   6.720  18.700  0.00  0.00    +0.000 HD
ENDROOT
BRANCH   2   5
ATOM      5  C   UNL     1       5.628   5.400  17.323  0.00  0.00    +0.000 C 
ATOM      6  C   UNL     1       5.429   4.155  16.476  0.00  0.00    +0.000 C 
ATOM      7  C   UNL     1       4.331   3.418  17.210  0.00  0.00    +0.000 C 
ATOM      8  O   UNL     1       3.694   2.499  16.718  0.00  0.00    +0.000 OA
ATOM      9  N   UNL     1       4.232   3.966  18.499  0.00  0.00    +0.000 N 
ATOM     10  C   UNL     1       5.281   4.936  18.719  0.00  0.00    +0.000 C 
BRANCH   9  11
ATOM     11  C   UNL     1       3.315   3.581  19.513  0.00  0.00    +0.000 A 
ATOM     12  C   UNL     1       3.715   2.738  20.561  0.00  0.00    +0.000 A 
ATOM     13  C   UNL     1       2.814   2.363  21.562  0.00  0.00    +0.000 A 
ATOM     14  C   UNL     1       1.503   2.823  21.519  0.00  0.00    +0.000 A 
ATOM     15  F   UNL     1       0.649   2.465  22.481  0.00  0.00    +0.000 F 
ATOM     16  C   UNL     1       1.073   3.640  20.484  0.00  0.00    +0.000 A 
ATOM     17  C   UNL     1       1.974   4.009  19.494  0.00  0.00    +0.000 A 
ATOM     18  F   UNL     1       1.516   4.819  18.531  0.00  0.00    +0.000 F 
ENDBRANCH   9  11
ENDBRANCH   2   5
BRANCH   3  19
ATOM     19  C   UNL     1       3.002   8.178  17.420  0.00  0.00    +0.000 C 
BRANCH  19  20
ATOM     20  C   UNL     1       2.136   8.494  18.583  0.00  0.00    +0.000 A 
ATOM     21  C   UNL     1       1.948   7.832  19.780  0.00  0.00    +0.000 A 
ATOM     22  C   UNL     1       1.129   8.646  20.611  0.00  0.00    +0.000 A 
ATOM     23  C   UNL     1       0.666   8.536  21.937  0.00  0.00    +0.000 A 
ATOM     24  C   UNL     1      -0.108   9.566  22.481  0.00  0.00    +0.000 A 
ATOM     25  C   UNL     1      -0.437  10.686  21.720  0.00  0.00    +0.000 A 
ATOM     26  C   UNL     1       0.002  10.812  20.396  0.00  0.00    +0.000 A 
ATOM     27  C   UNL     1       0.790   9.778  19.873  0.00  0.00    +0.000 A 
ATOM     28  N   UNL     1       1.380   9.644  18.635  0.00  0.00    +0.000 N 
ATOM     29  H   UNL     1       1.312  10.329  17.895  0.00  0.00    +0.000 HD
ENDBRANCH  19  20
ENDBRANCH   3  19
TORSDOF 4
ENDMDL
MODEL 6
REMARK VINA RESULT:      -8.7      4.373      5.835
REMARK  Name = 
REMARK  4 active torsions:
REMARK  status: ('A' for Active; 'I' for Inactive)
REMARK    1  A    between atoms: C_2  and  C_14
REMARK    2  A    between atoms: N_3  and  C_4
REMARK    3  A    between atoms: C_4  and  C_5
REMARK    4  A    between atoms: N_18  and  C_19
REMARK                            x       y       z     vdW  Elec       q    Type
REMARK                         _______ _______ _______ _____ _____    ______ ____
ROOT
ATOM      1  O   UNL     1       4.922   7.129  15.848  0.00  0.00    +0.000 OA
ATOM      2  C   UNL     1       4.768   6.702  16.989  0.00  0.00    +0.000 C 
ATOM      3  N   UNL     1       3.753   7.143  17.810  0.00  0.00    +0.000 N 
ATOM      4  H   UNL     1       3.761   6.923  18.799  0.00  0.00    +0.000 HD
ENDROOT
BRANCH   2   5
ATOM      5  C   UNL     1       5.699   5.629  17.547  0.00  0.00    +0.000 C 
ATOM      6  C   UNL     1       5.652   4.342  16.740  0.00  0.00    +0.000 C 
ATOM      7  C   UNL     1       4.576   3.543  17.439  0.00  0.00    +0.000 C 
ATOM      8  O   UNL     1       4.046   2.558  16.948  0.00  0.00    +0.000 OA
ATOM      9  N   UNL     1       4.356   4.125  18.697  0.00  0.00    +0.000 N 
ATOM     10  C   UNL     1       5.307   5.187  18.937  0.00  0.00    +0.000 C 
BRANCH   9  11
ATOM     11  C   UNL     1       3.414   3.702  19.671  0.00  0.00    +0.000 A 
ATOM     12  C   UNL     1       2.184   4.362  19.817  0.00  0.00    +0.000 A 
ATOM     13  C   UNL     1       1.254   3.942  20.773  0.00  0.00    +0.000 A 
ATOM     14  C   UNL     1       1.550   2.863  21.597  0.00  0.00    +0.000 A 
ATOM     15  F   UNL     1       0.656   2.465  22.505  0.00  0.00    +0.000 F 
ATOM     16  C   UNL     1       2.766   2.205  21.492  0.00  0.00    +0.000 A 
ATOM     17  C   UNL     1       3.684   2.626  20.539  0.00  0.00    +0.000 A 
ATOM     18  F   UNL     1       4.832   1.942  20.461  0.00  0.00    +0.000 F 
ENDBRANCH   9  11
ENDBRANCH   2   5
BRANCH   3  19
ATOM     19  C   UNL     1       2.903   8.234  17.406  0.00  0.00    +0.000 C 
BRANCH  19  20
ATOM     20  C   UNL     1       2.034   8.611  18.549  0.00  0.00    +0.000 A 
ATOM     21  C   UNL     1       1.846   8.014  19.781  0.00  0.00    +0.000 A 
ATOM     22  C   UNL     1       1.023   8.870  20.565  0.00  0.00    +0.000 A 
ATOM     23  C   UNL     1       0.558   8.831  21.894  0.00  0.00    +0.000 A 
ATOM     24  C   UNL     1      -0.221   9.887  22.379  0.00  0.00    +0.000 A 
ATOM     25  C   UNL     1      -0.551  10.962  21.557  0.00  0.00    +0.000 A 
ATOM     26  C   UNL     1      -0.110  11.018  20.229  0.00  0.00    +0.000 A 
ATOM     27  C   UNL     1       0.682   9.959  19.765  0.00  0.00    +0.000 A 
ATOM     28  N   UNL     1       1.275   9.760  18.537  0.00  0.00    +0.000 N 
ATOM     29  H   UNL     1       1.206  10.402  17.760  0.00  0.00    +0.000 HD
ENDBRANCH  19  20
ENDBRANCH   3  19
TORSDOF 4
ENDMDL
MODEL 7
REMARK VINA RESULT:      -8.6      0.755      1.235
REMARK  Name = 
REMARK  4 active torsions:
REMARK  status: ('A' for Active; 'I' for Inactive)
REMARK    1  A    between atoms: C_2  and  C_14
REMARK    2  A    between atoms: N_3  and  C_4
REMARK    3  A    between atoms: C_4  and  C_5
REMARK    4  A    between atoms: N_18  and  C_19
REMARK                            x       y       z     vdW  Elec       q    Type
REMARK                         _______ _______ _______ _____ _____    ______ ____
ROOT
ATOM      1  O   UNL     1       7.665   5.099  17.197  0.00  0.00    +0.000 OA
ATOM      2  C   UNL     1       6.954   6.063  16.926  0.00  0.00    +0.000 C 
ATOM      3  N   UNL     1       7.228   7.333  17.382  0.00  0.00    +0.000 N 
ATOM      4  H   UNL     1       6.533   8.066  17.307  0.00  0.00    +0.000 HD
ENDROOT
BRANCH   2   5
ATOM      5  C   UNL     1       5.726   5.892  16.036  0.00  0.00    +0.000 C 
ATOM      6  C   UNL     1       4.760   7.060  16.146  0.00  0.00    +0.000 C 
ATOM      7  C   UNL     1       3.822   6.622  17.249  0.00  0.00    +0.000 C 
ATOM      8  O   UNL     1       3.062   7.384  17.825  0.00  0.00    +0.000 OA
ATOM      9  N   UNL     1       3.988   5.240  17.430  0.00  0.00    +0.000 N 
ATOM     10  C   UNL     1       4.884   4.701  16.432  0.00  0.00    +0.000 C 
BRANCH   9  11
ATOM     11  C   UNL     1       3.315   4.425  18.379  0.00  0.00    +0.000 A 
ATOM     12  C   UNL     1       4.016   3.829  19.440  0.00  0.00    +0.000 A 
ATOM     13  C   UNL     1       3.353   3.031  20.377  0.00  0.00    +0.000 A 
ATOM     14  C   UNL     1       1.986   2.817  20.257  0.00  0.00    +0.000 A 
ATOM     15  F   UNL     1       1.358   2.056  21.159  0.00  0.00    +0.000 F 
ATOM     16  C   UNL     1       1.270   3.374  19.209  0.00  0.00    +0.000 A 
ATOM     17  C   UNL     1       1.935   4.167  18.282  0.00  0.00    +0.000 A 
ATOM     18  F   UNL     1       1.195   4.703  17.303  0.00  0.00    +0.000 F 
ENDBRANCH   9  11
ENDBRANCH   2   5
BRANCH   3  19
ATOM     19  C   UNL     1       8.299   7.562  18.319  0.00  0.00    +0.000 C 
BRANCH  19  20
ATOM     20  C   UNL     1       8.506   9.025  18.460  0.00  0.00    +0.000 A 
ATOM     21  C   UNL     1       9.353   9.747  19.277  0.00  0.00    +0.000 A 
ATOM     22  C   UNL     1       9.269  11.116  18.900  0.00  0.00    +0.000 A 
ATOM     23  C   UNL     1       9.934  12.287  19.315  0.00  0.00    +0.000 A 
ATOM     24  C   UNL     1       9.637  13.503  18.690  0.00  0.00    +0.000 A 
ATOM     25  C   UNL     1       8.682  13.565  17.677  0.00  0.00    +0.000 A 
ATOM     26  C   UNL     1       8.000  12.418  17.256  0.00  0.00    +0.000 A 
ATOM     27  C   UNL     1       8.322  11.206  17.882  0.00  0.00    +0.000 A 
ATOM     28  N   UNL     1       7.846   9.932  17.660  0.00  0.00    +0.000 N 
ATOM     29  H   UNL     1       7.153   9.697  16.964  0.00  0.00    +0.000 HD
ENDBRANCH  19  20
ENDBRANCH   3  19
TORSDOF 4
ENDMDL
MODEL 8
REMARK VINA RESULT:      -8.4      4.331      5.581
REMARK  Name = 
REMARK  4 active torsions:
REMARK  status: ('A' for Active; 'I' for Inactive)
REMARK    1  A    between atoms: C_2  and  C_14
REMARK    2  A    between atoms: N_3  and  C_4
REMARK    3  A    between atoms: C_4  and  C_5
REMARK    4  A    between atoms: N_18  and  C_19
REMARK                            x       y       z     vdW  Elec       q    Type
REMARK                         _______ _______ _______ _____ _____    ______ ____
ROOT
ATOM      1  O   UNL     1       4.950   6.825  15.523  0.00  0.00    +0.000 OA
ATOM      2  C   UNL     1       4.833   6.492  16.699  0.00  0.00    +0.000 C 
ATOM      3  N   UNL     1       3.867   7.025  17.523  0.00  0.00    +0.000 N 
ATOM      4  H   UNL     1       3.911   6.881  18.526  0.00  0.00    +0.000 HD
ENDROOT
BRANCH   2   5
ATOM      5  C   UNL     1       5.757   5.436  17.300  0.00  0.00    +0.000 C 
ATOM      6  C   UNL     1       5.704   4.119  16.545  0.00  0.00    +0.000 C 
ATOM      7  C   UNL     1       4.622   3.354  17.273  0.00  0.00    +0.000 C 
ATOM      8  O   UNL     1       4.087   2.354  16.821  0.00  0.00    +0.000 OA
ATOM      9  N   UNL     1       4.403   3.987  18.507  0.00  0.00    +0.000 N 
ATOM     10  C   UNL     1       5.361   5.051  18.707  0.00  0.00    +0.000 C 
BRANCH   9  11
ATOM     11  C   UNL     1       3.458   3.608  19.496  0.00  0.00    +0.000 A 
ATOM     12  C   UNL     1       3.814   2.730  20.532  0.00  0.00    +0.000 A 
ATOM     13  C   UNL     1       2.884   2.360  21.508  0.00  0.00    +0.000 A 
ATOM     14  C   UNL     1       1.589   2.860  21.453  0.00  0.00    +0.000 A 
ATOM     15  F   UNL     1       0.707   2.506  22.392  0.00  0.00    +0.000 F 
ATOM     16  C   UNL     1       1.201   3.711  20.430  0.00  0.00    +0.000 A 
ATOM     17  C   UNL     1       2.130   4.075  19.464  0.00  0.00    +0.000 A 
ATOM     18  F   UNL     1       1.713   4.920  18.512  0.00  0.00    +0.000 F 
ENDBRANCH   9  11
ENDBRANCH   2   5
BRANCH   3  19
ATOM     19  C   UNL     1       3.030   8.108  17.071  0.00  0.00    +0.000 C 
BRANCH  19  20
ATOM     20  C   UNL     1       2.255   8.627  18.225  0.00  0.00    +0.000 A 
ATOM     21  C   UNL     1       1.436   9.732  18.345  0.00  0.00    +0.000 A 
ATOM     22  C   UNL     1       0.810   9.683  19.621  0.00  0.00    +0.000 A 
ATOM     23  C   UNL     1      -0.157  10.477  20.268  0.00  0.00    +0.000 A 
ATOM     24  C   UNL     1      -0.600  10.115  21.544  0.00  0.00    +0.000 A 
ATOM     25  C   UNL     1      -0.083   8.990  22.183  0.00  0.00    +0.000 A 
ATOM     26  C   UNL     1       0.888   8.192  21.565  0.00  0.00    +0.000 A 
ATOM     27  C   UNL     1       1.308   8.560  20.280  0.00  0.00    +0.000 A 
ATOM     28  N   UNL     1       2.210   7.960  19.429  0.00  0.00    +0.000 N 
ATOM     29  H   UNL     1       2.718   7.113  19.644  0.00  0.00    +0.000 HD
ENDBRANCH  19  20
ENDBRANCH   3  19
TORSDOF 4
ENDMDL
MODEL 9
REMARK VINA RESULT:      -8.4      1.181      1.792
REMARK  Name = 
REMARK  4 active torsions:
REMARK  status: ('A' for Active; 'I' for Inactive)
REMARK    1  A    between atoms: C_2  and  C_14
REMARK    2  A    between atoms: N_3  and  C_4
REMARK    3  A    between atoms: C_4  and  C_5
REMARK    4  A    between atoms: N_18  and  C_19
REMARK                            x       y       z     vdW  Elec       q    Type
REMARK                         _______ _______ _______ _____ _____    ______ ____
ROOT
ATOM      1  O   UNL     1       7.691   5.223  17.125  0.00  0.00    +0.000 OA
ATOM      2  C   UNL     1       6.973   6.196  16.906  0.00  0.00    +0.000 C 
ATOM      3  N   UNL     1       7.250   7.445  17.414  0.00  0.00    +0.000 N 
ATOM      4  H   UNL     1       6.552   8.179  17.381  0.00  0.00    +0.000 HD
ENDROOT
BRANCH   2   5
ATOM      5  C   UNL     1       5.734   6.060  16.025  0.00  0.00    +0.000 C 
ATOM      6  C   UNL     1       4.776   7.229  16.184  0.00  0.00    +0.000 C 
ATOM      7  C   UNL     1       3.849   6.760  17.283  0.00  0.00    +0.000 C 
ATOM      8  O   UNL     1       3.099   7.507  17.892  0.00  0.00    +0.000 OA
ATOM      9  N   UNL     1       4.009   5.372  17.418  0.00  0.00    +0.000 N 
ATOM     10  C   UNL     1       4.890   4.861  16.392  0.00  0.00    +0.000 C 
BRANCH   9  11
ATOM     11  C   UNL     1       3.343   4.531  18.348  0.00  0.00    +0.000 A 
ATOM     12  C   UNL     1       1.959   4.313  18.256  0.00  0.00    +0.000 A 
ATOM     13  C   UNL     1       1.303   3.481  19.168  0.00  0.00    +0.000 A 
ATOM     14  C   UNL     1       2.025   2.866  20.185  0.00  0.00    +0.000 A 
ATOM     15  F   UNL     1       1.393   2.069  21.050  0.00  0.00    +0.000 F 
ATOM     16  C   UNL     1       3.389   3.080  20.314  0.00  0.00    +0.000 A 
ATOM     17  C   UNL     1       4.033   3.906  19.403  0.00  0.00    +0.000 A 
ATOM     18  F   UNL     1       5.355   4.060  19.556  0.00  0.00    +0.000 F 
ENDBRANCH   9  11
ENDBRANCH   2   5
BRANCH   3  19
ATOM     19  C   UNL     1       8.332   7.637  18.347  0.00  0.00    +0.000 C 
BRANCH  19  20
ATOM     20  C   UNL     1       8.554   9.093  18.529  0.00  0.00    +0.000 A 
ATOM     21  C   UNL     1       9.308   9.787  19.455  0.00  0.00    +0.000 A 
ATOM     22  C   UNL     1       9.304  11.161  19.087  0.00  0.00    +0.000 A 
ATOM     23  C   UNL     1       9.939  12.311  19.596  0.00  0.00    +0.000 A 
ATOM     24  C   UNL     1       9.751  13.539  18.952  0.00  0.00    +0.000 A 
ATOM     25  C   UNL     1       8.934  13.634  17.828  0.00  0.00    +0.000 A 
ATOM     26  C   UNL     1       8.283  12.507  17.311  0.00  0.00    +0.000 A 
ATOM     27  C   UNL     1       8.495  11.282  17.959  0.00  0.00    +0.000 A 
ATOM     28  N   UNL     1       8.022  10.023  17.664  0.00  0.00    +0.000 N 
ATOM     29  H   UNL     1       7.417   9.810  16.883  0.00  0.00    +0.000 HD
ENDBRANCH  19  20
ENDBRANCH   3  19
TORSDOF 4
ENDMDL
