MODEL 1
REMARK VINA RESULT:      -8.0      0.000      0.000
REMARK  Name = 
REMARK  2 active torsions:
REMARK  status: ('A' for Active; 'I' for Inactive)
REMARK    1  A    between atoms: C_1  and  C_2
REMARK    2  A    between atoms: C_13  and  C_15
REMARK                            x       y       z     vdW  Elec       q    Type
REMARK                         _______ _______ _______ _____ _____    ______ ____
ROOT
ATOM      1  C   UNL     1       4.158   7.158  18.219  0.00  0.00    +0.000 C 
ATOM      2  C   UNL     1       2.642   6.945  18.250  0.00  0.00    +0.000 C 
ATOM      3  C   UNL     1       2.265   5.499  18.509  0.00  0.00    +0.000 A 
ATOM      4  C   UNL     1       2.417   4.565  17.470  0.00  0.00    +0.000 A 
ATOM      5  C   UNL     1       2.072   3.230  17.665  0.00  0.00    +0.000 A 
ATOM      6  C   UNL     1       1.576   2.828  18.897  0.00  0.00    +0.000 A 
ATOM      7  F   UNL     1       1.244   1.544  19.085  0.00  0.00    +0.000 F 
ATOM      8  C   UNL     1       1.397   3.739  19.934  0.00  0.00    +0.000 A 
ATOM      9  C   UNL     1       1.733   5.086  19.749  0.00  0.00    +0.000 A 
ATOM     10  C   UNL     1       1.418   6.086  20.838  0.00  0.00    +0.000 C 
ATOM     11  C   UNL     1       2.074   7.445  20.613  0.00  0.00    +0.000 C 
ATOM     12  N   UNL     1       1.992   7.838  19.210  0.00  0.00    +0.000 N 
ATOM     13  C   UNL     1       1.426   8.979  18.701  0.00  0.00    +0.000 C 
ATOM     14  O   UNL     1       1.642   9.348  17.543  0.00  0.00    +0.000 OA
ENDROOT
BRANCH  13  15
ATOM     15  C   UNL     1       0.463   9.754  19.515  0.00  0.00    +0.000 A 
ATOM     16  C   UNL     1      -0.551  10.224  18.752  0.00  0.00    +0.000 A 
ATOM     17  N   UNL     1      -1.041  11.537  18.837  0.00  0.00    +0.000 N 
ATOM     18  C   UNL     1       0.025  12.447  19.151  0.00  0.00    +0.000 A 
ATOM     19  C   UNL     1       0.289  13.547  18.344  0.00  0.00    +0.000 A 
ATOM     20  C   UNL     1       1.402  14.336  18.626  0.00  0.00    +0.000 A 
ATOM     21  C   UNL     1       2.211  14.066  19.742  0.00  0.00    +0.000 A 
ATOM     22  C   UNL     1       1.983  12.934  20.519  0.00  0.00    +0.000 A 
ATOM     23  C   UNL     1       0.937  12.098  20.167  0.00  0.00    +0.000 A 
ATOM     24  C   UNL     1       0.918  10.678  20.596  0.00  0.00    +0.000 A 
ATOM     25  O   UNL     1       1.296  10.306  21.696  0.00  0.00    +0.000 OA
ATOM     26  H   UNL     1      -1.652  11.558  19.664  0.00  0.00    +0.000 HD
ENDBRANCH  13  15
TORSDOF 1
ENDMDL
MODEL 2
REMARK VINA RESULT:      -7.0      3.575      7.573
REMARK  Name = 
REMARK  2 active torsions:
REMARK  status: ('A' for Active; 'I' for Inactive)
REMARK    1  A    between atoms: C_1  and  C_2
REMARK    2  A    between atoms: C_13  and  C_15
REMARK                            x       y       z     vdW  Elec       q    Type
REMARK                         _______ _______ _______ _____ _____    ______ ____
ROOT
ATOM      1  C   UNL     1       1.017   8.488  17.418  0.00  0.00    +0.000 C 
ATOM      2  C   UNL     1       2.048   8.321  18.537  0.00  0.00    +0.000 C 
ATOM      3  C   UNL     1       1.501   8.721  19.894  0.00  0.00    +0.000 A 
ATOM      4  C   UNL     1       1.346  10.089  20.184  0.00  0.00    +0.000 A 
ATOM      5  C   UNL     1       0.857  10.496  21.422  0.00  0.00    +0.000 A 
ATOM      6  C   UNL     1       0.522   9.540  22.370  0.00  0.00    +0.000 A 
ATOM      7  F   UNL     1       0.051   9.933  23.561  0.00  0.00    +0.000 F 
ATOM      8  C   UNL     1       0.686   8.183  22.114  0.00  0.00    +0.000 A 
ATOM      9  C   UNL     1       1.184   7.758  20.875  0.00  0.00    +0.000 A 
ATOM     10  C   UNL     1       1.474   6.291  20.655  0.00  0.00    +0.000 C 
ATOM     11  C   UNL     1       1.752   5.947  19.195  0.00  0.00    +0.000 C 
ATOM     12  N   UNL     1       2.593   6.964  18.570  0.00  0.00    +0.000 N 
ATOM     13  C   UNL     1       3.806   6.774  17.959  0.00  0.00    +0.000 C 
ATOM     14  O   UNL     1       4.307   7.637  17.232  0.00  0.00    +0.000 OA
ENDROOT
BRANCH  13  15
ATOM     15  C   UNL     1       4.590   5.549  18.234  0.00  0.00    +0.000 A 
ATOM     16  C   UNL     1       5.871   5.850  18.544  0.00  0.00    +0.000 A 
ATOM     17  N   UNL     1       6.979   5.168  18.016  0.00  0.00    +0.000 N 
ATOM     18  C   UNL     1       6.708   4.746  16.670  0.00  0.00    +0.000 A 
ATOM     19  C   UNL     1       7.552   5.099  15.624  0.00  0.00    +0.000 A 
ATOM     20  C   UNL     1       7.187   4.762  14.322  0.00  0.00    +0.000 A 
ATOM     21  C   UNL     1       6.018   4.025  14.070  0.00  0.00    +0.000 A 
ATOM     22  C   UNL     1       5.143   3.717  15.108  0.00  0.00    +0.000 A 
ATOM     23  C   UNL     1       5.463   4.150  16.384  0.00  0.00    +0.000 A 
ATOM     24  C   UNL     1       4.414   4.309  17.421  0.00  0.00    +0.000 A 
ATOM     25  O   UNL     1       3.475   3.539  17.547  0.00  0.00    +0.000 OA
ATOM     26  H   UNL     1       7.054   4.293  18.552  0.00  0.00    +0.000 HD
ENDBRANCH  13  15
TORSDOF 1
ENDMDL
MODEL 3
REMARK VINA RESULT:      -7.0      6.546      9.419
REMARK  Name = 
REMARK  2 active torsions:
REMARK  status: ('A' for Active; 'I' for Inactive)
REMARK    1  A    between atoms: C_1  and  C_2
REMARK    2  A    between atoms: C_13  and  C_15
REMARK                            x       y       z     vdW  Elec       q    Type
REMARK                         _______ _______ _______ _____ _____    ______ ____
ROOT
ATOM      1  C   UNL     1       4.194  16.031  21.583  0.00  0.00    +0.000 C 
ATOM      2  C   UNL     1       4.477  14.864  20.634  0.00  0.00    +0.000 C 
ATOM      3  C   UNL     1       3.209  14.276  20.044  0.00  0.00    +0.000 A 
ATOM      4  C   UNL     1       2.394  13.471  20.860  0.00  0.00    +0.000 A 
ATOM      5  C   UNL     1       1.228  12.905  20.351  0.00  0.00    +0.000 A 
ATOM      6  C   UNL     1       0.874  13.144  19.031  0.00  0.00    +0.000 A 
ATOM      7  F   UNL     1      -0.248  12.599  18.543  0.00  0.00    +0.000 F 
ATOM      8  C   UNL     1       1.675  13.920  18.200  0.00  0.00    +0.000 A 
ATOM      9  C   UNL     1       2.855  14.489  18.695  0.00  0.00    +0.000 A 
ATOM     10  C   UNL     1       3.777  15.225  17.750  0.00  0.00    +0.000 C 
ATOM     11  C   UNL     1       4.870  16.011  18.470  0.00  0.00    +0.000 C 
ATOM     12  N   UNL     1       5.420  15.241  19.582  0.00  0.00    +0.000 N 
ATOM     13  C   UNL     1       6.731  14.887  19.776  0.00  0.00    +0.000 C 
ATOM     14  O   UNL     1       7.135  14.476  20.867  0.00  0.00    +0.000 OA
ENDROOT
BRANCH  13  15
ATOM     15  C   UNL     1       7.680  14.910  18.641  0.00  0.00    +0.000 A 
ATOM     16  C   UNL     1       7.333  14.004  17.698  0.00  0.00    +0.000 A 
ATOM     17  N   UNL     1       8.250  13.143  17.075  0.00  0.00    +0.000 N 
ATOM     18  C   UNL     1       9.289  12.773  17.994  0.00  0.00    +0.000 A 
ATOM     19  C   UNL     1       9.573  11.439  18.256  0.00  0.00    +0.000 A 
ATOM     20  C   UNL     1      10.513  11.131  19.239  0.00  0.00    +0.000 A 
ATOM     21  C   UNL     1      11.209  12.148  19.912  0.00  0.00    +0.000 A 
ATOM     22  C   UNL     1      10.888  13.484  19.692  0.00  0.00    +0.000 A 
ATOM     23  C   UNL     1       9.878  13.776  18.790  0.00  0.00    +0.000 A 
ATOM     24  C   UNL     1       9.150  15.066  18.852  0.00  0.00    +0.000 A 
ATOM     25  O   UNL     1       9.691  16.129  19.113  0.00  0.00    +0.000 OA
ATOM     26  H   UNL     1       8.725  13.707  16.358  0.00  0.00    +0.000 HD
ENDBRANCH  13  15
TORSDOF 1
ENDMDL
MODEL 4
REMARK VINA RESULT:      -7.0      4.327      6.236
REMARK  Name = 
REMARK  2 active torsions:
REMARK  status: ('A' for Active; 'I' for Inactive)
REMARK    1  A    between atoms: C_1  and  C_2
REMARK    2  A    between atoms: C_13  and  C_15
REMARK                            x       y       z     vdW  Elec       q    Type
REMARK                         _______ _______ _______ _____ _____    ______ ____
ROOT
ATOM      1  C   UNL     1       0.678   9.768  19.630  0.00  0.00    +0.000 C 
ATOM      2  C   UNL     1       0.235  11.014  18.859  0.00  0.00    +0.000 C 
ATOM      3  C   UNL     1      -1.213  10.934  18.413  0.00  0.00    +0.000 A 
ATOM      4  C   UNL     1      -1.542  10.096  17.333  0.00  0.00    +0.000 A 
ATOM      5  C   UNL     1      -2.858  10.005  16.887  0.00  0.00    +0.000 A 
ATOM      6  C   UNL     1      -3.845  10.748  17.520  0.00  0.00    +0.000 A 
ATOM      7  F   UNL     1      -5.110  10.659  17.091  0.00  0.00    +0.000 F 
ATOM      8  C   UNL     1      -3.539  11.599  18.576  0.00  0.00    +0.000 A 
ATOM      9  C   UNL     1      -2.218  11.708  19.030  0.00  0.00    +0.000 A 
ATOM     10  C   UNL     1      -1.880  12.727  20.094  0.00  0.00    +0.000 C 
ATOM     11  C   UNL     1      -0.480  12.548  20.672  0.00  0.00    +0.000 C 
ATOM     12  N   UNL     1       0.484  12.237  19.620  0.00  0.00    +0.000 N 
ATOM     13  C   UNL     1       1.625  12.932  19.311  0.00  0.00    +0.000 C 
ATOM     14  O   UNL     1       2.504  12.447  18.594  0.00  0.00    +0.000 OA
ENDROOT
BRANCH  13  15
ATOM     15  C   UNL     1       1.786  14.331  19.766  0.00  0.00    +0.000 A 
ATOM     16  C   UNL     1       1.873  15.178  18.714  0.00  0.00    +0.000 A 
ATOM     17  N   UNL     1       2.820  16.211  18.627  0.00  0.00    +0.000 N 
ATOM     18  C   UNL     1       4.047  15.817  19.261  0.00  0.00    +0.000 A 
ATOM     19  C   UNL     1       5.254  15.860  18.575  0.00  0.00    +0.000 A 
ATOM     20  C   UNL     1       6.398  15.362  19.195  0.00  0.00    +0.000 A 
ATOM     21  C   UNL     1       6.350  14.881  20.514  0.00  0.00    +0.000 A 
ATOM     22  C   UNL     1       5.135  14.785  21.184  0.00  0.00    +0.000 A 
ATOM     23  C   UNL     1       3.987  15.185  20.519  0.00  0.00    +0.000 A 
ATOM     24  C   UNL     1       2.654  14.681  20.929  0.00  0.00    +0.000 A 
ATOM     25  O   UNL     1       2.331  14.512  22.095  0.00  0.00    +0.000 OA
ATOM     26  H   UNL     1       2.459  16.976  19.213  0.00  0.00    +0.000 HD
ENDBRANCH  13  15
TORSDOF 1
ENDMDL
MODEL 5
REMARK VINA RESULT:      -6.7      3.122      7.676
REMARK  Name = 
REMARK  2 active torsions:
REMARK  status: ('A' for Active; 'I' for Inactive)
REMARK    1  A    between atoms: C_1  and  C_2
REMARK    2  A    between atoms: C_13  and  C_15
REMARK                            x       y       z     vdW  Elec       q    Type
REMARK                         _______ _______ _______ _____ _____    ______ ____
ROOT
ATOM      1  C   UNL     1      -0.638   9.890  17.823  0.00  0.00    +0.000 C 
ATOM      2  C   UNL     1       0.771  10.104  18.382  0.00  0.00    +0.000 C 
ATOM      3  C   UNL     1       0.918  11.439  19.086  0.00  0.00    +0.000 A 
ATOM      4  C   UNL     1       1.004  12.607  18.308  0.00  0.00    +0.000 A 
ATOM      5  C   UNL     1       1.151  13.851  18.916  0.00  0.00    +0.000 A 
ATOM      6  C   UNL     1       1.211  13.929  20.300  0.00  0.00    +0.000 A 
ATOM      7  F   UNL     1       1.352  15.125  20.886  0.00  0.00    +0.000 F 
ATOM      8  C   UNL     1       1.149  12.786  21.090  0.00  0.00    +0.000 A 
ATOM      9  C   UNL     1       1.010  11.527  20.491  0.00  0.00    +0.000 A 
ATOM     10  C   UNL     1       1.069  10.285  21.351  0.00  0.00    +0.000 C 
ATOM     11  C   UNL     1       0.639   9.022  20.611  0.00  0.00    +0.000 C 
ATOM     12  N   UNL     1       1.178   9.002  19.254  0.00  0.00    +0.000 N 
ATOM     13  C   UNL     1       1.973   8.036  18.693  0.00  0.00    +0.000 C 
ATOM     14  O   UNL     1       2.153   7.974  17.473  0.00  0.00    +0.000 OA
ENDROOT
BRANCH  13  15
ATOM     15  C   UNL     1       2.710   7.089  19.559  0.00  0.00    +0.000 A 
ATOM     16  C   UNL     1       3.935   6.818  19.051  0.00  0.00    +0.000 A 
ATOM     17  N   UNL     1       4.474   5.523  18.976  0.00  0.00    +0.000 N 
ATOM     18  C   UNL     1       3.433   4.563  18.737  0.00  0.00    +0.000 A 
ATOM     19  C   UNL     1       3.498   3.689  17.659  0.00  0.00    +0.000 A 
ATOM     20  C   UNL     1       2.411   2.854  17.404  0.00  0.00    +0.000 A 
ATOM     21  C   UNL     1       1.294   2.847  18.255  0.00  0.00    +0.000 A 
ATOM     22  C   UNL     1       1.201   3.759  19.302  0.00  0.00    +0.000 A 
ATOM     23  C   UNL     1       2.240   4.657  19.482  0.00  0.00    +0.000 A 
ATOM     24  C   UNL     1       2.029   5.931  20.211  0.00  0.00    +0.000 A 
ATOM     25  O   UNL     1       1.319   6.027  21.200  0.00  0.00    +0.000 OA
ATOM     26  H   UNL     1       4.817   5.305  19.921  0.00  0.00    +0.000 HD
ENDBRANCH  13  15
TORSDOF 1
ENDMDL
MODEL 6
REMARK VINA RESULT:      -6.7      7.680     10.164
REMARK  Name = 
REMARK  2 active torsions:
REMARK  status: ('A' for Active; 'I' for Inactive)
REMARK    1  A    between atoms: C_1  and  C_2
REMARK    2  A    between atoms: C_13  and  C_15
REMARK                            x       y       z     vdW  Elec       q    Type
REMARK                         _______ _______ _______ _____ _____    ______ ____
ROOT
ATOM      1  C   UNL     1       5.360  16.678  22.070  0.00  0.00    +0.000 C 
ATOM      2  C   UNL     1       5.109  15.570  21.044  0.00  0.00    +0.000 C 
ATOM      3  C   UNL     1       3.639  15.416  20.705  0.00  0.00    +0.000 A 
ATOM      4  C   UNL     1       2.791  14.799  21.642  0.00  0.00    +0.000 A 
ATOM      5  C   UNL     1       1.438  14.629  21.363  0.00  0.00    +0.000 A 
ATOM      6  C   UNL     1       0.931  15.076  20.151  0.00  0.00    +0.000 A 
ATOM      7  F   UNL     1      -0.372  14.913  19.883  0.00  0.00    +0.000 F 
ATOM      8  C   UNL     1       1.754  15.671  19.201  0.00  0.00    +0.000 A 
ATOM      9  C   UNL     1       3.120  15.841  19.464  0.00  0.00    +0.000 A 
ATOM     10  C   UNL     1       4.025  16.373  18.377  0.00  0.00    +0.000 C 
ATOM     11  C   UNL     1       5.413  16.753  18.885  0.00  0.00    +0.000 C 
ATOM     12  N   UNL     1       5.910  15.763  19.835  0.00  0.00    +0.000 N 
ATOM     13  C   UNL     1       7.073  15.041  19.746  0.00  0.00    +0.000 C 
ATOM     14  O   UNL     1       7.535  14.436  20.718  0.00  0.00    +0.000 OA
ENDROOT
BRANCH  13  15
ATOM     15  C   UNL     1       7.760  14.901  18.443  0.00  0.00    +0.000 A 
ATOM     16  C   UNL     1       7.202  13.917  17.702  0.00  0.00    +0.000 A 
ATOM     17  N   UNL     1       7.948  12.955  17.002  0.00  0.00    +0.000 N 
ATOM     18  C   UNL     1       9.151  12.639  17.721  0.00  0.00    +0.000 A 
ATOM     19  C   UNL     1       9.456  11.329  18.066  0.00  0.00    +0.000 A 
ATOM     20  C   UNL     1      10.576  11.086  18.860  0.00  0.00    +0.000 A 
ATOM     21  C   UNL     1      11.420  12.137  19.254  0.00  0.00    +0.000 A 
ATOM     22  C   UNL     1      11.088  13.455  18.957  0.00  0.00    +0.000 A 
ATOM     23  C   UNL     1       9.916  13.693  18.258  0.00  0.00    +0.000 A 
ATOM     24  C   UNL     1       9.244  15.014  18.324  0.00  0.00    +0.000 A 
ATOM     25  O   UNL     1       9.850  16.074  18.345  0.00  0.00    +0.000 OA
ATOM     26  H   UNL     1       8.272  13.418  16.143  0.00  0.00    +0.000 HD
ENDBRANCH  13  15
TORSDOF 1
ENDMDL
MODEL 7
REMARK VINA RESULT:      -6.6      5.590      7.579
REMARK  Name = 
REMARK  2 active torsions:
REMARK  status: ('A' for Active; 'I' for Inactive)
REMARK    1  A    between atoms: C_1  and  C_2
REMARK    2  A    between atoms: C_13  and  C_15
REMARK                            x       y       z     vdW  Elec       q    Type
REMARK                         _______ _______ _______ _____ _____    ______ ____
ROOT
ATOM      1  C   UNL     1      -1.245  10.731  19.106  0.00  0.00    +0.000 C 
ATOM      2  C   UNL     1      -1.974  12.053  18.851  0.00  0.00    +0.000 C 
ATOM      3  C   UNL     1      -3.482  11.906  18.923  0.00  0.00    +0.000 A 
ATOM      4  C   UNL     1      -4.152  11.282  17.855  0.00  0.00    +0.000 A 
ATOM      5  C   UNL     1      -5.536  11.139  17.879  0.00  0.00    +0.000 A 
ATOM      6  C   UNL     1      -6.252  11.616  18.968  0.00  0.00    +0.000 A 
ATOM      7  F   UNL     1      -7.584  11.477  18.991  0.00  0.00    +0.000 F 
ATOM      8  C   UNL     1      -5.614  12.254  20.026  0.00  0.00    +0.000 A 
ATOM      9  C   UNL     1      -4.222  12.413  20.012  0.00  0.00    +0.000 A 
ATOM     10  C   UNL     1      -3.555  13.217  21.105  0.00  0.00    +0.000 C 
ATOM     11  C   UNL     1      -2.036  13.079  21.109  0.00  0.00    +0.000 C 
ATOM     12  N   UNL     1      -1.506  13.108  19.749  0.00  0.00    +0.000 N 
ATOM     13  C   UNL     1      -0.574  13.978  19.241  0.00  0.00    +0.000 C 
ATOM     14  O   UNL     1       0.003  13.757  18.173  0.00  0.00    +0.000 OA
ENDROOT
BRANCH  13  15
ATOM     15  C   UNL     1      -0.303  15.258  19.932  0.00  0.00    +0.000 A 
ATOM     16  C   UNL     1      -1.411  16.034  19.970  0.00  0.00    +0.000 A 
ATOM     17  N   UNL     1      -1.406  17.407  19.679  0.00  0.00    +0.000 N 
ATOM     18  C   UNL     1      -0.433  17.698  18.663  0.00  0.00    +0.000 A 
ATOM     19  C   UNL     1      -0.792  18.358  17.495  0.00  0.00    +0.000 A 
ATOM     20  C   UNL     1       0.163  18.516  16.492  0.00  0.00    +0.000 A 
ATOM     21  C   UNL     1       1.483  18.073  16.679  0.00  0.00    +0.000 A 
ATOM     22  C   UNL     1       1.831  17.363  17.824  0.00  0.00    +0.000 A 
ATOM     23  C   UNL     1       0.848  17.119  18.767  0.00  0.00    +0.000 A 
ATOM     24  C   UNL     1       0.977  16.000  19.732  0.00  0.00    +0.000 A 
ATOM     25  O   UNL     1       2.036  15.684  20.253  0.00  0.00    +0.000 OA
ATOM     26  H   UNL     1      -1.049  17.875  20.522  0.00  0.00    +0.000 HD
ENDBRANCH  13  15
TORSDOF 1
ENDMDL
MODEL 8
REMARK VINA RESULT:      -6.6      5.512      7.260
REMARK  Name = 
REMARK  2 active torsions:
REMARK  status: ('A' for Active; 'I' for Inactive)
REMARK    1  A    between atoms: C_1  and  C_2
REMARK    2  A    between atoms: C_13  and  C_15
REMARK                            x       y       z     vdW  Elec       q    Type
REMARK                         _______ _______ _______ _____ _____    ______ ____
ROOT
ATOM      1  C   UNL     1      -1.900  10.174  18.354  0.00  0.00    +0.000 C 
ATOM      2  C   UNL     1      -2.318  11.646  18.377  0.00  0.00    +0.000 C 
ATOM      3  C   UNL     1      -3.818  11.821  18.518  0.00  0.00    +0.000 A 
ATOM      4  C   UNL     1      -4.636  11.563  17.404  0.00  0.00    +0.000 A 
ATOM      5  C   UNL     1      -6.016  11.723  17.491  0.00  0.00    +0.000 A 
ATOM      6  C   UNL     1      -6.580  12.138  18.689  0.00  0.00    +0.000 A 
ATOM      7  F   UNL     1      -7.908  12.291  18.773  0.00  0.00    +0.000 F 
ATOM      8  C   UNL     1      -5.789  12.419  19.798  0.00  0.00    +0.000 A 
ATOM      9  C   UNL     1      -4.397  12.271  19.723  0.00  0.00    +0.000 A 
ATOM     10  C   UNL     1      -3.541  12.698  20.893  0.00  0.00    +0.000 C 
ATOM     11  C   UNL     1      -2.092  12.234  20.776  0.00  0.00    +0.000 C 
ATOM     12  N   UNL     1      -1.601  12.394  19.410  0.00  0.00    +0.000 N 
ATOM     13  C   UNL     1      -0.510  13.116  19.001  0.00  0.00    +0.000 C 
ATOM     14  O   UNL     1      -0.023  12.973  17.876  0.00  0.00    +0.000 OA
ENDROOT
BRANCH  13  15
ATOM     15  C   UNL     1       0.059  14.160  19.883  0.00  0.00    +0.000 A 
ATOM     16  C   UNL     1      -0.393  15.388  19.538  0.00  0.00    +0.000 A 
ATOM     17  N   UNL     1       0.434  16.518  19.434  0.00  0.00    +0.000 N 
ATOM     18  C   UNL     1       1.738  16.139  18.965  0.00  0.00    +0.000 A 
ATOM     19  C   UNL     1       2.294  16.731  17.839  0.00  0.00    +0.000 A 
ATOM     20  C   UNL     1       3.512  16.252  17.358  0.00  0.00    +0.000 A 
ATOM     21  C   UNL     1       4.199  15.229  18.034  0.00  0.00    +0.000 A 
ATOM     22  C   UNL     1       3.619  14.597  19.129  0.00  0.00    +0.000 A 
ATOM     23  C   UNL     1       2.361  15.010  19.534  0.00  0.00    +0.000 A 
ATOM     24  C   UNL     1       1.484  14.117  20.329  0.00  0.00    +0.000 A 
ATOM     25  O   UNL     1       1.900  13.379  21.208  0.00  0.00    +0.000 OA
ATOM     26  H   UNL     1       0.589  16.845  20.397  0.00  0.00    +0.000 HD
ENDBRANCH  13  15
TORSDOF 1
ENDMDL
MODEL 9
REMARK VINA RESULT:      -6.5      3.743      5.332
REMARK  Name = 
REMARK  2 active torsions:
REMARK  status: ('A' for Active; 'I' for Inactive)
REMARK    1  A    between atoms: C_1  and  C_2
REMARK    2  A    between atoms: C_13  and  C_15
REMARK                            x       y       z     vdW  Elec       q    Type
REMARK                         _______ _______ _______ _____ _____    ______ ____
ROOT
ATOM      1  C   UNL     1      -0.915   8.322  21.547  0.00  0.00    +0.000 C 
ATOM      2  C   UNL     1       0.157   9.332  21.131  0.00  0.00    +0.000 C 
ATOM      3  C   UNL     1       1.041   8.812  20.013  0.00  0.00    +0.000 A 
ATOM      4  C   UNL     1       2.013   7.842  20.316  0.00  0.00    +0.000 A 
ATOM      5  C   UNL     1       2.850   7.349  19.319  0.00  0.00    +0.000 A 
ATOM      6  C   UNL     1       2.717   7.821  18.021  0.00  0.00    +0.000 A 
ATOM      7  F   UNL     1       3.523   7.345  17.063  0.00  0.00    +0.000 F 
ATOM      8  C   UNL     1       1.777   8.795  17.702  0.00  0.00    +0.000 A 
ATOM      9  C   UNL     1       0.933   9.307  18.696  0.00  0.00    +0.000 A 
ATOM     10  C   UNL     1       0.003  10.451  18.363  0.00  0.00    +0.000 C 
ATOM     11  C   UNL     1      -1.031  10.720  19.453  0.00  0.00    +0.000 C 
ATOM     12  N   UNL     1      -0.429  10.625  20.779  0.00  0.00    +0.000 N 
ATOM     13  C   UNL     1      -0.406  11.594  21.749  0.00  0.00    +0.000 C 
ATOM     14  O   UNL     1      -0.116  11.332  22.920  0.00  0.00    +0.000 OA
ENDROOT
BRANCH  13  15
ATOM     15  C   UNL     1      -0.649  13.009  21.389  0.00  0.00    +0.000 A 
ATOM     16  C   UNL     1       0.346  13.805  21.844  0.00  0.00    +0.000 A 
ATOM     17  N   UNL     1       0.124  15.033  22.488  0.00  0.00    +0.000 N 
ATOM     18  C   UNL     1      -1.083  14.977  23.263  0.00  0.00    +0.000 A 
ATOM     19  C   UNL     1      -1.080  15.282  24.619  0.00  0.00    +0.000 A 
ATOM     20  C   UNL     1      -2.252  15.105  25.351  0.00  0.00    +0.000 A 
ATOM     21  C   UNL     1      -3.436  14.684  24.723  0.00  0.00    +0.000 A 
ATOM     22  C   UNL     1      -3.430  14.325  23.379  0.00  0.00    +0.000 A 
ATOM     23  C   UNL     1      -2.234  14.404  22.685  0.00  0.00    +0.000 A 
ATOM     24  C   UNL     1      -2.014  13.610  21.452  0.00  0.00    +0.000 A 
ATOM     25  O   UNL     1      -2.882  13.419  20.615  0.00  0.00    +0.000 OA
ATOM     26  H   UNL     1      -0.078  15.711  21.741  0.00  0.00    +0.000 HD
ENDBRANCH  13  15
TORSDOF 1
ENDMDL
