MODEL 1
REMARK VINA RESULT:      -8.2      0.000      0.000
REMARK  Name = 
REMARK  10 active torsions:
REMARK  status: ('A' for Active; 'I' for Inactive)
REMARK    1  A    between atoms: C_1  and  C_2
REMARK    2  A    between atoms: C_6  and  C_7
REMARK    3  A    between atoms: C_10  and  S_11
REMARK    4  A    between atoms: S_11  and  C_12
REMARK    5  A    between atoms: C_12  and  C_13
REMARK    6  A    between atoms: N_15  and  C_16
REMARK    7  A    between atoms: C_21  and  C_22
REMARK    8  A    between atoms: C_22  and  O_24
REMARK    9  A    between atoms: N_25  and  C_26
REMARK   10  A    between atoms: C_26  and  C_27
REMARK                            x       y       z     vdW  Elec       q    Type
REMARK                         _______ _______ _______ _____ _____    ______ ____
ROOT
ATOM      1  C   UNL     1       4.499   6.568  17.114  0.00  0.00    +0.000 A 
ATOM      2  N   UNL     1       4.194   7.693  16.490  0.00  0.00    +0.000 NA
ATOM      3  N   UNL     1       3.198   8.337  17.179  0.00  0.00    +0.000 NA
ATOM      4  C   UNL     1       2.924   7.613  18.236  0.00  0.00    +0.000 A 
ATOM      5  N   UNL     1       3.761   6.519  18.287  0.00  0.00    +0.000 N 
ENDROOT
BRANCH   1  11
ATOM      6  C   UNL     1       7.537   5.945  18.151  0.00  0.00    +0.000 C 
ATOM      7  C   UNL     1       6.764   5.401  17.010  0.00  0.00    +0.000 A 
ATOM      8  O   UNL     1       7.432   4.491  16.245  0.00  0.00    +0.000 OA
ATOM      9  C   UNL     1       6.583   4.093  15.271  0.00  0.00    +0.000 A 
ATOM     10  C   UNL     1       5.369   4.733  15.399  0.00  0.00    +0.000 A 
ATOM     11  C   UNL     1       5.479   5.596  16.522  0.00  0.00    +0.000 A 
ENDBRANCH   1  11
BRANCH   4  12
ATOM     12  S   UNL     1       1.749   8.044  19.441  0.00  0.00    +0.000 S 
BRANCH  12  13
ATOM     13  C   UNL     1       1.274   9.743  18.919  0.00  0.00    +0.000 C 
BRANCH  13  14
ATOM     14  C   UNL     1      -0.097  10.135  19.470  0.00  0.00    +0.000 C 
ATOM     15  O   UNL     1      -0.580   9.576  20.449  0.00  0.00    +0.000 OA
ATOM     16  N   UNL     1      -0.716  11.202  18.805  0.00  0.00    +0.000 N 
ATOM     17  H   UNL     1      -0.164  11.787  18.175  0.00  0.00    +0.000 HD
BRANCH  16  18
ATOM     18  C   UNL     1      -2.059  11.637  19.067  0.00  0.00    +0.000 A 
ATOM     19  C   UNL     1      -2.373  12.272  20.281  0.00  0.00    +0.000 A 
ATOM     20  C   UNL     1      -3.659  12.748  20.558  0.00  0.00    +0.000 A 
ATOM     21  C   UNL     1      -4.679  12.573  19.637  0.00  0.00    +0.000 A 
ATOM     22  C   UNL     1      -4.417  11.903  18.443  0.00  0.00    +0.000 A 
ATOM     23  C   UNL     1      -3.114  11.442  18.148  0.00  0.00    +0.000 A 
BRANCH  23  24
ATOM     24  C   UNL     1      -2.889  10.748  16.859  0.00  0.00    +0.000 C 
ATOM     25  O   UNL     1      -2.496   9.591  16.796  0.00  0.00    +0.000 OA
BRANCH  24  26
ATOM     26  O   UNL     1      -3.101  11.516  15.772  0.00  0.00    +0.000 OA
ATOM     27  H   UNL     1      -4.021  11.534  15.441  0.00  0.00    +0.000 HD
ENDBRANCH  24  26
ENDBRANCH  23  24
ENDBRANCH  16  18
ENDBRANCH  13  14
ENDBRANCH  12  13
ENDBRANCH   4  12
BRANCH   5  28
ATOM     28  C   UNL     1       3.830   5.534  19.355  0.00  0.00    +0.000 C 
BRANCH  28  29
ATOM     29  C   UNL     1       2.878   4.363  19.185  0.00  0.00    +0.000 A 
ATOM     30  C   UNL     1       3.127   3.303  18.299  0.00  0.00    +0.000 A 
ATOM     31  C   UNL     1       2.229   2.238  18.175  0.00  0.00    +0.000 A 
ATOM     32  C   UNL     1       1.080   2.195  18.958  0.00  0.00    +0.000 A 
ATOM     33  C   UNL     1       0.840   3.209  19.883  0.00  0.00    +0.000 A 
ATOM     34  C   UNL     1       1.734   4.278  20.003  0.00  0.00    +0.000 A 
ENDBRANCH  28  29
ENDBRANCH   5  28
TORSDOF 9
ENDMDL
MODEL 2
REMARK VINA RESULT:      -8.1      4.690      8.750
REMARK  Name = 
REMARK  10 active torsions:
REMARK  status: ('A' for Active; 'I' for Inactive)
REMARK    1  A    between atoms: C_1  and  C_2
REMARK    2  A    between atoms: C_6  and  C_7
REMARK    3  A    between atoms: C_10  and  S_11
REMARK    4  A    between atoms: S_11  and  C_12
REMARK    5  A    between atoms: C_12  and  C_13
REMARK    6  A    between atoms: N_15  and  C_16
REMARK    7  A    between atoms: C_21  and  C_22
REMARK    8  A    between atoms: C_22  and  O_24
REMARK    9  A    between atoms: N_25  and  C_26
REMARK   10  A    between atoms: C_26  and  C_27
REMARK                            x       y       z     vdW  Elec       q    Type
REMARK                         _______ _______ _______ _____ _____    ______ ____
ROOT
ATOM      1  C   UNL     1       4.468   4.456  19.465  0.00  0.00    +0.000 A 
ATOM      2  N   UNL     1       5.646   4.322  20.050  0.00  0.00    +0.000 NA
ATOM      3  N   UNL     1       6.558   5.131  19.423  0.00  0.00    +0.000 NA
ATOM      4  C   UNL     1       5.922   5.776  18.477  0.00  0.00    +0.000 A 
ATOM      5  N   UNL     1       4.583   5.444  18.499  0.00  0.00    +0.000 N 
ENDROOT
BRANCH   1  11
ATOM      6  C   UNL     1       3.189   1.950  17.799  0.00  0.00    +0.000 C 
ATOM      7  C   UNL     1       2.803   2.561  19.092  0.00  0.00    +0.000 A 
ATOM      8  O   UNL     1       1.717   1.996  19.694  0.00  0.00    +0.000 OA
ATOM      9  C   UNL     1       1.518   2.658  20.855  0.00  0.00    +0.000 A 
ATOM     10  C   UNL     1       2.465   3.646  21.015  0.00  0.00    +0.000 A 
ATOM     11  C   UNL     1       3.301   3.599  19.867  0.00  0.00    +0.000 A 
ENDBRANCH   1  11
BRANCH   4  12
ATOM     12  S   UNL     1       6.653   6.955  17.431  0.00  0.00    +0.000 S 
BRANCH  12  13
ATOM     13  C   UNL     1       8.075   7.532  18.445  0.00  0.00    +0.000 C 
BRANCH  13  14
ATOM     14  C   UNL     1       8.330   9.027  18.252  0.00  0.00    +0.000 C 
ATOM     15  O   UNL     1       7.710   9.683  17.420  0.00  0.00    +0.000 OA
ATOM     16  N   UNL     1       9.276   9.582  19.124  0.00  0.00    +0.000 N 
ATOM     17  H   UNL     1       9.563   9.055  19.951  0.00  0.00    +0.000 HD
BRANCH  16  18
ATOM     18  C   UNL     1       9.766  10.927  19.023  0.00  0.00    +0.000 A 
ATOM     19  C   UNL     1      10.458  11.345  17.874  0.00  0.00    +0.000 A 
ATOM     20  C   UNL     1      10.916  12.657  17.719  0.00  0.00    +0.000 A 
ATOM     21  C   UNL     1      10.720  13.586  18.729  0.00  0.00    +0.000 A 
ATOM     22  C   UNL     1      10.082  13.195  19.905  0.00  0.00    +0.000 A 
ATOM     23  C   UNL     1       9.596  11.877  20.055  0.00  0.00    +0.000 A 
BRANCH  23  24
ATOM     24  C   UNL     1       8.914  11.520  21.321  0.00  0.00    +0.000 C 
ATOM     25  O   UNL     1       8.947  10.389  21.788  0.00  0.00    +0.000 OA
BRANCH  24  26
ATOM     26  O   UNL     1       8.215  12.529  21.877  0.00  0.00    +0.000 OA
ATOM     27  H   UNL     1       8.221  12.559  22.854  0.00  0.00    +0.000 HD
ENDBRANCH  24  26
ENDBRANCH  23  24
ENDBRANCH  16  18
ENDBRANCH  13  14
ENDBRANCH  12  13
ENDBRANCH   4  12
BRANCH   5  28
ATOM     28  C   UNL     1       3.537   6.020  17.669  0.00  0.00    +0.000 C 
BRANCH  28  29
ATOM     29  C   UNL     1       2.782   7.164  18.323  0.00  0.00    +0.000 A 
ATOM     30  C   UNL     1       2.434   8.337  17.634  0.00  0.00    +0.000 A 
ATOM     31  C   UNL     1       1.733   9.367  18.269  0.00  0.00    +0.000 A 
ATOM     32  C   UNL     1       1.337   9.232  19.596  0.00  0.00    +0.000 A 
ATOM     33  C   UNL     1       1.624   8.054  20.282  0.00  0.00    +0.000 A 
ATOM     34  C   UNL     1       2.332   7.026  19.650  0.00  0.00    +0.000 A 
ENDBRANCH  28  29
ENDBRANCH   5  28
TORSDOF 9
ENDMDL
MODEL 3
REMARK VINA RESULT:      -8.0      2.027      2.938
REMARK  Name = 
REMARK  10 active torsions:
REMARK  status: ('A' for Active; 'I' for Inactive)
REMARK    1  A    between atoms: C_1  and  C_2
REMARK    2  A    between atoms: C_6  and  C_7
REMARK    3  A    between atoms: C_10  and  S_11
REMARK    4  A    between atoms: S_11  and  C_12
REMARK    5  A    between atoms: C_12  and  C_13
REMARK    6  A    between atoms: N_15  and  C_16
REMARK    7  A    between atoms: C_21  and  C_22
REMARK    8  A    between atoms: C_22  and  O_24
REMARK    9  A    between atoms: N_25  and  C_26
REMARK   10  A    between atoms: C_26  and  C_27
REMARK                            x       y       z     vdW  Elec       q    Type
REMARK                         _______ _______ _______ _____ _____    ______ ____
ROOT
ATOM      1  C   UNL     1       4.595   6.521  17.050  0.00  0.00    +0.000 A 
ATOM      2  N   UNL     1       4.270   7.620  16.392  0.00  0.00    +0.000 NA
ATOM      3  N   UNL     1       3.282   8.282  17.076  0.00  0.00    +0.000 NA
ATOM      4  C   UNL     1       3.033   7.594  18.162  0.00  0.00    +0.000 A 
ATOM      5  N   UNL     1       3.879   6.508  18.237  0.00  0.00    +0.000 N 
ENDROOT
BRANCH   1  11
ATOM      6  C   UNL     1       7.593   5.831  18.158  0.00  0.00    +0.000 C 
ATOM      7  C   UNL     1       6.840   5.312  16.993  0.00  0.00    +0.000 A 
ATOM      8  O   UNL     1       7.510   4.395  16.237  0.00  0.00    +0.000 OA
ATOM      9  C   UNL     1       6.679   4.021  15.239  0.00  0.00    +0.000 A 
ATOM     10  C   UNL     1       5.474   4.683  15.341  0.00  0.00    +0.000 A 
ATOM     11  C   UNL     1       5.572   5.535  16.474  0.00  0.00    +0.000 A 
ENDBRANCH   1  11
BRANCH   4  12
ATOM     12  S   UNL     1       1.877   8.060  19.373  0.00  0.00    +0.000 S 
BRANCH  12  13
ATOM     13  C   UNL     1       0.960   9.409  18.524  0.00  0.00    +0.000 C 
BRANCH  13  14
ATOM     14  C   UNL     1       0.567  10.519  19.499  0.00  0.00    +0.000 C 
ATOM     15  O   UNL     1       1.312  11.467  19.728  0.00  0.00    +0.000 OA
ATOM     16  N   UNL     1      -0.711  10.389  20.057  0.00  0.00    +0.000 N 
ATOM     17  H   UNL     1      -1.375   9.732  19.640  0.00  0.00    +0.000 HD
BRANCH  16  18
ATOM     18  C   UNL     1      -1.222  11.237  21.097  0.00  0.00    +0.000 A 
ATOM     19  C   UNL     1      -1.906  12.421  20.771  0.00  0.00    +0.000 A 
ATOM     20  C   UNL     1      -2.454  13.254  21.752  0.00  0.00    +0.000 A 
ATOM     21  C   UNL     1      -2.307  12.940  23.094  0.00  0.00    +0.000 A 
ATOM     22  C   UNL     1      -1.592  11.800  23.456  0.00  0.00    +0.000 A 
ATOM     23  C   UNL     1      -1.057  10.943  22.468  0.00  0.00    +0.000 A 
BRANCH  23  24
ATOM     24  C   UNL     1      -0.317   9.738  22.909  0.00  0.00    +0.000 C 
ATOM     25  O   UNL     1       0.782   9.801  23.445  0.00  0.00    +0.000 OA
BRANCH  24  26
ATOM     26  O   UNL     1      -0.933   8.574  22.622  0.00  0.00    +0.000 OA
ATOM     27  H   UNL     1      -1.011   7.943  23.365  0.00  0.00    +0.000 HD
ENDBRANCH  24  26
ENDBRANCH  23  24
ENDBRANCH  16  18
ENDBRANCH  13  14
ENDBRANCH  12  13
ENDBRANCH   4  12
BRANCH   5  28
ATOM     28  C   UNL     1       3.974   5.562  19.337  0.00  0.00    +0.000 C 
BRANCH  28  29
ATOM     29  C   UNL     1       3.191   4.278  19.125  0.00  0.00    +0.000 A 
ATOM     30  C   UNL     1       1.787   4.233  19.142  0.00  0.00    +0.000 A 
ATOM     31  C   UNL     1       1.101   3.032  18.937  0.00  0.00    +0.000 A 
ATOM     32  C   UNL     1       1.802   1.858  18.678  0.00  0.00    +0.000 A 
ATOM     33  C   UNL     1       3.193   1.891  18.602  0.00  0.00    +0.000 A 
ATOM     34  C   UNL     1       3.881   3.090  18.816  0.00  0.00    +0.000 A 
ENDBRANCH  28  29
ENDBRANCH   5  28
TORSDOF 9
ENDMDL
MODEL 4
REMARK VINA RESULT:      -8.0      1.321      1.843
REMARK  Name = 
REMARK  10 active torsions:
REMARK  status: ('A' for Active; 'I' for Inactive)
REMARK    1  A    between atoms: C_1  and  C_2
REMARK    2  A    between atoms: C_6  and  C_7
REMARK    3  A    between atoms: C_10  and  S_11
REMARK    4  A    between atoms: S_11  and  C_12
REMARK    5  A    between atoms: C_12  and  C_13
REMARK    6  A    between atoms: N_15  and  C_16
REMARK    7  A    between atoms: C_21  and  C_22
REMARK    8  A    between atoms: C_22  and  O_24
REMARK    9  A    between atoms: N_25  and  C_26
REMARK   10  A    between atoms: C_26  and  C_27
REMARK                            x       y       z     vdW  Elec       q    Type
REMARK                         _______ _______ _______ _____ _____    ______ ____
ROOT
ATOM      1  C   UNL     1       4.524   6.420  17.386  0.00  0.00    +0.000 A 
ATOM      2  N   UNL     1       4.124   7.561  16.853  0.00  0.00    +0.000 NA
ATOM      3  N   UNL     1       3.139   8.106  17.635  0.00  0.00    +0.000 NA
ATOM      4  C   UNL     1       2.964   7.306  18.657  0.00  0.00    +0.000 A 
ATOM      5  N   UNL     1       3.859   6.258  18.592  0.00  0.00    +0.000 N 
ENDROOT
BRANCH   1  11
ATOM      6  C   UNL     1       7.612   5.817  18.275  0.00  0.00    +0.000 C 
ATOM      7  C   UNL     1       6.822   5.350  17.112  0.00  0.00    +0.000 A 
ATOM      8  O   UNL     1       7.495   4.537  16.248  0.00  0.00    +0.000 OA
ATOM      9  C   UNL     1       6.630   4.197  15.267  0.00  0.00    +0.000 A 
ATOM     10  C   UNL     1       5.400   4.778  15.487  0.00  0.00    +0.000 A 
ATOM     11  C   UNL     1       5.516   5.541  16.681  0.00  0.00    +0.000 A 
ENDBRANCH   1  11
BRANCH   4  12
ATOM     12  S   UNL     1       1.841   7.598  19.950  0.00  0.00    +0.000 S 
BRANCH  12  13
ATOM     13  C   UNL     1       1.243   9.292  19.559  0.00  0.00    +0.000 C 
BRANCH  13  14
ATOM     14  C   UNL     1       0.087   9.702  20.471  0.00  0.00    +0.000 C 
ATOM     15  O   UNL     1      -0.560   8.872  21.103  0.00  0.00    +0.000 OA
ATOM     16  N   UNL     1      -0.133  11.083  20.562  0.00  0.00    +0.000 N 
ATOM     17  H   UNL     1       0.587  11.727  20.225  0.00  0.00    +0.000 HD
BRANCH  16  18
ATOM     18  C   UNL     1      -1.247  11.674  21.247  0.00  0.00    +0.000 A 
ATOM     19  C   UNL     1      -1.288  11.689  22.652  0.00  0.00    +0.000 A 
ATOM     20  C   UNL     1      -2.335  12.290  23.357  0.00  0.00    +0.000 A 
ATOM     21  C   UNL     1      -3.392  12.870  22.674  0.00  0.00    +0.000 A 
ATOM     22  C   UNL     1      -3.411  12.830  21.281  0.00  0.00    +0.000 A 
ATOM     23  C   UNL     1      -2.343  12.245  20.563  0.00  0.00    +0.000 A 
BRANCH  23  24
ATOM     24  C   UNL     1      -2.409  12.241  19.083  0.00  0.00    +0.000 C 
ATOM     25  O   UNL     1      -1.410  12.323  18.381  0.00  0.00    +0.000 OA
BRANCH  24  26
ATOM     26  O   UNL     1      -3.660  12.196  18.585  0.00  0.00    +0.000 OA
ATOM     27  H   UNL     1      -3.903  12.927  17.983  0.00  0.00    +0.000 HD
ENDBRANCH  24  26
ENDBRANCH  23  24
ENDBRANCH  16  18
ENDBRANCH  13  14
ENDBRANCH  12  13
ENDBRANCH   4  12
BRANCH   5  28
ATOM     28  C   UNL     1       4.041   5.216  19.590  0.00  0.00    +0.000 C 
BRANCH  28  29
ATOM     29  C   UNL     1       2.915   4.197  19.640  0.00  0.00    +0.000 A 
ATOM     30  C   UNL     1       2.212   3.899  20.818  0.00  0.00    +0.000 A 
ATOM     31  C   UNL     1       1.177   2.958  20.823  0.00  0.00    +0.000 A 
ATOM     32  C   UNL     1       0.802   2.322  19.644  0.00  0.00    +0.000 A 
ATOM     33  C   UNL     1       1.449   2.644  18.453  0.00  0.00    +0.000 A 
ATOM     34  C   UNL     1       2.490   3.578  18.448  0.00  0.00    +0.000 A 
ENDBRANCH  28  29
ENDBRANCH   5  28
TORSDOF 9
ENDMDL
MODEL 5
REMARK VINA RESULT:      -8.0      1.432      1.750
REMARK  Name = 
REMARK  10 active torsions:
REMARK  status: ('A' for Active; 'I' for Inactive)
REMARK    1  A    between atoms: C_1  and  C_2
REMARK    2  A    between atoms: C_6  and  C_7
REMARK    3  A    between atoms: C_10  and  S_11
REMARK    4  A    between atoms: S_11  and  C_12
REMARK    5  A    between atoms: C_12  and  C_13
REMARK    6  A    between atoms: N_15  and  C_16
REMARK    7  A    between atoms: C_21  and  C_22
REMARK    8  A    between atoms: C_22  and  O_24
REMARK    9  A    between atoms: N_25  and  C_26
REMARK   10  A    between atoms: C_26  and  C_27
REMARK                            x       y       z     vdW  Elec       q    Type
REMARK                         _______ _______ _______ _____ _____    ______ ____
ROOT
ATOM      1  C   UNL     1       4.249   6.771  17.603  0.00  0.00    +0.000 A 
ATOM      2  N   UNL     1       3.669   7.908  17.262  0.00  0.00    +0.000 NA
ATOM      3  N   UNL     1       2.653   8.180  18.142  0.00  0.00    +0.000 NA
ATOM      4  C   UNL     1       2.640   7.219  19.031  0.00  0.00    +0.000 A 
ATOM      5  N   UNL     1       3.669   6.335  18.785  0.00  0.00    +0.000 N 
ENDROOT
BRANCH   1  11
ATOM      6  C   UNL     1       7.447   7.452  17.659  0.00  0.00    +0.000 C 
ATOM      7  C   UNL     1       6.662   6.520  16.817  0.00  0.00    +0.000 A 
ATOM      8  O   UNL     1       7.389   5.830  15.892  0.00  0.00    +0.000 OA
ATOM      9  C   UNL     1       6.528   5.025  15.231  0.00  0.00    +0.000 A 
ATOM     10  C   UNL     1       5.250   5.182  15.720  0.00  0.00    +0.000 A 
ATOM     11  C   UNL     1       5.323   6.161  16.747  0.00  0.00    +0.000 A 
ENDBRANCH   1  11
BRANCH   4  12
ATOM     12  S   UNL     1       1.546   7.147  20.380  0.00  0.00    +0.000 S 
BRANCH  12  13
ATOM     13  C   UNL     1       1.711   8.834  21.093  0.00  0.00    +0.000 C 
BRANCH  13  14
ATOM     14  C   UNL     1       0.344   9.455  21.382  0.00  0.00    +0.000 C 
ATOM     15  O   UNL     1      -0.516   8.850  22.015  0.00  0.00    +0.000 OA
ATOM     16  N   UNL     1       0.182  10.767  20.917  0.00  0.00    +0.000 N 
ATOM     17  H   UNL     1       1.005  11.302  20.632  0.00  0.00    +0.000 HD
BRANCH  16  18
ATOM     18  C   UNL     1      -1.062  11.483  20.957  0.00  0.00    +0.000 A 
ATOM     19  C   UNL     1      -1.641  11.827  22.191  0.00  0.00    +0.000 A 
ATOM     20  C   UNL     1      -2.830  12.559  22.274  0.00  0.00    +0.000 A 
ATOM     21  C   UNL     1      -3.492  12.943  21.119  0.00  0.00    +0.000 A 
ATOM     22  C   UNL     1      -2.974  12.576  19.878  0.00  0.00    +0.000 A 
ATOM     23  C   UNL     1      -1.761  11.858  19.789  0.00  0.00    +0.000 A 
BRANCH  23  24
ATOM     24  C   UNL     1      -1.249  11.506  18.444  0.00  0.00    +0.000 C 
ATOM     25  O   UNL     1      -0.717  10.430  18.204  0.00  0.00    +0.000 OA
BRANCH  24  26
ATOM     26  O   UNL     1      -1.373  12.488  17.530  0.00  0.00    +0.000 OA
ATOM     27  H   UNL     1      -2.132  12.405  16.920  0.00  0.00    +0.000 HD
ENDBRANCH  24  26
ENDBRANCH  23  24
ENDBRANCH  16  18
ENDBRANCH  13  14
ENDBRANCH  12  13
ENDBRANCH   4  12
BRANCH   5  28
ATOM     28  C   UNL     1       4.041   5.193  19.605  0.00  0.00    +0.000 C 
BRANCH  28  29
ATOM     29  C   UNL     1       3.063   4.033  19.539  0.00  0.00    +0.000 A 
ATOM     30  C   UNL     1       2.380   3.550  20.666  0.00  0.00    +0.000 A 
ATOM     31  C   UNL     1       1.482   2.483  20.564  0.00  0.00    +0.000 A 
ATOM     32  C   UNL     1       1.223   1.899  19.328  0.00  0.00    +0.000 A 
ATOM     33  C   UNL     1       1.848   2.399  18.188  0.00  0.00    +0.000 A 
ATOM     34  C   UNL     1       2.753   3.461  18.290  0.00  0.00    +0.000 A 
ENDBRANCH  28  29
ENDBRANCH   5  28
TORSDOF 9
ENDMDL
MODEL 6
REMARK VINA RESULT:      -7.9      4.980      8.761
REMARK  Name = 
REMARK  10 active torsions:
REMARK  status: ('A' for Active; 'I' for Inactive)
REMARK    1  A    between atoms: C_1  and  C_2
REMARK    2  A    between atoms: C_6  and  C_7
REMARK    3  A    between atoms: C_10  and  S_11
REMARK    4  A    between atoms: S_11  and  C_12
REMARK    5  A    between atoms: C_12  and  C_13
REMARK    6  A    between atoms: N_15  and  C_16
REMARK    7  A    between atoms: C_21  and  C_22
REMARK    8  A    between atoms: C_22  and  O_24
REMARK    9  A    between atoms: N_25  and  C_26
REMARK   10  A    between atoms: C_26  and  C_27
REMARK                            x       y       z     vdW  Elec       q    Type
REMARK                         _______ _______ _______ _____ _____    ______ ____
ROOT
ATOM      1  C   UNL     1       5.203   4.416  18.149  0.00  0.00    +0.000 A 
ATOM      2  N   UNL     1       6.351   4.110  18.729  0.00  0.00    +0.000 NA
ATOM      3  N   UNL     1       7.263   5.103  18.480  0.00  0.00    +0.000 NA
ATOM      4  C   UNL     1       6.656   6.022  17.772  0.00  0.00    +0.000 A 
ATOM      5  N   UNL     1       5.333   5.678  17.590  0.00  0.00    +0.000 N 
ENDROOT
BRANCH   1  11
ATOM      6  C   UNL     1       4.442   2.260  20.486  0.00  0.00    +0.000 C 
ATOM      7  C   UNL     1       3.805   2.549  19.180  0.00  0.00    +0.000 A 
ATOM      8  O   UNL     1       2.719   1.779  18.886  0.00  0.00    +0.000 OA
ATOM      9  C   UNL     1       2.260   2.183  17.681  0.00  0.00    +0.000 A 
ATOM     10  C   UNL     1       3.035   3.212  17.191  0.00  0.00    +0.000 A 
ATOM     11  C   UNL     1       4.051   3.452  18.154  0.00  0.00    +0.000 A 
ENDBRANCH   1  11
BRANCH   4  12
ATOM     12  S   UNL     1       7.397   7.502  17.245  0.00  0.00    +0.000 S 
BRANCH  12  13
ATOM     13  C   UNL     1       8.331   8.015  18.744  0.00  0.00    +0.000 C 
BRANCH  13  14
ATOM     14  C   UNL     1       8.699   9.498  18.695  0.00  0.00    +0.000 C 
ATOM     15  O   UNL     1       8.196  10.258  17.873  0.00  0.00    +0.000 OA
ATOM     16  N   UNL     1       9.601   9.916  19.682  0.00  0.00    +0.000 N 
ATOM     17  H   UNL     1       9.782   9.307  20.483  0.00  0.00    +0.000 HD
BRANCH  16  18
ATOM     18  C   UNL     1      10.185  11.226  19.731  0.00  0.00    +0.000 A 
ATOM     19  C   UNL     1      11.192  11.587  18.820  0.00  0.00    +0.000 A 
ATOM     20  C   UNL     1      11.758  12.866  18.808  0.00  0.00    +0.000 A 
ATOM     21  C   UNL     1      11.352  13.815  19.732  0.00  0.00    +0.000 A 
ATOM     22  C   UNL     1      10.391  13.478  20.684  0.00  0.00    +0.000 A 
ATOM     23  C   UNL     1       9.799  12.194  20.684  0.00  0.00    +0.000 A 
BRANCH  23  24
ATOM     24  C   UNL     1       8.773  11.894  21.710  0.00  0.00    +0.000 C 
ATOM     25  O   UNL     1       7.915  12.703  22.038  0.00  0.00    +0.000 OA
BRANCH  24  26
ATOM     26  O   UNL     1       8.901  10.681  22.282  0.00  0.00    +0.000 OA
ATOM     27  H   UNL     1       8.168  10.055  22.115  0.00  0.00    +0.000 HD
ENDBRANCH  24  26
ENDBRANCH  23  24
ENDBRANCH  16  18
ENDBRANCH  13  14
ENDBRANCH  12  13
ENDBRANCH   4  12
BRANCH   5  28
ATOM     28  C   UNL     1       4.313   6.486  16.940  0.00  0.00    +0.000 C 
BRANCH  28  29
ATOM     29  C   UNL     1       3.351   7.165  17.899  0.00  0.00    +0.000 A 
ATOM     30  C   UNL     1       2.698   8.370  17.594  0.00  0.00    +0.000 A 
ATOM     31  C   UNL     1       1.814   8.962  18.502  0.00  0.00    +0.000 A 
ATOM     32  C   UNL     1       1.539   8.345  19.718  0.00  0.00    +0.000 A 
ATOM     33  C   UNL     1       2.133   7.121  20.017  0.00  0.00    +0.000 A 
ATOM     34  C   UNL     1       3.024   6.532  19.114  0.00  0.00    +0.000 A 
ENDBRANCH  28  29
ENDBRANCH   5  28
TORSDOF 9
ENDMDL
MODEL 7
REMARK VINA RESULT:      -7.9      2.897      9.668
REMARK  Name = 
REMARK  10 active torsions:
REMARK  status: ('A' for Active; 'I' for Inactive)
REMARK    1  A    between atoms: C_1  and  C_2
REMARK    2  A    between atoms: C_6  and  C_7
REMARK    3  A    between atoms: C_10  and  S_11
REMARK    4  A    between atoms: S_11  and  C_12
REMARK    5  A    between atoms: C_12  and  C_13
REMARK    6  A    between atoms: N_15  and  C_16
REMARK    7  A    between atoms: C_21  and  C_22
REMARK    8  A    between atoms: C_22  and  O_24
REMARK    9  A    between atoms: N_25  and  C_26
REMARK   10  A    between atoms: C_26  and  C_27
REMARK                            x       y       z     vdW  Elec       q    Type
REMARK                         _______ _______ _______ _____ _____    ______ ____
ROOT
ATOM      1  C   UNL     1      -0.432  11.020  22.194  0.00  0.00    +0.000 A 
ATOM      2  N   UNL     1       0.110  10.121  22.998  0.00  0.00    +0.000 NA
ATOM      3  N   UNL     1       0.822   9.217  22.252  0.00  0.00    +0.000 NA
ATOM      4  C   UNL     1       0.733   9.589  20.999  0.00  0.00    +0.000 A 
ATOM      5  N   UNL     1       0.011  10.760  20.906  0.00  0.00    +0.000 N 
ENDROOT
BRANCH   1  11
ATOM      6  C   UNL     1       0.063  14.251  22.273  0.00  0.00    +0.000 C 
ATOM      7  C   UNL     1      -1.075  13.426  22.741  0.00  0.00    +0.000 A 
ATOM      8  O   UNL     1      -2.093  14.125  23.319  0.00  0.00    +0.000 OA
ATOM      9  C   UNL     1      -3.042  13.228  23.669  0.00  0.00    +0.000 A 
ATOM     10  C   UNL     1      -2.652  11.954  23.320  0.00  0.00    +0.000 A 
ATOM     11  C   UNL     1      -1.367  12.069  22.724  0.00  0.00    +0.000 A 
ENDBRANCH   1  11
BRANCH   4  12
ATOM     12  S   UNL     1       1.509   8.772  19.676  0.00  0.00    +0.000 S 
BRANCH  12  13
ATOM     13  C   UNL     1       1.666   7.059  20.327  0.00  0.00    +0.000 C 
BRANCH  13  14
ATOM     14  C   UNL     1       2.797   6.298  19.635  0.00  0.00    +0.000 C 
ATOM     15  O   UNL     1       3.646   5.686  20.275  0.00  0.00    +0.000 OA
ATOM     16  N   UNL     1       2.750   6.317  18.235  0.00  0.00    +0.000 N 
ATOM     17  H   UNL     1       1.892   6.616  17.767  0.00  0.00    +0.000 HD
BRANCH  16  18
ATOM     18  C   UNL     1       3.785   5.788  17.391  0.00  0.00    +0.000 A 
ATOM     19  C   UNL     1       4.736   6.648  16.816  0.00  0.00    +0.000 A 
ATOM     20  C   UNL     1       5.783   6.170  16.022  0.00  0.00    +0.000 A 
ATOM     21  C   UNL     1       5.891   4.814  15.754  0.00  0.00    +0.000 A 
ATOM     22  C   UNL     1       4.937   3.937  16.267  0.00  0.00    +0.000 A 
ATOM     23  C   UNL     1       3.891   4.413  17.089  0.00  0.00    +0.000 A 
BRANCH  23  24
ATOM     24  C   UNL     1       2.912   3.435  17.618  0.00  0.00    +0.000 C 
ATOM     25  O   UNL     1       1.981   3.009  16.946  0.00  0.00    +0.000 OA
BRANCH  24  26
ATOM     26  O   UNL     1       3.105   3.100  18.909  0.00  0.00    +0.000 OA
ATOM     27  H   UNL     1       2.806   2.204  19.163  0.00  0.00    +0.000 HD
ENDBRANCH  24  26
ENDBRANCH  23  24
ENDBRANCH  16  18
ENDBRANCH  13  14
ENDBRANCH  12  13
ENDBRANCH   4  12
BRANCH   5  28
ATOM     28  C   UNL     1      -0.223  11.536  19.698  0.00  0.00    +0.000 C 
BRANCH  28  29
ATOM     29  C   UNL     1      -1.531  11.213  18.995  0.00  0.00    +0.000 A 
ATOM     30  C   UNL     1      -1.697  10.080  18.183  0.00  0.00    +0.000 A 
ATOM     31  C   UNL     1      -2.919   9.814  17.556  0.00  0.00    +0.000 A 
ATOM     32  C   UNL     1      -4.008  10.656  17.756  0.00  0.00    +0.000 A 
ATOM     33  C   UNL     1      -3.881  11.755  18.602  0.00  0.00    +0.000 A 
ATOM     34  C   UNL     1      -2.657  12.028  19.222  0.00  0.00    +0.000 A 
ENDBRANCH  28  29
ENDBRANCH   5  28
TORSDOF 9
ENDMDL
MODEL 8
REMARK VINA RESULT:      -7.9      0.857      1.052
REMARK  Name = 
REMARK  10 active torsions:
REMARK  status: ('A' for Active; 'I' for Inactive)
REMARK    1  A    between atoms: C_1  and  C_2
REMARK    2  A    between atoms: C_6  and  C_7
REMARK    3  A    between atoms: C_10  and  S_11
REMARK    4  A    between atoms: S_11  and  C_12
REMARK    5  A    between atoms: C_12  and  C_13
REMARK    6  A    between atoms: N_15  and  C_16
REMARK    7  A    between atoms: C_21  and  C_22
REMARK    8  A    between atoms: C_22  and  O_24
REMARK    9  A    between atoms: N_25  and  C_26
REMARK   10  A    between atoms: C_26  and  C_27
REMARK                            x       y       z     vdW  Elec       q    Type
REMARK                         _______ _______ _______ _____ _____    ______ ____
ROOT
ATOM      1  C   UNL     1       4.281   6.632  17.307  0.00  0.00    +0.000 A 
ATOM      2  N   UNL     1       3.893   7.735  16.690  0.00  0.00    +0.000 NA
ATOM      3  N   UNL     1       2.906   8.341  17.423  0.00  0.00    +0.000 NA
ATOM      4  C   UNL     1       2.719   7.618  18.499  0.00  0.00    +0.000 A 
ATOM      5  N   UNL     1       3.606   6.562  18.516  0.00  0.00    +0.000 N 
ENDROOT
BRANCH   1  11
ATOM      6  C   UNL     1       7.542   6.849  17.403  0.00  0.00    +0.000 C 
ATOM      7  C   UNL     1       6.648   5.869  16.743  0.00  0.00    +0.000 A 
ATOM      8  O   UNL     1       7.286   4.891  16.039  0.00  0.00    +0.000 OA
ATOM      9  C   UNL     1       6.331   4.086  15.523  0.00  0.00    +0.000 A 
ATOM     10  C   UNL     1       5.078   4.530  15.887  0.00  0.00    +0.000 A 
ATOM     11  C   UNL     1       5.272   5.698  16.674  0.00  0.00    +0.000 A 
ENDBRANCH   1  11
BRANCH   4  12
ATOM     12  S   UNL     1       1.588   8.009  19.759  0.00  0.00    +0.000 S 
BRANCH  12  13
ATOM     13  C   UNL     1       1.093   9.722  19.307  0.00  0.00    +0.000 C 
BRANCH  13  14
ATOM     14  C   UNL     1      -0.104  10.195  20.132  0.00  0.00    +0.000 C 
ATOM     15  O   UNL     1      -0.556   9.521  21.053  0.00  0.00    +0.000 OA
ATOM     16  N   UNL     1      -0.596  11.459  19.786  0.00  0.00    +0.000 N 
ATOM     17  H   UNL     1      -0.029  12.073  19.197  0.00  0.00    +0.000 HD
BRANCH  16  18
ATOM     18  C   UNL     1      -1.794  12.031  20.334  0.00  0.00    +0.000 A 
ATOM     19  C   UNL     1      -1.807  12.516  21.653  0.00  0.00    +0.000 A 
ATOM     20  C   UNL     1      -2.940  13.117  22.211  0.00  0.00    +0.000 A 
ATOM     21  C   UNL     1      -4.108  13.221  21.472  0.00  0.00    +0.000 A 
ATOM     22  C   UNL     1      -4.148  12.705  20.178  0.00  0.00    +0.000 A 
ATOM     23  C   UNL     1      -2.998  12.119  19.602  0.00  0.00    +0.000 A 
BRANCH  23  24
ATOM     24  C   UNL     1      -3.093  11.599  18.218  0.00  0.00    +0.000 C 
ATOM     25  O   UNL     1      -3.902  10.739  17.893  0.00  0.00    +0.000 OA
BRANCH  24  26
ATOM     26  O   UNL     1      -2.182  12.113  17.369  0.00  0.00    +0.000 OA
ATOM     27  H   UNL     1      -1.850  13.005  17.594  0.00  0.00    +0.000 HD
ENDBRANCH  24  26
ENDBRANCH  23  24
ENDBRANCH  16  18
ENDBRANCH  13  14
ENDBRANCH  12  13
ENDBRANCH   4  12
BRANCH   5  28
ATOM     28  C   UNL     1       3.773   5.593  19.588  0.00  0.00    +0.000 C 
BRANCH  28  29
ATOM     29  C   UNL     1       2.945   4.331  19.421  0.00  0.00    +0.000 A 
ATOM     30  C   UNL     1       3.474   3.137  18.904  0.00  0.00    +0.000 A 
ATOM     31  C   UNL     1       2.681   1.993  18.772  0.00  0.00    +0.000 A 
ATOM     32  C   UNL     1       1.352   2.009  19.184  0.00  0.00    +0.000 A 
ATOM     33  C   UNL     1       0.822   3.166  19.751  0.00  0.00    +0.000 A 
ATOM     34  C   UNL     1       1.612   4.314  19.876  0.00  0.00    +0.000 A 
ENDBRANCH  28  29
ENDBRANCH   5  28
TORSDOF 9
ENDMDL
MODEL 9
REMARK VINA RESULT:      -7.9      0.586      1.032
REMARK  Name = 
REMARK  10 active torsions:
REMARK  status: ('A' for Active; 'I' for Inactive)
REMARK    1  A    between atoms: C_1  and  C_2
REMARK    2  A    between atoms: C_6  and  C_7
REMARK    3  A    between atoms: C_10  and  S_11
REMARK    4  A    between atoms: S_11  and  C_12
REMARK    5  A    between atoms: C_12  and  C_13
REMARK    6  A    between atoms: N_15  and  C_16
REMARK    7  A    between atoms: C_21  and  C_22
REMARK    8  A    between atoms: C_22  and  O_24
REMARK    9  A    between atoms: N_25  and  C_26
REMARK   10  A    between atoms: C_26  and  C_27
REMARK                            x       y       z     vdW  Elec       q    Type
REMARK                         _______ _______ _______ _____ _____    ______ ____
ROOT
ATOM      1  C   UNL     1       4.483   6.536  17.115  0.00  0.00    +0.000 A 
ATOM      2  N   UNL     1       4.125   7.631  16.467  0.00  0.00    +0.000 NA
ATOM      3  N   UNL     1       3.134   8.268  17.169  0.00  0.00    +0.000 NA
ATOM      4  C   UNL     1       2.915   7.571  18.255  0.00  0.00    +0.000 A 
ATOM      5  N   UNL     1       3.785   6.502  18.312  0.00  0.00    +0.000 N 
ENDROOT
BRANCH   1  11
ATOM      6  C   UNL     1       7.519   5.920  18.163  0.00  0.00    +0.000 C 
ATOM      7  C   UNL     1       6.755   5.382  17.013  0.00  0.00    +0.000 A 
ATOM      8  O   UNL     1       7.432   4.481  16.244  0.00  0.00    +0.000 OA
ATOM      9  C   UNL     1       6.590   4.086  15.263  0.00  0.00    +0.000 A 
ATOM     10  C   UNL     1       5.372   4.718  15.389  0.00  0.00    +0.000 A 
ATOM     11  C   UNL     1       5.472   5.573  16.520  0.00  0.00    +0.000 A 
ENDBRANCH   1  11
BRANCH   4  12
ATOM     12  S   UNL     1       1.768   8.006  19.485  0.00  0.00    +0.000 S 
BRANCH  12  13
ATOM     13  C   UNL     1       1.158   9.631  18.878  0.00  0.00    +0.000 C 
BRANCH  13  14
ATOM     14  C   UNL     1      -0.052  10.111  19.681  0.00  0.00    +0.000 C 
ATOM     15  O   UNL     1      -0.466   9.487  20.653  0.00  0.00    +0.000 OA
ATOM     16  N   UNL     1      -0.602  11.325  19.250  0.00  0.00    +0.000 N 
ATOM     17  H   UNL     1      -0.067  11.918  18.612  0.00  0.00    +0.000 HD
BRANCH  16  18
ATOM     18  C   UNL     1      -1.818  11.883  19.770  0.00  0.00    +0.000 A 
ATOM     19  C   UNL     1      -1.821  12.538  21.014  0.00  0.00    +0.000 A 
ATOM     20  C   UNL     1      -2.976  13.130  21.537  0.00  0.00    +0.000 A 
ATOM     21  C   UNL     1      -4.172  13.057  20.842  0.00  0.00    +0.000 A 
ATOM     22  C   UNL     1      -4.218  12.372  19.628  0.00  0.00    +0.000 A 
ATOM     23  C   UNL     1      -3.049  11.793  19.084  0.00  0.00    +0.000 A 
BRANCH  23  24
ATOM     24  C   UNL     1      -3.153  11.089  17.785  0.00  0.00    +0.000 C 
ATOM     25  O   UNL     1      -2.837   9.914  17.648  0.00  0.00    +0.000 OA
BRANCH  24  26
ATOM     26  O   UNL     1      -3.571  11.865  16.766  0.00  0.00    +0.000 OA
ATOM     27  H   UNL     1      -3.822  11.391  15.949  0.00  0.00    +0.000 HD
ENDBRANCH  24  26
ENDBRANCH  23  24
ENDBRANCH  16  18
ENDBRANCH  13  14
ENDBRANCH  12  13
ENDBRANCH   4  12
BRANCH   5  28
ATOM     28  C   UNL     1       3.917   5.553  19.407  0.00  0.00    +0.000 C 
BRANCH  28  29
ATOM     29  C   UNL     1       3.108   4.280  19.229  0.00  0.00    +0.000 A 
ATOM     30  C   UNL     1       1.709   4.246  19.348  0.00  0.00    +0.000 A 
ATOM     31  C   UNL     1       0.998   3.055  19.171  0.00  0.00    +0.000 A 
ATOM     32  C   UNL     1       1.667   1.881  18.839  0.00  0.00    +0.000 A 
ATOM     33  C   UNL     1       3.048   1.904  18.662  0.00  0.00    +0.000 A 
ATOM     34  C   UNL     1       3.762   3.093  18.847  0.00  0.00    +0.000 A 
ENDBRANCH  28  29
ENDBRANCH   5  28
TORSDOF 9
ENDMDL
