MODEL 1
REMARK VINA RESULT:      -8.6      0.000      0.000
REMARK  Name = 
REMARK  5 active torsions:
REMARK  status: ('A' for Active; 'I' for Inactive)
REMARK    1  A    between atoms: C_1  and  C_2
REMARK    2  A    between atoms: C_6  and  C_7
REMARK    3  A    between atoms: C_7  and  N_8
REMARK    4  A    between atoms: C_12  and  C_13
REMARK    5  A    between atoms: C_12  and  C_14
REMARK                            x       y       z     vdW  Elec       q    Type
REMARK                         _______ _______ _______ _____ _____    ______ ____
ROOT
ATOM      1  N   UNL     1       1.239   8.765  19.612  0.00  0.00    +0.000 N 
ATOM      2  C   UNL     1       0.343   9.167  20.556  0.00  0.00    +0.000 C 
ATOM      3  O   UNL     1       0.391   8.973  21.759  0.00  0.00    +0.000 OA
ATOM      4  N   UNL     1      -0.640   9.912  19.945  0.00  0.00    +0.000 N 
ATOM      5  C   UNL     1      -0.216  10.348  18.631  0.00  0.00    +0.000 C 
ATOM      6  C   UNL     1      -1.358  10.245  17.627  0.00  0.00    +0.000 C 
ATOM      7  C   UNL     1       0.906   9.304  18.398  0.00  0.00    +0.000 C 
ATOM      8  O   UNL     1       1.481   9.103  17.335  0.00  0.00    +0.000 OA
ATOM      9  H   UNL     1      -1.303  10.417  20.520  0.00  0.00    +0.000 HD
ENDROOT
BRANCH   5  10
ATOM     10  C   UNL     1       0.424  11.745  18.657  0.00  0.00    +0.000 A 
ATOM     11  C   UNL     1       1.832  11.873  18.554  0.00  0.00    +0.000 A 
ATOM     12  C   UNL     1       2.465  13.119  18.610  0.00  0.00    +0.000 A 
ATOM     13  C   UNL     1       1.681  14.245  18.763  0.00  0.00    +0.000 A 
ATOM     14  C   UNL     1       0.296  14.140  18.901  0.00  0.00    +0.000 A 
ATOM     15  C   UNL     1      -0.341  12.912  18.858  0.00  0.00    +0.000 A 
ATOM     16  C   UNL     1      -0.318  15.484  19.138  0.00  0.00    +0.000 C 
ATOM     17  C   UNL     1       0.787  16.402  18.600  0.00  0.00    +0.000 C 
ATOM     18  C   UNL     1       2.116  15.674  18.854  0.00  0.00    +0.000 C 
ENDBRANCH   5  10
BRANCH   1  19
ATOM     19  C   UNL     1       2.500   8.127  19.909  0.00  0.00    +0.000 C 
BRANCH  19  25
ATOM     20  C   UNL     1       5.426   4.275  15.169  0.00  0.00    +0.000 C 
ATOM     21  C   UNL     1       4.710   4.902  16.326  0.00  0.00    +0.000 A 
ATOM     22  C   UNL     1       4.905   6.247  16.652  0.00  0.00    +0.000 A 
ATOM     23  C   UNL     1       4.201   6.839  17.711  0.00  0.00    +0.000 A 
ATOM     24  C   UNL     1       3.289   6.101  18.474  0.00  0.00    +0.000 A 
ATOM     25  C   UNL     1       2.466   6.661  19.557  0.00  0.00    +0.000 A 
ATOM     26  C   UNL     1       1.708   5.814  20.273  0.00  0.00    +0.000 A 
ATOM     27  C   UNL     1       1.625   4.370  20.015  0.00  0.00    +0.000 A 
ATOM     28  O   UNL     1       0.956   3.640  20.737  0.00  0.00    +0.000 OA
ATOM     29  O   UNL     1       2.325   3.895  18.924  0.00  0.00    +0.000 OA
ATOM     30  C   UNL     1       3.158   4.744  18.171  0.00  0.00    +0.000 A 
ATOM     31  C   UNL     1       3.846   4.141  17.116  0.00  0.00    +0.000 A 
ENDBRANCH  19  25
ENDBRANCH   1  19
TORSDOF 3
ENDMDL
MODEL 2
REMARK VINA RESULT:      -8.6      0.414      1.301
REMARK  Name = 
REMARK  5 active torsions:
REMARK  status: ('A' for Active; 'I' for Inactive)
REMARK    1  A    between atoms: C_1  and  C_2
REMARK    2  A    between atoms: C_6  and  C_7
REMARK    3  A    between atoms: C_7  and  N_8
REMARK    4  A    between atoms: C_12  and  C_13
REMARK    5  A    between atoms: C_12  and  C_14
REMARK                            x       y       z     vdW  Elec       q    Type
REMARK                         _______ _______ _______ _____ _____    ______ ____
ROOT
ATOM      1  N   UNL     1       1.107   8.860  19.616  0.00  0.00    +0.000 N 
ATOM      2  C   UNL     1       0.148   9.207  20.518  0.00  0.00    +0.000 C 
ATOM      3  O   UNL     1       0.140   8.990  21.719  0.00  0.00    +0.000 OA
ATOM      4  N   UNL     1      -0.830   9.927  19.870  0.00  0.00    +0.000 N 
ATOM      5  C   UNL     1      -0.354  10.407  18.590  0.00  0.00    +0.000 C 
ATOM      6  C   UNL     1      -1.437  10.282  17.524  0.00  0.00    +0.000 C 
ATOM      7  C   UNL     1       0.818   9.412  18.397  0.00  0.00    +0.000 C 
ATOM      8  O   UNL     1       1.456   9.256  17.363  0.00  0.00    +0.000 OA
ATOM      9  H   UNL     1      -1.541  10.395  20.418  0.00  0.00    +0.000 HD
ENDROOT
BRANCH   5  10
ATOM     10  C   UNL     1       0.228  11.827  18.677  0.00  0.00    +0.000 A 
ATOM     11  C   UNL     1      -0.646  12.934  18.827  0.00  0.00    +0.000 A 
ATOM     12  C   UNL     1      -0.169  14.247  18.875  0.00  0.00    +0.000 A 
ATOM     13  C   UNL     1       1.192  14.453  18.778  0.00  0.00    +0.000 A 
ATOM     14  C   UNL     1       2.069  13.382  18.595  0.00  0.00    +0.000 A 
ATOM     15  C   UNL     1       1.607  12.078  18.536  0.00  0.00    +0.000 A 
ATOM     16  C   UNL     1       3.475  13.866  18.434  0.00  0.00    +0.000 C 
ATOM     17  C   UNL     1       3.371  15.260  19.065  0.00  0.00    +0.000 C 
ATOM     18  C   UNL     1       1.940  15.750  18.797  0.00  0.00    +0.000 C 
ENDBRANCH   5  10
BRANCH   1  19
ATOM     19  C   UNL     1       2.375   8.264  19.968  0.00  0.00    +0.000 C 
BRANCH  19  25
ATOM     20  C   UNL     1       5.395   4.460  15.249  0.00  0.00    +0.000 C 
ATOM     21  C   UNL     1       4.669   5.076  16.406  0.00  0.00    +0.000 A 
ATOM     22  C   UNL     1       4.813   6.433  16.709  0.00  0.00    +0.000 A 
ATOM     23  C   UNL     1       4.099   7.012  17.768  0.00  0.00    +0.000 A 
ATOM     24  C   UNL     1       3.228   6.250  18.554  0.00  0.00    +0.000 A 
ATOM     25  C   UNL     1       2.396   6.793  19.639  0.00  0.00    +0.000 A 
ATOM     26  C   UNL     1       1.682   5.926  20.378  0.00  0.00    +0.000 A 
ATOM     27  C   UNL     1       1.655   4.476  20.143  0.00  0.00    +0.000 A 
ATOM     28  O   UNL     1       1.025   3.732  20.885  0.00  0.00    +0.000 OA
ATOM     29  O   UNL     1       2.360   4.013  19.050  0.00  0.00    +0.000 OA
ATOM     30  C   UNL     1       3.148   4.884  18.273  0.00  0.00    +0.000 A 
ATOM     31  C   UNL     1       3.847   4.293  17.218  0.00  0.00    +0.000 A 
ENDBRANCH  19  25
ENDBRANCH   1  19
TORSDOF 3
ENDMDL
MODEL 3
REMARK VINA RESULT:      -8.3      4.769      8.068
REMARK  Name = 
REMARK  5 active torsions:
REMARK  status: ('A' for Active; 'I' for Inactive)
REMARK    1  A    between atoms: C_1  and  C_2
REMARK    2  A    between atoms: C_6  and  C_7
REMARK    3  A    between atoms: C_7  and  N_8
REMARK    4  A    between atoms: C_12  and  C_13
REMARK    5  A    between atoms: C_12  and  C_14
REMARK                            x       y       z     vdW  Elec       q    Type
REMARK                         _______ _______ _______ _____ _____    ______ ____
ROOT
ATOM      1  N   UNL     1      -3.044  14.050  23.510  0.00  0.00    +0.000 N 
ATOM      2  C   UNL     1      -3.664  15.168  23.038  0.00  0.00    +0.000 C 
ATOM      3  O   UNL     1      -3.149  16.224  22.712  0.00  0.00    +0.000 OA
ATOM      4  N   UNL     1      -5.010  14.909  22.913  0.00  0.00    +0.000 N 
ATOM      5  C   UNL     1      -5.266  13.484  22.938  0.00  0.00    +0.000 C 
ATOM      6  C   UNL     1      -6.514  13.168  23.756  0.00  0.00    +0.000 C 
ATOM      7  C   UNL     1      -3.951  13.030  23.621  0.00  0.00    +0.000 C 
ATOM      8  O   UNL     1      -3.726  11.907  24.057  0.00  0.00    +0.000 OA
ATOM      9  H   UNL     1      -5.598  15.579  22.433  0.00  0.00    +0.000 HD
ENDROOT
BRANCH   5  10
ATOM     10  C   UNL     1      -5.313  12.874  21.528  0.00  0.00    +0.000 A 
ATOM     11  C   UNL     1      -6.555  12.454  20.988  0.00  0.00    +0.000 A 
ATOM     12  C   UNL     1      -6.646  11.861  19.725  0.00  0.00    +0.000 A 
ATOM     13  C   UNL     1      -5.487  11.692  18.996  0.00  0.00    +0.000 A 
ATOM     14  C   UNL     1      -4.249  12.066  19.522  0.00  0.00    +0.000 A 
ATOM     15  C   UNL     1      -4.145  12.646  20.775  0.00  0.00    +0.000 A 
ATOM     16  C   UNL     1      -3.141  11.706  18.582  0.00  0.00    +0.000 C 
ATOM     17  C   UNL     1      -3.916  11.575  17.265  0.00  0.00    +0.000 C 
ATOM     18  C   UNL     1      -5.324  11.085  17.638  0.00  0.00    +0.000 C 
ENDBRANCH   5  10
BRANCH   1  19
ATOM     19  C   UNL     1      -1.611  13.888  23.587  0.00  0.00    +0.000 C 
BRANCH  19  25
ATOM     20  C   UNL     1       0.756   7.972  21.291  0.00  0.00    +0.000 C 
ATOM     21  C   UNL     1       0.239   9.355  21.551  0.00  0.00    +0.000 A 
ATOM     22  C   UNL     1      -0.387   9.676  22.759  0.00  0.00    +0.000 A 
ATOM     23  C   UNL     1      -0.832  10.982  23.012  0.00  0.00    +0.000 A 
ATOM     24  C   UNL     1      -0.667  11.997  22.063  0.00  0.00    +0.000 A 
ATOM     25  C   UNL     1      -1.047  13.403  22.276  0.00  0.00    +0.000 A 
ATOM     26  C   UNL     1      -0.925  14.250  21.240  0.00  0.00    +0.000 A 
ATOM     27  C   UNL     1      -0.403  13.865  19.922  0.00  0.00    +0.000 A 
ATOM     28  O   UNL     1      -0.366  14.672  19.000  0.00  0.00    +0.000 OA
ATOM     29  O   UNL     1       0.046  12.566  19.790  0.00  0.00    +0.000 OA
ATOM     30  C   UNL     1      -0.097  11.639  20.840  0.00  0.00    +0.000 A 
ATOM     31  C   UNL     1       0.358  10.345  20.575  0.00  0.00    +0.000 A 
ENDBRANCH  19  25
ENDBRANCH   1  19
TORSDOF 3
ENDMDL
MODEL 4
REMARK VINA RESULT:      -8.3      1.123      1.139
REMARK  Name = 
REMARK  5 active torsions:
REMARK  status: ('A' for Active; 'I' for Inactive)
REMARK    1  A    between atoms: C_1  and  C_2
REMARK    2  A    between atoms: C_6  and  C_7
REMARK    3  A    between atoms: C_7  and  N_8
REMARK    4  A    between atoms: C_12  and  C_13
REMARK    5  A    between atoms: C_12  and  C_14
REMARK                            x       y       z     vdW  Elec       q    Type
REMARK                         _______ _______ _______ _____ _____    ______ ____
ROOT
ATOM      1  N   UNL     1       1.623   8.381  19.660  0.00  0.00    +0.000 N 
ATOM      2  C   UNL     1       0.760   8.744  20.650  0.00  0.00    +0.000 C 
ATOM      3  O   UNL     1       0.782   8.401  21.821  0.00  0.00    +0.000 OA
ATOM      4  N   UNL     1      -0.146   9.646  20.140  0.00  0.00    +0.000 N 
ATOM      5  C   UNL     1       0.326  10.199  18.888  0.00  0.00    +0.000 C 
ATOM      6  C   UNL     1      -0.815  10.324  17.883  0.00  0.00    +0.000 C 
ATOM      7  C   UNL     1       1.348   9.094  18.523  0.00  0.00    +0.000 C 
ATOM      8  O   UNL     1       1.911   8.973  17.441  0.00  0.00    +0.000 OA
ATOM      9  H   UNL     1      -0.764  10.135  20.775  0.00  0.00    +0.000 HD
ENDROOT
BRANCH   5  10
ATOM     10  C   UNL     1       1.090  11.518  19.083  0.00  0.00    +0.000 A 
ATOM     11  C   UNL     1       2.066  11.909  18.131  0.00  0.00    +0.000 A 
ATOM     12  C   UNL     1       2.813  13.081  18.282  0.00  0.00    +0.000 A 
ATOM     13  C   UNL     1       2.577  13.870  19.390  0.00  0.00    +0.000 A 
ATOM     14  C   UNL     1       1.646  13.487  20.357  0.00  0.00    +0.000 A 
ATOM     15  C   UNL     1       0.907  12.324  20.224  0.00  0.00    +0.000 A 
ATOM     16  C   UNL     1       1.633  14.457  21.497  0.00  0.00    +0.000 C 
ATOM     17  C   UNL     1       2.262  15.687  20.831  0.00  0.00    +0.000 C 
ATOM     18  C   UNL     1       3.243  15.154  19.775  0.00  0.00    +0.000 C 
ENDBRANCH   5  10
BRANCH   1  19
ATOM     19  C   UNL     1       2.818   7.599  19.871  0.00  0.00    +0.000 C 
BRANCH  19  25
ATOM     20  C   UNL     1       5.773   4.149  14.848  0.00  0.00    +0.000 C 
ATOM     21  C   UNL     1       5.018   4.683  16.027  0.00  0.00    +0.000 A 
ATOM     22  C   UNL     1       5.316   5.938  16.566  0.00  0.00    +0.000 A 
ATOM     23  C   UNL     1       4.580   6.450  17.644  0.00  0.00    +0.000 A 
ATOM     24  C   UNL     1       3.530   5.720  18.213  0.00  0.00    +0.000 A 
ATOM     25  C   UNL     1       2.669   6.211  19.301  0.00  0.00    +0.000 A 
ATOM     26  C   UNL     1       1.766   5.362  19.819  0.00  0.00    +0.000 A 
ATOM     27  C   UNL     1       1.562   3.988  19.341  0.00  0.00    +0.000 A 
ATOM     28  O   UNL     1       0.758   3.244  19.890  0.00  0.00    +0.000 OA
ATOM     29  O   UNL     1       2.310   3.596  18.248  0.00  0.00    +0.000 OA
ATOM     30  C   UNL     1       3.292   4.444  17.700  0.00  0.00    +0.000 A 
ATOM     31  C   UNL     1       4.012   3.921  16.623  0.00  0.00    +0.000 A 
ENDBRANCH  19  25
ENDBRANCH   1  19
TORSDOF 3
ENDMDL
MODEL 5
REMARK VINA RESULT:      -8.1      5.180      8.208
REMARK  Name = 
REMARK  5 active torsions:
REMARK  status: ('A' for Active; 'I' for Inactive)
REMARK    1  A    between atoms: C_1  and  C_2
REMARK    2  A    between atoms: C_6  and  C_7
REMARK    3  A    between atoms: C_7  and  N_8
REMARK    4  A    between atoms: C_12  and  C_13
REMARK    5  A    between atoms: C_12  and  C_14
REMARK                            x       y       z     vdW  Elec       q    Type
REMARK                         _______ _______ _______ _____ _____    ______ ____
ROOT
ATOM      1  N   UNL     1      -4.016  14.439  22.137  0.00  0.00    +0.000 N 
ATOM      2  C   UNL     1      -4.567  15.445  21.403  0.00  0.00    +0.000 C 
ATOM      3  O   UNL     1      -4.092  16.543  21.167  0.00  0.00    +0.000 OA
ATOM      4  N   UNL     1      -5.765  15.009  20.883  0.00  0.00    +0.000 N 
ATOM      5  C   UNL     1      -5.860  13.566  20.946  0.00  0.00    +0.000 C 
ATOM      6  C   UNL     1      -7.263  13.128  21.353  0.00  0.00    +0.000 C 
ATOM      7  C   UNL     1      -4.795  13.316  22.042  0.00  0.00    +0.000 C 
ATOM      8  O   UNL     1      -4.602  12.253  22.620  0.00  0.00    +0.000 OA
ATOM      9  H   UNL     1      -6.235  15.575  20.188  0.00  0.00    +0.000 HD
ENDROOT
BRANCH   5  10
ATOM     10  C   UNL     1      -5.384  12.892  19.649  0.00  0.00    +0.000 A 
ATOM     11  C   UNL     1      -6.263  12.812  18.538  0.00  0.00    +0.000 A 
ATOM     12  C   UNL     1      -5.890  12.178  17.349  0.00  0.00    +0.000 A 
ATOM     13  C   UNL     1      -4.629  11.626  17.269  0.00  0.00    +0.000 A 
ATOM     14  C   UNL     1      -3.760  11.661  18.361  0.00  0.00    +0.000 A 
ATOM     15  C   UNL     1      -4.121  12.278  19.547  0.00  0.00    +0.000 A 
ATOM     16  C   UNL     1      -2.492  10.926  18.058  0.00  0.00    +0.000 C 
ATOM     17  C   UNL     1      -2.522  10.927  16.525  0.00  0.00    +0.000 C 
ATOM     18  C   UNL     1      -4.004  10.897  16.120  0.00  0.00    +0.000 C 
ENDBRANCH   5  10
BRANCH   1  19
ATOM     19  C   UNL     1      -2.676  14.466  22.674  0.00  0.00    +0.000 C 
BRANCH  19  25
ATOM     20  C   UNL     1       1.033   8.829  22.095  0.00  0.00    +0.000 C 
ATOM     21  C   UNL     1       0.286  10.123  21.979  0.00  0.00    +0.000 A 
ATOM     22  C   UNL     1      -0.718  10.461  22.891  0.00  0.00    +0.000 A 
ATOM     23  C   UNL     1      -1.386  11.691  22.802  0.00  0.00    +0.000 A 
ATOM     24  C   UNL     1      -1.070  12.612  21.797  0.00  0.00    +0.000 A 
ATOM     25  C   UNL     1      -1.676  13.947  21.672  0.00  0.00    +0.000 A 
ATOM     26  C   UNL     1      -1.353  14.687  20.597  0.00  0.00    +0.000 A 
ATOM     27  C   UNL     1      -0.404  14.257  19.561  0.00  0.00    +0.000 A 
ATOM     28  O   UNL     1      -0.190  14.954  18.577  0.00  0.00    +0.000 OA
ATOM     29  O   UNL     1       0.228  13.047  19.765  0.00  0.00    +0.000 OA
ATOM     30  C   UNL     1      -0.109  12.227  20.860  0.00  0.00    +0.000 A 
ATOM     31  C   UNL     1       0.569  11.008  20.938  0.00  0.00    +0.000 A 
ENDBRANCH  19  25
ENDBRANCH   1  19
TORSDOF 3
ENDMDL
MODEL 6
REMARK VINA RESULT:      -8.0      3.685      8.099
REMARK  Name = 
REMARK  5 active torsions:
REMARK  status: ('A' for Active; 'I' for Inactive)
REMARK    1  A    between atoms: C_1  and  C_2
REMARK    2  A    between atoms: C_6  and  C_7
REMARK    3  A    between atoms: C_7  and  N_8
REMARK    4  A    between atoms: C_12  and  C_13
REMARK    5  A    between atoms: C_12  and  C_14
REMARK                            x       y       z     vdW  Elec       q    Type
REMARK                         _______ _______ _______ _____ _____    ______ ____
ROOT
ATOM      1  N   UNL     1       1.291  11.939  20.705  0.00  0.00    +0.000 N 
ATOM      2  C   UNL     1       0.687  10.949  21.419  0.00  0.00    +0.000 C 
ATOM      3  O   UNL     1       0.289  10.998  22.571  0.00  0.00    +0.000 OA
ATOM      4  N   UNL     1       0.522   9.852  20.605  0.00  0.00    +0.000 N 
ATOM      5  C   UNL     1       0.667  10.218  19.211  0.00  0.00    +0.000 C 
ATOM      6  C   UNL     1       1.449   9.155  18.447  0.00  0.00    +0.000 C 
ATOM      7  C   UNL     1       1.452  11.539  19.405  0.00  0.00    +0.000 C 
ATOM      8  O   UNL     1       2.002  12.178  18.515  0.00  0.00    +0.000 OA
ATOM      9  H   UNL     1      -0.047   9.080  20.928  0.00  0.00    +0.000 HD
ENDROOT
BRANCH   5  10
ATOM     10  C   UNL     1      -0.680  10.549  18.550  0.00  0.00    +0.000 A 
ATOM     11  C   UNL     1      -1.595  11.404  19.216  0.00  0.00    +0.000 A 
ATOM     12  C   UNL     1      -2.848  11.707  18.674  0.00  0.00    +0.000 A 
ATOM     13  C   UNL     1      -3.184  11.155  17.455  0.00  0.00    +0.000 A 
ATOM     14  C   UNL     1      -2.314  10.284  16.798  0.00  0.00    +0.000 A 
ATOM     15  C   UNL     1      -1.075   9.968  17.329  0.00  0.00    +0.000 A 
ATOM     16  C   UNL     1      -2.936   9.755  15.544  0.00  0.00    +0.000 C 
ATOM     17  C   UNL     1      -4.019  10.812  15.295  0.00  0.00    +0.000 C 
ATOM     18  C   UNL     1      -4.453  11.321  16.678  0.00  0.00    +0.000 C 
ENDBRANCH   5  10
BRANCH   1  19
ATOM     19  C   UNL     1       1.453  13.296  21.173  0.00  0.00    +0.000 C 
BRANCH  19  25
ATOM     20  C   UNL     1       0.696  18.554  16.972  0.00  0.00    +0.000 C 
ATOM     21  C   UNL     1       0.604  17.385  17.905  0.00  0.00    +0.000 A 
ATOM     22  C   UNL     1       1.709  16.561  18.140  0.00  0.00    +0.000 A 
ATOM     23  C   UNL     1       1.628  15.493  19.046  0.00  0.00    +0.000 A 
ATOM     24  C   UNL     1       0.442  15.219  19.736  0.00  0.00    +0.000 A 
ATOM     25  C   UNL     1       0.294  14.161  20.748  0.00  0.00    +0.000 A 
ATOM     26  C   UNL     1      -0.932  13.944  21.255  0.00  0.00    +0.000 A 
ATOM     27  C   UNL     1      -2.122  14.724  20.888  0.00  0.00    +0.000 A 
ATOM     28  O   UNL     1      -3.223  14.443  21.347  0.00  0.00    +0.000 OA
ATOM     29  O   UNL     1      -1.926  15.778  20.019  0.00  0.00    +0.000 OA
ATOM     30  C   UNL     1      -0.665  16.016  19.438  0.00  0.00    +0.000 A 
ATOM     31  C   UNL     1      -0.600  17.087  18.544  0.00  0.00    +0.000 A 
ENDBRANCH  19  25
ENDBRANCH   1  19
TORSDOF 3
ENDMDL
MODEL 7
REMARK VINA RESULT:      -7.9      3.719      8.247
REMARK  Name = 
REMARK  5 active torsions:
REMARK  status: ('A' for Active; 'I' for Inactive)
REMARK    1  A    between atoms: C_1  and  C_2
REMARK    2  A    between atoms: C_6  and  C_7
REMARK    3  A    between atoms: C_7  and  N_8
REMARK    4  A    between atoms: C_12  and  C_13
REMARK    5  A    between atoms: C_12  and  C_14
REMARK                            x       y       z     vdW  Elec       q    Type
REMARK                         _______ _______ _______ _____ _____    ______ ____
ROOT
ATOM      1  N   UNL     1       1.204  11.674  20.575  0.00  0.00    +0.000 N 
ATOM      2  C   UNL     1       0.788  10.522  21.171  0.00  0.00    +0.000 C 
ATOM      3  O   UNL     1       0.545  10.340  22.353  0.00  0.00    +0.000 OA
ATOM      4  N   UNL     1       0.609   9.561  20.202  0.00  0.00    +0.000 N 
ATOM      5  C   UNL     1       0.535  10.162  18.887  0.00  0.00    +0.000 C 
ATOM      6  C   UNL     1       1.295   9.328  17.862  0.00  0.00    +0.000 C 
ATOM      7  C   UNL     1       1.223  11.511  19.215  0.00  0.00    +0.000 C 
ATOM      8  O   UNL     1       1.592  12.341  18.393  0.00  0.00    +0.000 OA
ATOM      9  H   UNL     1       0.157   8.690  20.450  0.00  0.00    +0.000 HD
ENDROOT
BRANCH   5  10
ATOM     10  C   UNL     1      -0.912  10.451  18.457  0.00  0.00    +0.000 A 
ATOM     11  C   UNL     1      -1.394   9.936  17.227  0.00  0.00    +0.000 A 
ATOM     12  C   UNL     1      -2.691  10.200  16.775  0.00  0.00    +0.000 A 
ATOM     13  C   UNL     1      -3.512  10.981  17.563  0.00  0.00    +0.000 A 
ATOM     14  C   UNL     1      -3.048  11.528  18.760  0.00  0.00    +0.000 A 
ATOM     15  C   UNL     1      -1.763  11.281  19.214  0.00  0.00    +0.000 A 
ATOM     16  C   UNL     1      -4.090  12.401  19.386  0.00  0.00    +0.000 C 
ATOM     17  C   UNL     1      -5.355  11.874  18.697  0.00  0.00    +0.000 C 
ATOM     18  C   UNL     1      -4.923  11.406  17.299  0.00  0.00    +0.000 C 
ENDBRANCH   5  10
BRANCH   1  19
ATOM     19  C   UNL     1       1.311  12.946  21.251  0.00  0.00    +0.000 C 
BRANCH  19  25
ATOM     20  C   UNL     1      -4.942  13.346  23.824  0.00  0.00    +0.000 C 
ATOM     21  C   UNL     1      -3.616  13.482  23.138  0.00  0.00    +0.000 A 
ATOM     22  C   UNL     1      -2.513  12.724  23.542  0.00  0.00    +0.000 A 
ATOM     23  C   UNL     1      -1.287  12.825  22.871  0.00  0.00    +0.000 A 
ATOM     24  C   UNL     1      -1.129  13.690  21.782  0.00  0.00    +0.000 A 
ATOM     25  C   UNL     1       0.103  13.808  20.985  0.00  0.00    +0.000 A 
ATOM     26  C   UNL     1       0.146  14.753  20.031  0.00  0.00    +0.000 A 
ATOM     27  C   UNL     1      -0.974  15.650  19.713  0.00  0.00    +0.000 A 
ATOM     28  O   UNL     1      -0.855  16.528  18.867  0.00  0.00    +0.000 OA
ATOM     29  O   UNL     1      -2.150  15.440  20.405  0.00  0.00    +0.000 OA
ATOM     30  C   UNL     1      -2.225  14.483  21.436  0.00  0.00    +0.000 A 
ATOM     31  C   UNL     1      -3.455  14.390  22.090  0.00  0.00    +0.000 A 
ENDBRANCH  19  25
ENDBRANCH   1  19
TORSDOF 3
ENDMDL
MODEL 8
REMARK VINA RESULT:      -7.9      3.224      8.009
REMARK  Name = 
REMARK  5 active torsions:
REMARK  status: ('A' for Active; 'I' for Inactive)
REMARK    1  A    between atoms: C_1  and  C_2
REMARK    2  A    between atoms: C_6  and  C_7
REMARK    3  A    between atoms: C_7  and  N_8
REMARK    4  A    between atoms: C_12  and  C_13
REMARK    5  A    between atoms: C_12  and  C_14
REMARK                            x       y       z     vdW  Elec       q    Type
REMARK                         _______ _______ _______ _____ _____    ______ ____
ROOT
ATOM      1  N   UNL     1       1.778   3.786  19.684  0.00  0.00    +0.000 N 
ATOM      2  C   UNL     1       1.371   3.360  18.456  0.00  0.00    +0.000 C 
ATOM      3  O   UNL     1       0.385   3.718  17.832  0.00  0.00    +0.000 OA
ATOM      4  N   UNL     1       2.302   2.475  17.962  0.00  0.00    +0.000 N 
ATOM      5  C   UNL     1       3.550   2.580  18.688  0.00  0.00    +0.000 C 
ATOM      6  C   UNL     1       4.155   1.202  18.937  0.00  0.00    +0.000 C 
ATOM      7  C   UNL     1       3.008   3.256  19.973  0.00  0.00    +0.000 C 
ATOM      8  O   UNL     1       3.632   3.406  21.016  0.00  0.00    +0.000 OA
ATOM      9  H   UNL     1       2.235   2.178  16.996  0.00  0.00    +0.000 HD
ENDROOT
BRANCH   5  10
ATOM     10  C   UNL     1       4.538   3.546  18.015  0.00  0.00    +0.000 A 
ATOM     11  C   UNL     1       4.592   3.619  16.599  0.00  0.00    +0.000 A 
ATOM     12  C   UNL     1       5.498   4.455  15.939  0.00  0.00    +0.000 A 
ATOM     13  C   UNL     1       6.351   5.227  16.700  0.00  0.00    +0.000 A 
ATOM     14  C   UNL     1       6.340   5.145  18.094  0.00  0.00    +0.000 A 
ATOM     15  C   UNL     1       5.455   4.315  18.759  0.00  0.00    +0.000 A 
ATOM     16  C   UNL     1       7.409   6.009  18.686  0.00  0.00    +0.000 C 
ATOM     17  C   UNL     1       7.670   6.976  17.525  0.00  0.00    +0.000 C 
ATOM     18  C   UNL     1       7.402   6.185  16.235  0.00  0.00    +0.000 C 
ENDBRANCH   5  10
BRANCH   1  19
ATOM     19  C   UNL     1       1.153   4.859  20.420  0.00  0.00    +0.000 C 
BRANCH  19  25
ATOM     20  C   UNL     1      -0.432  11.284  21.860  0.00  0.00    +0.000 C 
ATOM     21  C   UNL     1       0.107   9.965  21.396  0.00  0.00    +0.000 A 
ATOM     22  C   UNL     1      -0.230   8.777  22.050  0.00  0.00    +0.000 A 
ATOM     23  C   UNL     1       0.244   7.541  21.587  0.00  0.00    +0.000 A 
ATOM     24  C   UNL     1       1.072   7.462  20.461  0.00  0.00    +0.000 A 
ATOM     25  C   UNL     1       1.558   6.204  19.873  0.00  0.00    +0.000 A 
ATOM     26  C   UNL     1       2.429   6.282  18.853  0.00  0.00    +0.000 A 
ATOM     27  C   UNL     1       2.895   7.547  18.267  0.00  0.00    +0.000 A 
ATOM     28  O   UNL     1       3.731   7.554  17.371  0.00  0.00    +0.000 OA
ATOM     29  O   UNL     1       2.335   8.704  18.769  0.00  0.00    +0.000 OA
ATOM     30  C   UNL     1       1.446   8.666  19.861  0.00  0.00    +0.000 A 
ATOM     31  C   UNL     1       0.978   9.904  20.307  0.00  0.00    +0.000 A 
ENDBRANCH  19  25
ENDBRANCH   1  19
TORSDOF 3
ENDMDL
MODEL 9
REMARK VINA RESULT:      -7.9      5.092      7.585
REMARK  Name = 
REMARK  5 active torsions:
REMARK  status: ('A' for Active; 'I' for Inactive)
REMARK    1  A    between atoms: C_1  and  C_2
REMARK    2  A    between atoms: C_6  and  C_7
REMARK    3  A    between atoms: C_7  and  N_8
REMARK    4  A    between atoms: C_12  and  C_13
REMARK    5  A    between atoms: C_12  and  C_14
REMARK                            x       y       z     vdW  Elec       q    Type
REMARK                         _______ _______ _______ _____ _____    ______ ____
ROOT
ATOM      1  N   UNL     1      -3.588  14.226  21.984  0.00  0.00    +0.000 N 
ATOM      2  C   UNL     1      -3.752  15.167  21.013  0.00  0.00    +0.000 C 
ATOM      3  O   UNL     1      -3.042  16.131  20.782  0.00  0.00    +0.000 OA
ATOM      4  N   UNL     1      -4.847  14.829  20.249  0.00  0.00    +0.000 N 
ATOM      5  C   UNL     1      -5.214  13.444  20.459  0.00  0.00    +0.000 C 
ATOM      6  C   UNL     1      -6.729  13.287  20.527  0.00  0.00    +0.000 C 
ATOM      7  C   UNL     1      -4.511  13.227  21.822  0.00  0.00    +0.000 C 
ATOM      8  O   UNL     1      -4.661  12.256  22.554  0.00  0.00    +0.000 OA
ATOM      9  H   UNL     1      -5.022  15.335  19.390  0.00  0.00    +0.000 HD
ENDROOT
BRANCH   5  10
ATOM     10  C   UNL     1      -4.568  12.506  19.427  0.00  0.00    +0.000 A 
ATOM     11  C   UNL     1      -5.303  12.114  18.279  0.00  0.00    +0.000 A 
ATOM     12  C   UNL     1      -4.774  11.234  17.331  0.00  0.00    +0.000 A 
ATOM     13  C   UNL     1      -3.498  10.748  17.529  0.00  0.00    +0.000 A 
ATOM     14  C   UNL     1      -2.769  11.092  18.669  0.00  0.00    +0.000 A 
ATOM     15  C   UNL     1      -3.286  11.955  19.620  0.00  0.00    +0.000 A 
ATOM     16  C   UNL     1      -1.456  10.375  18.698  0.00  0.00    +0.000 C 
ATOM     17  C   UNL     1      -1.299  10.007  17.217  0.00  0.00    +0.000 C 
ATOM     18  C   UNL     1      -2.720   9.800  16.670  0.00  0.00    +0.000 C 
ENDBRANCH   5  10
BRANCH   1  19
ATOM     19  C   UNL     1      -2.437  14.147  22.852  0.00  0.00    +0.000 C 
BRANCH  19  25
ATOM     20  C   UNL     1       2.448  13.504  18.206  0.00  0.00    +0.000 C 
ATOM     21  C   UNL     1       1.455  13.421  19.325  0.00  0.00    +0.000 A 
ATOM     22  C   UNL     1       0.729  14.544  19.731  0.00  0.00    +0.000 A 
ATOM     23  C   UNL     1      -0.228  14.450  20.752  0.00  0.00    +0.000 A 
ATOM     24  C   UNL     1      -0.480  13.233  21.396  0.00  0.00    +0.000 A 
ATOM     25  C   UNL     1      -1.509  13.037  22.428  0.00  0.00    +0.000 A 
ATOM     26  C   UNL     1      -1.572  11.838  23.033  0.00  0.00    +0.000 A 
ATOM     27  C   UNL     1      -0.699  10.704  22.700  0.00  0.00    +0.000 A 
ATOM     28  O   UNL     1      -0.769   9.653  23.324  0.00  0.00    +0.000 OA
ATOM     29  O   UNL     1       0.181  10.888  21.652  0.00  0.00    +0.000 OA
ATOM     30  C   UNL     1       0.301  12.140  21.017  0.00  0.00    +0.000 A 
ATOM     31  C   UNL     1       1.254  12.215  19.998  0.00  0.00    +0.000 A 
ENDBRANCH  19  25
ENDBRANCH   1  19
TORSDOF 3
ENDMDL
