MODEL 1
REMARK VINA RESULT:      -9.0      0.000      0.000
REMARK  Name = 
REMARK  6 active torsions:
REMARK  status: ('A' for Active; 'I' for Inactive)
REMARK    1  A    between atoms: C_2  and  C_24
REMARK    2  A    between atoms: N_3  and  C_4
REMARK    3  A    between atoms: C_8  and  S_9
REMARK    4  A    between atoms: S_9  and  N_12
REMARK    5  A    between atoms: N_12  and  C_13
REMARK    6  A    between atoms: C_17  and  C_18
REMARK                            x       y       z     vdW  Elec       q    Type
REMARK                         _______ _______ _______ _____ _____    ______ ____
ROOT
ATOM      1  C   UNL     1       8.056   8.126  18.045  0.00  0.00    +0.000 A 
ATOM      2  C   UNL     1       8.486   7.237  19.035  0.00  0.00    +0.000 A 
ATOM      3  C   UNL     1       7.866   5.996  19.212  0.00  0.00    +0.000 A 
ATOM      4  C   UNL     1       6.800   5.625  18.398  0.00  0.00    +0.000 A 
ATOM      5  C   UNL     1       6.351   6.515  17.419  0.00  0.00    +0.000 A 
ATOM      6  C   UNL     1       6.954   7.773  17.258  0.00  0.00    +0.000 A 
ENDROOT
BRANCH   1   9
ATOM      7  O   UNL     1       9.206  10.004  19.959  0.00  0.00    +0.000 OA
ATOM      8  C   UNL     1       9.172  10.234  18.753  0.00  0.00    +0.000 C 
ATOM      9  N   UNL     1       8.676   9.371  17.794  0.00  0.00    +0.000 N 
ATOM     10  H   UNL     1       8.867   9.590  16.827  0.00  0.00    +0.000 HD
BRANCH   8  11
ATOM     11  C   UNL     1       9.742  11.482  18.256  0.00  0.00    +0.000 A 
ATOM     12  C   UNL     1      11.096  11.911  18.434  0.00  0.00    +0.000 A 
ATOM     13  C   UNL     1      11.207  13.140  17.834  0.00  0.00    +0.000 A 
ATOM     14  O   UNL     1      10.017  13.506  17.295  0.00  0.00    +0.000 OA
ATOM     15  C   UNL     1       9.135  12.505  17.557  0.00  0.00    +0.000 A 
ENDBRANCH   8  11
ENDBRANCH   1   9
BRANCH   5  16
ATOM     16  S   UNL     1       4.963   6.083  16.394  0.00  0.00    +0.000 S 
ATOM     17  O   UNL     1       5.054   6.871  15.183  0.00  0.00    +0.000 OA
ATOM     18  O   UNL     1       4.870   4.641  16.344  0.00  0.00    +0.000 OA
BRANCH  16  19
ATOM     19  N   UNL     1       3.651   6.688  17.240  0.00  0.00    +0.000 N 
ATOM     20  H   UNL     1       3.190   7.495  16.825  0.00  0.00    +0.000 HD
BRANCH  19  21
ATOM     21  C   UNL     1       2.987   5.914  18.219  0.00  0.00    +0.000 A 
ATOM     22  C   UNL     1       2.619   6.533  19.412  0.00  0.00    +0.000 A 
ATOM     23  C   UNL     1       1.930   5.817  20.387  0.00  0.00    +0.000 A 
ATOM     24  C   UNL     1       1.582   4.487  20.156  0.00  0.00    +0.000 A 
ATOM     25  C   UNL     1       1.925   3.858  18.947  0.00  0.00    +0.000 A 
ATOM     26  C   UNL     1       2.647   4.583  17.981  0.00  0.00    +0.000 A 
BRANCH  25  27
ATOM     27  C   UNL     1       1.498   2.435  18.677  0.00  0.00    +0.000 C 
ATOM     28  F   UNL     1       2.108   1.885  17.588  0.00  0.00    +0.000 F 
ATOM     29  F   UNL     1       1.783   1.602  19.716  0.00  0.00    +0.000 F 
ATOM     30  F   UNL     1       0.162   2.318  18.453  0.00  0.00    +0.000 F 
ENDBRANCH  25  27
ENDBRANCH  19  21
ENDBRANCH  16  19
ENDBRANCH   5  16
TORSDOF 6
ENDMDL
MODEL 2
REMARK VINA RESULT:      -8.9      0.915      1.227
REMARK  Name = 
REMARK  6 active torsions:
REMARK  status: ('A' for Active; 'I' for Inactive)
REMARK    1  A    between atoms: C_2  and  C_24
REMARK    2  A    between atoms: N_3  and  C_4
REMARK    3  A    between atoms: C_8  and  S_9
REMARK    4  A    between atoms: S_9  and  N_12
REMARK    5  A    between atoms: N_12  and  C_13
REMARK    6  A    between atoms: C_17  and  C_18
REMARK                            x       y       z     vdW  Elec       q    Type
REMARK                         _______ _______ _______ _____ _____    ______ ____
ROOT
ATOM      1  C   UNL     1       8.008   7.820  17.939  0.00  0.00    +0.000 A 
ATOM      2  C   UNL     1       8.350   7.135  19.110  0.00  0.00    +0.000 A 
ATOM      3  C   UNL     1       7.967   5.805  19.307  0.00  0.00    +0.000 A 
ATOM      4  C   UNL     1       7.232   5.136  18.333  0.00  0.00    +0.000 A 
ATOM      5  C   UNL     1       6.870   5.819  17.169  0.00  0.00    +0.000 A 
ATOM      6  C   UNL     1       7.229   7.163  16.981  0.00  0.00    +0.000 A 
ENDROOT
BRANCH   1   9
ATOM      7  O   UNL     1       9.300   9.729  19.728  0.00  0.00    +0.000 OA
ATOM      8  C   UNL     1       8.987  10.017  18.576  0.00  0.00    +0.000 C 
ATOM      9  N   UNL     1       8.407   9.149  17.670  0.00  0.00    +0.000 N 
ATOM     10  H   UNL     1       8.363   9.444  16.705  0.00  0.00    +0.000 HD
BRANCH   8  11
ATOM     11  C   UNL     1       9.285  11.356  18.077  0.00  0.00    +0.000 A 
ATOM     12  C   UNL     1      10.591  11.873  17.804  0.00  0.00    +0.000 A 
ATOM     13  C   UNL     1      10.427  13.165  17.375  0.00  0.00    +0.000 A 
ATOM     14  O   UNL     1       9.110  13.489  17.361  0.00  0.00    +0.000 OA
ATOM     15  C   UNL     1       8.425  12.396  17.790  0.00  0.00    +0.000 A 
ENDBRANCH   8  11
ENDBRANCH   1   9
BRANCH   5  16
ATOM     16  S   UNL     1       5.894   5.002  15.927  0.00  0.00    +0.000 S 
ATOM     17  O   UNL     1       6.268   5.558  14.643  0.00  0.00    +0.000 OA
ATOM     18  O   UNL     1       5.953   3.578  16.171  0.00  0.00    +0.000 OA
BRANCH  16  19
ATOM     19  N   UNL     1       4.340   5.547  16.230  0.00  0.00    +0.000 N 
ATOM     20  H   UNL     1       3.798   5.818  15.412  0.00  0.00    +0.000 HD
BRANCH  19  21
ATOM     21  C   UNL     1       3.692   5.276  17.456  0.00  0.00    +0.000 A 
ATOM     22  C   UNL     1       3.603   6.300  18.397  0.00  0.00    +0.000 A 
ATOM     23  C   UNL     1       2.940   6.086  19.602  0.00  0.00    +0.000 A 
ATOM     24  C   UNL     1       2.338   4.855  19.854  0.00  0.00    +0.000 A 
ATOM     25  C   UNL     1       2.398   3.821  18.904  0.00  0.00    +0.000 A 
ATOM     26  C   UNL     1       3.097   4.039  17.701  0.00  0.00    +0.000 A 
BRANCH  25  27
ATOM     27  C   UNL     1       1.698   2.507  19.156  0.00  0.00    +0.000 C 
ATOM     28  F   UNL     1       1.428   2.282  20.474  0.00  0.00    +0.000 F 
ATOM     29  F   UNL     1       0.499   2.428  18.516  0.00  0.00    +0.000 F 
ATOM     30  F   UNL     1       2.422   1.435  18.737  0.00  0.00    +0.000 F 
ENDBRANCH  25  27
ENDBRANCH  19  21
ENDBRANCH  16  19
ENDBRANCH   5  16
TORSDOF 6
ENDMDL
MODEL 3
REMARK VINA RESULT:      -8.8      1.685      2.080
REMARK  Name = 
REMARK  6 active torsions:
REMARK  status: ('A' for Active; 'I' for Inactive)
REMARK    1  A    between atoms: C_2  and  C_24
REMARK    2  A    between atoms: N_3  and  C_4
REMARK    3  A    between atoms: C_8  and  S_9
REMARK    4  A    between atoms: S_9  and  N_12
REMARK    5  A    between atoms: N_12  and  C_13
REMARK    6  A    between atoms: C_17  and  C_18
REMARK                            x       y       z     vdW  Elec       q    Type
REMARK                         _______ _______ _______ _____ _____    ______ ____
ROOT
ATOM      1  C   UNL     1       7.989   7.947  18.145  0.00  0.00    +0.000 A 
ATOM      2  C   UNL     1       8.500   7.067  19.105  0.00  0.00    +0.000 A 
ATOM      3  C   UNL     1       7.902   5.824  19.337  0.00  0.00    +0.000 A 
ATOM      4  C   UNL     1       6.779   5.442  18.611  0.00  0.00    +0.000 A 
ATOM      5  C   UNL     1       6.250   6.322  17.664  0.00  0.00    +0.000 A 
ATOM      6  C   UNL     1       6.831   7.582  17.449  0.00  0.00    +0.000 A 
ENDROOT
BRANCH   1   9
ATOM      7  O   UNL     1       9.004   9.977  19.979  0.00  0.00    +0.000 OA
ATOM      8  C   UNL     1       9.012  10.130  18.760  0.00  0.00    +0.000 C 
ATOM      9  N   UNL     1       8.580   9.194  17.840  0.00  0.00    +0.000 N 
ATOM     10  H   UNL     1       8.802   9.359  16.868  0.00  0.00    +0.000 HD
BRANCH   8  11
ATOM     11  C   UNL     1       9.562  11.363  18.207  0.00  0.00    +0.000 A 
ATOM     12  C   UNL     1       8.866  12.607  18.084  0.00  0.00    +0.000 A 
ATOM     13  C   UNL     1       9.733  13.494  17.498  0.00  0.00    +0.000 A 
ATOM     14  O   UNL     1      10.922  12.890  17.248  0.00  0.00    +0.000 OA
ATOM     15  C   UNL     1      10.812  11.603  17.672  0.00  0.00    +0.000 A 
ENDBRANCH   8  11
ENDBRANCH   1   9
BRANCH   5  16
ATOM     16  S   UNL     1       4.790   5.877  16.752  0.00  0.00    +0.000 S 
ATOM     17  O   UNL     1       3.692   6.664  17.274  0.00  0.00    +0.000 OA
ATOM     18  O   UNL     1       5.116   5.888  15.343  0.00  0.00    +0.000 OA
BRANCH  16  19
ATOM     19  N   UNL     1       4.495   4.300  17.234  0.00  0.00    +0.000 N 
ATOM     20  H   UNL     1       5.297   3.675  17.219  0.00  0.00    +0.000 HD
BRANCH  19  21
ATOM     21  C   UNL     1       3.343   3.963  17.980  0.00  0.00    +0.000 A 
ATOM     22  C   UNL     1       2.137   3.805  17.298  0.00  0.00    +0.000 A 
ATOM     23  C   UNL     1       0.986   3.436  17.989  0.00  0.00    +0.000 A 
ATOM     24  C   UNL     1       1.048   3.195  19.361  0.00  0.00    +0.000 A 
ATOM     25  C   UNL     1       2.261   3.327  20.057  0.00  0.00    +0.000 A 
ATOM     26  C   UNL     1       3.412   3.729  19.353  0.00  0.00    +0.000 A 
BRANCH  25  27
ATOM     27  C   UNL     1       2.337   3.012  21.532  0.00  0.00    +0.000 C 
ATOM     28  F   UNL     1       3.389   2.208  21.860  0.00  0.00    +0.000 F 
ATOM     29  F   UNL     1       2.477   4.131  22.294  0.00  0.00    +0.000 F 
ATOM     30  F   UNL     1       1.226   2.377  21.993  0.00  0.00    +0.000 F 
ENDBRANCH  25  27
ENDBRANCH  19  21
ENDBRANCH  16  19
ENDBRANCH   5  16
TORSDOF 6
ENDMDL
MODEL 4
REMARK VINA RESULT:      -8.8      5.161      7.585
REMARK  Name = 
REMARK  6 active torsions:
REMARK  status: ('A' for Active; 'I' for Inactive)
REMARK    1  A    between atoms: C_2  and  C_24
REMARK    2  A    between atoms: N_3  and  C_4
REMARK    3  A    between atoms: C_8  and  S_9
REMARK    4  A    between atoms: S_9  and  N_12
REMARK    5  A    between atoms: N_12  and  C_13
REMARK    6  A    between atoms: C_17  and  C_18
REMARK                            x       y       z     vdW  Elec       q    Type
REMARK                         _______ _______ _______ _____ _____    ______ ____
ROOT
ATOM      1  C   UNL     1       1.868   5.695  20.531  0.00  0.00    +0.000 A 
ATOM      2  C   UNL     1       1.226   4.452  20.548  0.00  0.00    +0.000 A 
ATOM      3  C   UNL     1       1.815   3.327  19.961  0.00  0.00    +0.000 A 
ATOM      4  C   UNL     1       3.059   3.430  19.346  0.00  0.00    +0.000 A 
ATOM      5  C   UNL     1       3.698   4.671  19.309  0.00  0.00    +0.000 A 
ATOM      6  C   UNL     1       3.096   5.808  19.872  0.00  0.00    +0.000 A 
ENDROOT
BRANCH   1   9
ATOM      7  O   UNL     1       1.599   8.383  19.428  0.00  0.00    +0.000 OA
ATOM      8  C   UNL     1       1.270   8.110  20.580  0.00  0.00    +0.000 C 
ATOM      9  N   UNL     1       1.338   6.852  21.148  0.00  0.00    +0.000 N 
ATOM     10  H   UNL     1       0.873   6.715  22.034  0.00  0.00    +0.000 HD
BRANCH   8  11
ATOM     11  C   UNL     1       0.710   9.162  21.422  0.00  0.00    +0.000 A 
ATOM     12  C   UNL     1      -0.157   8.960  22.543  0.00  0.00    +0.000 A 
ATOM     13  C   UNL     1      -0.465  10.202  23.038  0.00  0.00    +0.000 A 
ATOM     14  O   UNL     1       0.149  11.163  22.303  0.00  0.00    +0.000 OA
ATOM     15  C   UNL     1       0.852  10.531  21.326  0.00  0.00    +0.000 A 
ENDBRANCH   8  11
ENDBRANCH   1   9
BRANCH   5  16
ATOM     16  S   UNL     1       5.268   4.839  18.491  0.00  0.00    +0.000 S 
ATOM     17  O   UNL     1       5.341   6.183  17.957  0.00  0.00    +0.000 OA
ATOM     18  O   UNL     1       6.294   4.328  19.374  0.00  0.00    +0.000 OA
BRANCH  16  19
ATOM     19  N   UNL     1       5.130   3.824  17.167  0.00  0.00    +0.000 N 
ATOM     20  H   UNL     1       4.343   3.178  17.184  0.00  0.00    +0.000 HD
BRANCH  19  21
ATOM     21  C   UNL     1       5.793   4.107  15.952  0.00  0.00    +0.000 A 
ATOM     22  C   UNL     1       7.006   4.792  16.005  0.00  0.00    +0.000 A 
ATOM     23  C   UNL     1       7.711   5.058  14.834  0.00  0.00    +0.000 A 
ATOM     24  C   UNL     1       7.217   4.610  13.611  0.00  0.00    +0.000 A 
ATOM     25  C   UNL     1       6.009   3.896  13.544  0.00  0.00    +0.000 A 
ATOM     26  C   UNL     1       5.290   3.659  14.731  0.00  0.00    +0.000 A 
BRANCH  25  27
ATOM     27  C   UNL     1       5.505   3.365  12.224  0.00  0.00    +0.000 C 
ATOM     28  F   UNL     1       4.150   3.445  12.090  0.00  0.00    +0.000 F 
ATOM     29  F   UNL     1       6.020   4.043  11.161  0.00  0.00    +0.000 F 
ATOM     30  F   UNL     1       5.820   2.057  12.027  0.00  0.00    +0.000 F 
ENDBRANCH  25  27
ENDBRANCH  19  21
ENDBRANCH  16  19
ENDBRANCH   5  16
TORSDOF 6
ENDMDL
MODEL 5
REMARK VINA RESULT:      -8.6      1.518      2.107
REMARK  Name = 
REMARK  6 active torsions:
REMARK  status: ('A' for Active; 'I' for Inactive)
REMARK    1  A    between atoms: C_2  and  C_24
REMARK    2  A    between atoms: N_3  and  C_4
REMARK    3  A    between atoms: C_8  and  S_9
REMARK    4  A    between atoms: S_9  and  N_12
REMARK    5  A    between atoms: N_12  and  C_13
REMARK    6  A    between atoms: C_17  and  C_18
REMARK                            x       y       z     vdW  Elec       q    Type
REMARK                         _______ _______ _______ _____ _____    ______ ____
ROOT
ATOM      1  C   UNL     1       7.948   7.798  17.919  0.00  0.00    +0.000 A 
ATOM      2  C   UNL     1       8.322   7.089  19.065  0.00  0.00    +0.000 A 
ATOM      3  C   UNL     1       7.927   5.760  19.254  0.00  0.00    +0.000 A 
ATOM      4  C   UNL     1       7.149   5.119  18.295  0.00  0.00    +0.000 A 
ATOM      5  C   UNL     1       6.755   5.826  17.157  0.00  0.00    +0.000 A 
ATOM      6  C   UNL     1       7.126   7.169  16.978  0.00  0.00    +0.000 A 
ENDROOT
BRANCH   1   9
ATOM      7  O   UNL     1       9.299   9.670  19.704  0.00  0.00    +0.000 OA
ATOM      8  C   UNL     1       8.965   9.976  18.562  0.00  0.00    +0.000 C 
ATOM      9  N   UNL     1       8.357   9.126  17.658  0.00  0.00    +0.000 N 
ATOM     10  H   UNL     1       8.296   9.433  16.698  0.00  0.00    +0.000 HD
BRANCH   8  11
ATOM     11  C   UNL     1       9.268  11.317  18.073  0.00  0.00    +0.000 A 
ATOM     12  C   UNL     1      10.579  11.859  17.879  0.00  0.00    +0.000 A 
ATOM     13  C   UNL     1      10.416  13.145  17.431  0.00  0.00    +0.000 A 
ATOM     14  O   UNL     1       9.097  13.443  17.333  0.00  0.00    +0.000 OA
ATOM     15  C   UNL     1       8.408  12.339  17.726  0.00  0.00    +0.000 A 
ENDBRANCH   8  11
ENDBRANCH   1   9
BRANCH   5  16
ATOM     16  S   UNL     1       5.724   5.044  15.937  0.00  0.00    +0.000 S 
ATOM     17  O   UNL     1       5.735   5.881  14.755  0.00  0.00    +0.000 OA
ATOM     18  O   UNL     1       6.088   3.646  15.867  0.00  0.00    +0.000 OA
BRANCH  16  19
ATOM     19  N   UNL     1       4.185   5.178  16.582  0.00  0.00    +0.000 N 
ATOM     20  H   UNL     1       3.540   5.775  16.068  0.00  0.00    +0.000 HD
BRANCH  19  21
ATOM     21  C   UNL     1       3.696   4.239  17.518  0.00  0.00    +0.000 A 
ATOM     22  C   UNL     1       3.965   2.889  17.300  0.00  0.00    +0.000 A 
ATOM     23  C   UNL     1       3.535   1.934  18.217  0.00  0.00    +0.000 A 
ATOM     24  C   UNL     1       2.860   2.333  19.369  0.00  0.00    +0.000 A 
ATOM     25  C   UNL     1       2.603   3.692  19.614  0.00  0.00    +0.000 A 
ATOM     26  C   UNL     1       3.018   4.647  18.666  0.00  0.00    +0.000 A 
BRANCH  25  27
ATOM     27  C   UNL     1       1.921   4.126  20.889  0.00  0.00    +0.000 C 
ATOM     28  F   UNL     1       2.409   3.507  22.002  0.00  0.00    +0.000 F 
ATOM     29  F   UNL     1       2.057   5.461  21.122  0.00  0.00    +0.000 F 
ATOM     30  F   UNL     1       0.584   3.878  20.883  0.00  0.00    +0.000 F 
ENDBRANCH  25  27
ENDBRANCH  19  21
ENDBRANCH  16  19
ENDBRANCH   5  16
TORSDOF 6
ENDMDL
MODEL 6
REMARK VINA RESULT:      -8.6      6.321      8.795
REMARK  Name = 
REMARK  6 active torsions:
REMARK  status: ('A' for Active; 'I' for Inactive)
REMARK    1  A    between atoms: C_2  and  C_24
REMARK    2  A    between atoms: N_3  and  C_4
REMARK    3  A    between atoms: C_8  and  S_9
REMARK    4  A    between atoms: S_9  and  N_12
REMARK    5  A    between atoms: N_12  and  C_13
REMARK    6  A    between atoms: C_17  and  C_18
REMARK                            x       y       z     vdW  Elec       q    Type
REMARK                         _______ _______ _______ _____ _____    ______ ____
ROOT
ATOM      1  C   UNL     1      -0.443  11.089  18.688  0.00  0.00    +0.000 A 
ATOM      2  C   UNL     1       0.183  12.307  18.968  0.00  0.00    +0.000 A 
ATOM      3  C   UNL     1       0.894  12.497  20.158  0.00  0.00    +0.000 A 
ATOM      4  C   UNL     1       0.988  11.467  21.089  0.00  0.00    +0.000 A 
ATOM      5  C   UNL     1       0.349  10.254  20.825  0.00  0.00    +0.000 A 
ATOM      6  C   UNL     1      -0.389  10.069  19.645  0.00  0.00    +0.000 A 
ENDROOT
BRANCH   1   9
ATOM      7  O   UNL     1      -3.209  11.721  18.004  0.00  0.00    +0.000 OA
ATOM      8  C   UNL     1      -2.462  11.125  17.233  0.00  0.00    +0.000 C 
ATOM      9  N   UNL     1      -1.135  10.829  17.482  0.00  0.00    +0.000 N 
ATOM     10  H   UNL     1      -0.578  10.500  16.707  0.00  0.00    +0.000 HD
BRANCH   8  11
ATOM     11  C   UNL     1      -2.968  10.733  15.922  0.00  0.00    +0.000 A 
ATOM     12  C   UNL     1      -2.353   9.790  15.037  0.00  0.00    +0.000 A 
ATOM     13  C   UNL     1      -3.136   9.730  13.912  0.00  0.00    +0.000 A 
ATOM     14  O   UNL     1      -4.196  10.567  14.034  0.00  0.00    +0.000 OA
ATOM     15  C   UNL     1      -4.087  11.175  15.246  0.00  0.00    +0.000 A 
ENDBRANCH   8  11
ENDBRANCH   1   9
BRANCH   5  16
ATOM     16  S   UNL     1       0.416   8.935  22.017  0.00  0.00    +0.000 S 
ATOM     17  O   UNL     1       0.636   9.533  23.317  0.00  0.00    +0.000 OA
ATOM     18  O   UNL     1      -0.706   8.054  21.779  0.00  0.00    +0.000 OA
BRANCH  16  19
ATOM     19  N   UNL     1       1.835   8.134  21.632  0.00  0.00    +0.000 N 
ATOM     20  H   UNL     1       2.575   8.184  22.329  0.00  0.00    +0.000 HD
BRANCH  19  21
ATOM     21  C   UNL     1       1.868   7.140  20.628  0.00  0.00    +0.000 A 
ATOM     22  C   UNL     1       2.288   7.507  19.350  0.00  0.00    +0.000 A 
ATOM     23  C   UNL     1       2.372   6.551  18.341  0.00  0.00    +0.000 A 
ATOM     24  C   UNL     1       2.065   5.220  18.619  0.00  0.00    +0.000 A 
ATOM     25  C   UNL     1       1.665   4.832  19.908  0.00  0.00    +0.000 A 
ATOM     26  C   UNL     1       1.555   5.812  20.913  0.00  0.00    +0.000 A 
BRANCH  25  27
ATOM     27  C   UNL     1       1.386   3.381  20.219  0.00  0.00    +0.000 C 
ATOM     28  F   UNL     1       2.422   2.551  19.904  0.00  0.00    +0.000 F 
ATOM     29  F   UNL     1       1.139   3.173  21.542  0.00  0.00    +0.000 F 
ATOM     30  F   UNL     1       0.306   2.896  19.551  0.00  0.00    +0.000 F 
ENDBRANCH  25  27
ENDBRANCH  19  21
ENDBRANCH  16  19
ENDBRANCH   5  16
TORSDOF 6
ENDMDL
MODEL 7
REMARK VINA RESULT:      -8.6      4.990      7.210
REMARK  Name = 
REMARK  6 active torsions:
REMARK  status: ('A' for Active; 'I' for Inactive)
REMARK    1  A    between atoms: C_2  and  C_24
REMARK    2  A    between atoms: N_3  and  C_4
REMARK    3  A    between atoms: C_8  and  S_9
REMARK    4  A    between atoms: S_9  and  N_12
REMARK    5  A    between atoms: N_12  and  C_13
REMARK    6  A    between atoms: C_17  and  C_18
REMARK                            x       y       z     vdW  Elec       q    Type
REMARK                         _______ _______ _______ _____ _____    ______ ____
ROOT
ATOM      1  C   UNL     1       2.756   6.324  18.576  0.00  0.00    +0.000 A 
ATOM      2  C   UNL     1       2.163   5.061  18.490  0.00  0.00    +0.000 A 
ATOM      3  C   UNL     1       2.863   3.968  17.967  0.00  0.00    +0.000 A 
ATOM      4  C   UNL     1       4.171   4.125  17.521  0.00  0.00    +0.000 A 
ATOM      5  C   UNL     1       4.764   5.388  17.586  0.00  0.00    +0.000 A 
ATOM      6  C   UNL     1       4.055   6.492  18.084  0.00  0.00    +0.000 A 
ENDROOT
BRANCH   1   9
ATOM      7  O   UNL     1       2.113   8.872  17.308  0.00  0.00    +0.000 OA
ATOM      8  C   UNL     1       1.864   8.646  18.489  0.00  0.00    +0.000 C 
ATOM      9  N   UNL     1       2.110   7.450  19.137  0.00  0.00    +0.000 N 
ATOM     10  H   UNL     1       1.699   7.322  20.051  0.00  0.00    +0.000 HD
BRANCH   8  11
ATOM     11  C   UNL     1       1.209   9.680  19.284  0.00  0.00    +0.000 A 
ATOM     12  C   UNL     1       1.151  11.072  18.958  0.00  0.00    +0.000 A 
ATOM     13  C   UNL     1       0.466  11.691  19.972  0.00  0.00    +0.000 A 
ATOM     14  O   UNL     1       0.093  10.782  20.907  0.00  0.00    +0.000 OA
ATOM     15  C   UNL     1       0.548   9.571  20.490  0.00  0.00    +0.000 A 
ENDBRANCH   8  11
ENDBRANCH   1   9
BRANCH   5  16
ATOM     16  S   UNL     1       6.420   5.625  16.983  0.00  0.00    +0.000 S 
ATOM     17  O   UNL     1       6.395   6.747  16.068  0.00  0.00    +0.000 OA
ATOM     18  O   UNL     1       7.321   5.602  18.114  0.00  0.00    +0.000 OA
BRANCH  16  19
ATOM     19  N   UNL     1       6.691   4.268  16.039  0.00  0.00    +0.000 N 
ATOM     20  H   UNL     1       6.552   3.372  16.502  0.00  0.00    +0.000 HD
BRANCH  19  21
ATOM     21  C   UNL     1       6.711   4.346  14.629  0.00  0.00    +0.000 A 
ATOM     22  C   UNL     1       7.814   4.937  14.015  0.00  0.00    +0.000 A 
ATOM     23  C   UNL     1       7.891   5.000  12.626  0.00  0.00    +0.000 A 
ATOM     24  C   UNL     1       6.877   4.443  11.849  0.00  0.00    +0.000 A 
ATOM     25  C   UNL     1       5.771   3.822  12.454  0.00  0.00    +0.000 A 
ATOM     26  C   UNL     1       5.689   3.790  13.859  0.00  0.00    +0.000 A 
BRANCH  25  27
ATOM     27  C   UNL     1       4.702   3.171  11.609  0.00  0.00    +0.000 C 
ATOM     28  F   UNL     1       4.350   3.910  10.518  0.00  0.00    +0.000 F 
ATOM     29  F   UNL     1       5.091   1.960  11.123  0.00  0.00    +0.000 F 
ATOM     30  F   UNL     1       3.549   2.951  12.296  0.00  0.00    +0.000 F 
ENDBRANCH  25  27
ENDBRANCH  19  21
ENDBRANCH  16  19
ENDBRANCH   5  16
TORSDOF 6
ENDMDL
MODEL 8
REMARK VINA RESULT:      -8.5      5.033      7.500
REMARK  Name = 
REMARK  6 active torsions:
REMARK  status: ('A' for Active; 'I' for Inactive)
REMARK    1  A    between atoms: C_2  and  C_24
REMARK    2  A    between atoms: N_3  and  C_4
REMARK    3  A    between atoms: C_8  and  S_9
REMARK    4  A    between atoms: S_9  and  N_12
REMARK    5  A    between atoms: N_12  and  C_13
REMARK    6  A    between atoms: C_17  and  C_18
REMARK                            x       y       z     vdW  Elec       q    Type
REMARK                         _______ _______ _______ _____ _____    ______ ____
ROOT
ATOM      1  C   UNL     1       2.799   6.311  18.600  0.00  0.00    +0.000 A 
ATOM      2  C   UNL     1       2.042   5.215  18.176  0.00  0.00    +0.000 A 
ATOM      3  C   UNL     1       2.627   4.166  17.460  0.00  0.00    +0.000 A 
ATOM      4  C   UNL     1       3.984   4.199  17.155  0.00  0.00    +0.000 A 
ATOM      5  C   UNL     1       4.744   5.300  17.558  0.00  0.00    +0.000 A 
ATOM      6  C   UNL     1       4.153   6.368  18.253  0.00  0.00    +0.000 A 
ENDROOT
BRANCH   1   9
ATOM      7  O   UNL     1       1.314   6.184  21.109  0.00  0.00    +0.000 OA
ATOM      8  C   UNL     1       1.540   7.245  20.534  0.00  0.00    +0.000 C 
ATOM      9  N   UNL     1       2.267   7.375  19.365  0.00  0.00    +0.000 N 
ATOM     10  H   UNL     1       2.539   8.307  19.088  0.00  0.00    +0.000 HD
BRANCH   8  11
ATOM     11  C   UNL     1       1.065   8.488  21.132  0.00  0.00    +0.000 A 
ATOM     12  C   UNL     1       0.075   9.359  20.574  0.00  0.00    +0.000 A 
ATOM     13  C   UNL     1      -0.060  10.415  21.438  0.00  0.00    +0.000 A 
ATOM     14  O   UNL     1       0.776  10.265  22.495  0.00  0.00    +0.000 OA
ATOM     15  C   UNL     1       1.457   9.103  22.303  0.00  0.00    +0.000 A 
ENDBRANCH   8  11
ENDBRANCH   1   9
BRANCH   5  16
ATOM     16  S   UNL     1       6.471   5.389  17.144  0.00  0.00    +0.000 S 
ATOM     17  O   UNL     1       6.665   6.571  16.331  0.00  0.00    +0.000 OA
ATOM     18  O   UNL     1       7.236   5.178  18.352  0.00  0.00    +0.000 OA
BRANCH  16  19
ATOM     19  N   UNL     1       6.694   4.084  16.119  0.00  0.00    +0.000 N 
ATOM     20  H   UNL     1       6.521   3.167  16.525  0.00  0.00    +0.000 HD
BRANCH  19  21
ATOM     21  C   UNL     1       6.722   4.248  14.715  0.00  0.00    +0.000 A 
ATOM     22  C   UNL     1       7.796   4.935  14.152  0.00  0.00    +0.000 A 
ATOM     23  C   UNL     1       7.882   5.086  12.770  0.00  0.00    +0.000 A 
ATOM     24  C   UNL     1       6.907   4.523  11.949  0.00  0.00    +0.000 A 
ATOM     25  C   UNL     1       5.832   3.806  12.501  0.00  0.00    +0.000 A 
ATOM     26  C   UNL     1       5.740   3.685  13.901  0.00  0.00    +0.000 A 
BRANCH  25  27
ATOM     27  C   UNL     1       4.808   3.150  11.607  0.00  0.00    +0.000 C 
ATOM     28  F   UNL     1       5.179   1.909  11.179  0.00  0.00    +0.000 F 
ATOM     29  F   UNL     1       3.609   2.981  12.229  0.00  0.00    +0.000 F 
ATOM     30  F   UNL     1       4.553   3.870  10.481  0.00  0.00    +0.000 F 
ENDBRANCH  25  27
ENDBRANCH  19  21
ENDBRANCH  16  19
ENDBRANCH   5  16
TORSDOF 6
ENDMDL
MODEL 9
REMARK VINA RESULT:      -8.5      4.953      7.458
REMARK  Name = 
REMARK  6 active torsions:
REMARK  status: ('A' for Active; 'I' for Inactive)
REMARK    1  A    between atoms: C_2  and  C_24
REMARK    2  A    between atoms: N_3  and  C_4
REMARK    3  A    between atoms: C_8  and  S_9
REMARK    4  A    between atoms: S_9  and  N_12
REMARK    5  A    between atoms: N_12  and  C_13
REMARK    6  A    between atoms: C_17  and  C_18
REMARK                            x       y       z     vdW  Elec       q    Type
REMARK                         _______ _______ _______ _____ _____    ______ ____
ROOT
ATOM      1  C   UNL     1       2.089   7.338  19.636  0.00  0.00    +0.000 A 
ATOM      2  C   UNL     1       2.400   7.845  18.370  0.00  0.00    +0.000 A 
ATOM      3  C   UNL     1       3.023   7.046  17.405  0.00  0.00    +0.000 A 
ATOM      4  C   UNL     1       3.347   5.725  17.695  0.00  0.00    +0.000 A 
ATOM      5  C   UNL     1       3.058   5.217  18.963  0.00  0.00    +0.000 A 
ATOM      6  C   UNL     1       2.457   6.024  19.943  0.00  0.00    +0.000 A 
ENDROOT
BRANCH   1   9
ATOM      7  O   UNL     1       0.565   9.808  19.336  0.00  0.00    +0.000 OA
ATOM      8  C   UNL     1       0.740   9.274  20.428  0.00  0.00    +0.000 C 
ATOM      9  N   UNL     1       1.419   8.087  20.631  0.00  0.00    +0.000 N 
ATOM     10  H   UNL     1       1.342   7.656  21.541  0.00  0.00    +0.000 HD
BRANCH   8  11
ATOM     11  C   UNL     1       0.153   9.885  21.616  0.00  0.00    +0.000 A 
ATOM     12  C   UNL     1      -0.691  11.040  21.630  0.00  0.00    +0.000 A 
ATOM     13  C   UNL     1      -1.003  11.290  22.942  0.00  0.00    +0.000 A 
ATOM     14  O   UNL     1      -0.414  10.371  23.747  0.00  0.00    +0.000 OA
ATOM     15  C   UNL     1       0.288   9.528  22.942  0.00  0.00    +0.000 A 
ENDBRANCH   8  11
ENDBRANCH   1   9
BRANCH   5  16
ATOM     16  S   UNL     1       3.500   3.544  19.374  0.00  0.00    +0.000 S 
ATOM     17  O   UNL     1       3.121   3.318  20.753  0.00  0.00    +0.000 OA
ATOM     18  O   UNL     1       3.026   2.679  18.316  0.00  0.00    +0.000 OA
BRANCH  16  19
ATOM     19  N   UNL     1       5.174   3.567  19.354  0.00  0.00    +0.000 N 
ATOM     20  H   UNL     1       5.633   2.759  19.771  0.00  0.00    +0.000 HD
BRANCH  19  21
ATOM     21  C   UNL     1       5.888   4.421  18.484  0.00  0.00    +0.000 A 
ATOM     22  C   UNL     1       6.670   5.431  19.043  0.00  0.00    +0.000 A 
ATOM     23  C   UNL     1       7.418   6.271  18.223  0.00  0.00    +0.000 A 
ATOM     24  C   UNL     1       7.408   6.081  16.843  0.00  0.00    +0.000 A 
ATOM     25  C   UNL     1       6.644   5.053  16.267  0.00  0.00    +0.000 A 
ATOM     26  C   UNL     1       5.869   4.228  17.103  0.00  0.00    +0.000 A 
BRANCH  25  27
ATOM     27  C   UNL     1       6.679   4.815  14.776  0.00  0.00    +0.000 C 
ATOM     28  F   UNL     1       6.617   3.496  14.436  0.00  0.00    +0.000 F 
ATOM     29  F   UNL     1       5.637   5.410  14.132  0.00  0.00    +0.000 F 
ATOM     30  F   UNL     1       7.808   5.296  14.191  0.00  0.00    +0.000 F 
ENDBRANCH  25  27
ENDBRANCH  19  21
ENDBRANCH  16  19
ENDBRANCH   5  16
TORSDOF 6
ENDMDL
