MODEL 1
REMARK VINA RESULT:      -8.4      0.000      0.000
REMARK  Name = 
REMARK  7 active torsions:
REMARK  status: ('A' for Active; 'I' for Inactive)
REMARK    1  A    between atoms: C_1  and  C_2
REMARK    2  A    between atoms: C_5  and  C_6
REMARK    3  A    between atoms: C_6  and  N_7
REMARK    4  A    between atoms: C_8  and  C_10
REMARK    5  A    between atoms: C_10  and  C_11
REMARK    6  A    between atoms: C_10  and  S_12
REMARK    7  A    between atoms: S_12  and  C_13
REMARK                            x       y       z     vdW  Elec       q    Type
REMARK                         _______ _______ _______ _____ _____    ______ ____
ROOT
ATOM      1  C   UNL     1       2.685   4.260  19.983  0.00  0.00    +0.000 C 
ATOM      2  C   UNL     1       1.380   3.568  20.363  0.00  0.00    +0.000 C 
ENDROOT
BRANCH   1   4
ATOM      3  N   UNL     1       2.477   6.707  19.918  0.00  0.00    +0.000 N 
ATOM      4  C   UNL     1       2.365   5.538  19.193  0.00  0.00    +0.000 C 
ATOM      5  O   UNL     1       1.988   5.522  18.023  0.00  0.00    +0.000 OA
ATOM      6  H   UNL     1       2.856   6.694  20.855  0.00  0.00    +0.000 HD
BRANCH   3   7
ATOM      7  C   UNL     1       2.112   7.994  19.360  0.00  0.00    +0.000 C 
BRANCH   7  12
ATOM      8  C   UNL     1      -1.183  11.192  22.956  0.00  0.00    +0.000 C 
ATOM      9  C   UNL     1      -0.353  10.349  22.034  0.00  0.00    +0.000 A 
ATOM     10  C   UNL     1       0.251   9.168  22.479  0.00  0.00    +0.000 A 
ATOM     11  C   UNL     1       1.029   8.396  21.610  0.00  0.00    +0.000 A 
ATOM     12  C   UNL     1       1.216   8.789  20.278  0.00  0.00    +0.000 A 
ATOM     13  C   UNL     1       0.611   9.974  19.836  0.00  0.00    +0.000 A 
ATOM     14  C   UNL     1      -0.167  10.745  20.705  0.00  0.00    +0.000 A 
ENDBRANCH   7  12
ENDBRANCH   3   7
ENDBRANCH   1   4
BRANCH   1  15
ATOM     15  S   UNL     1       3.750   3.128  18.989  0.00  0.00    +0.000 S 
BRANCH  15  16
ATOM     16  C   UNL     1       5.170   4.114  18.914  0.00  0.00    +0.000 A 
ATOM     17  N   UNL     1       5.716   4.675  19.970  0.00  0.00    +0.000 NA
ATOM     18  N   UNL     1       6.809   5.383  19.483  0.00  0.00    +0.000 N 
ATOM     19  C   UNL     1       6.893   5.278  18.152  0.00  0.00    +0.000 A 
ATOM     20  N   UNL     1       7.580   5.752  17.158  0.00  0.00    +0.000 NA
ATOM     21  C   UNL     1       7.000   5.137  16.062  0.00  0.00    +0.000 A 
ATOM     22  C   UNL     1       7.326   5.289  14.705  0.00  0.00    +0.000 A 
ATOM     23  C   UNL     1       6.612   4.555  13.753  0.00  0.00    +0.000 A 
ATOM     24  C   UNL     1       5.601   3.672  14.144  0.00  0.00    +0.000 A 
ATOM     25  C   UNL     1       5.243   3.509  15.491  0.00  0.00    +0.000 A 
ATOM     26  C   UNL     1       5.948   4.274  16.427  0.00  0.00    +0.000 A 
ATOM     27  N   UNL     1       5.889   4.449  17.780  0.00  0.00    +0.000 N 
ATOM     28  H   UNL     1       7.339   6.036  20.053  0.00  0.00    +0.000 HD
ENDBRANCH  15  16
ENDBRANCH   1  15
TORSDOF 5
ENDMDL
MODEL 2
REMARK VINA RESULT:      -8.2      2.294      4.687
REMARK  Name = 
REMARK  7 active torsions:
REMARK  status: ('A' for Active; 'I' for Inactive)
REMARK    1  A    between atoms: C_1  and  C_2
REMARK    2  A    between atoms: C_5  and  C_6
REMARK    3  A    between atoms: C_6  and  N_7
REMARK    4  A    between atoms: C_8  and  C_10
REMARK    5  A    between atoms: C_10  and  C_11
REMARK    6  A    between atoms: C_10  and  S_12
REMARK    7  A    between atoms: S_12  and  C_13
REMARK                            x       y       z     vdW  Elec       q    Type
REMARK                         _______ _______ _______ _____ _____    ______ ____
ROOT
ATOM      1  C   UNL     1       6.722   6.523  17.357  0.00  0.00    +0.000 C 
ATOM      2  C   UNL     1       7.513   7.750  17.797  0.00  0.00    +0.000 C 
ENDROOT
BRANCH   1   4
ATOM      3  N   UNL     1       4.420   7.335  17.626  0.00  0.00    +0.000 N 
ATOM      4  C   UNL     1       5.400   6.978  16.722  0.00  0.00    +0.000 C 
ATOM      5  O   UNL     1       5.206   6.975  15.509  0.00  0.00    +0.000 OA
ATOM      6  H   UNL     1       4.631   7.395  18.613  0.00  0.00    +0.000 HD
BRANCH   3   7
ATOM      7  C   UNL     1       3.079   7.689  17.205  0.00  0.00    +0.000 C 
BRANCH   7  12
ATOM      8  C   UNL     1      -0.033   9.798  21.664  0.00  0.00    +0.000 C 
ATOM      9  C   UNL     1       0.752   9.233  20.517  0.00  0.00    +0.000 A 
ATOM     10  C   UNL     1       1.474   8.042  20.650  0.00  0.00    +0.000 A 
ATOM     11  C   UNL     1       2.208   7.532  19.574  0.00  0.00    +0.000 A 
ATOM     12  C   UNL     1       2.232   8.201  18.343  0.00  0.00    +0.000 A 
ATOM     13  C   UNL     1       1.508   9.395  18.215  0.00  0.00    +0.000 A 
ATOM     14  C   UNL     1       0.774   9.904  19.289  0.00  0.00    +0.000 A 
ENDBRANCH   7  12
ENDBRANCH   3   7
ENDBRANCH   1   4
BRANCH   1  15
ATOM     15  S   UNL     1       6.408   5.409  18.792  0.00  0.00    +0.000 S 
BRANCH  15  16
ATOM     16  C   UNL     1       5.497   4.188  17.973  0.00  0.00    +0.000 A 
ATOM     17  N   UNL     1       5.875   3.644  16.838  0.00  0.00    +0.000 NA
ATOM     18  N   UNL     1       4.873   2.736  16.515  0.00  0.00    +0.000 N 
ATOM     19  C   UNL     1       3.891   2.764  17.424  0.00  0.00    +0.000 A 
ATOM     20  N   UNL     1       2.711   2.265  17.629  0.00  0.00    +0.000 NA
ATOM     21  C   UNL     1       2.340   2.836  18.834  0.00  0.00    +0.000 A 
ATOM     22  C   UNL     1       1.140   2.671  19.542  0.00  0.00    +0.000 A 
ATOM     23  C   UNL     1       0.977   3.340  20.759  0.00  0.00    +0.000 A 
ATOM     24  C   UNL     1       1.997   4.147  21.272  0.00  0.00    +0.000 A 
ATOM     25  C   UNL     1       3.202   4.342  20.581  0.00  0.00    +0.000 A 
ATOM     26  C   UNL     1       3.336   3.688  19.351  0.00  0.00    +0.000 A 
ATOM     27  N   UNL     1       4.287   3.646  18.372  0.00  0.00    +0.000 N 
ATOM     28  H   UNL     1       4.823   2.271  15.613  0.00  0.00    +0.000 HD
ENDBRANCH  15  16
ENDBRANCH   1  15
TORSDOF 5
ENDMDL
MODEL 3
REMARK VINA RESULT:      -8.1      0.916      1.442
REMARK  Name = 
REMARK  7 active torsions:
REMARK  status: ('A' for Active; 'I' for Inactive)
REMARK    1  A    between atoms: C_1  and  C_2
REMARK    2  A    between atoms: C_5  and  C_6
REMARK    3  A    between atoms: C_6  and  N_7
REMARK    4  A    between atoms: C_8  and  C_10
REMARK    5  A    between atoms: C_10  and  C_11
REMARK    6  A    between atoms: C_10  and  S_12
REMARK    7  A    between atoms: S_12  and  C_13
REMARK                            x       y       z     vdW  Elec       q    Type
REMARK                         _______ _______ _______ _____ _____    ______ ____
ROOT
ATOM      1  C   UNL     1       2.332   3.538  18.977  0.00  0.00    +0.000 C 
ATOM      2  C   UNL     1       1.025   2.765  19.116  0.00  0.00    +0.000 C 
ENDROOT
BRANCH   1   4
ATOM      3  N   UNL     1       2.803   5.933  18.699  0.00  0.00    +0.000 N 
ATOM      4  C   UNL     1       2.058   4.863  18.249  0.00  0.00    +0.000 C 
ATOM      5  O   UNL     1       1.204   4.977  17.372  0.00  0.00    +0.000 OA
ATOM      6  H   UNL     1       3.546   5.793  19.371  0.00  0.00    +0.000 HD
BRANCH   3   7
ATOM      7  C   UNL     1       2.598   7.277  18.196  0.00  0.00    +0.000 C 
BRANCH   7  12
ATOM      8  C   UNL     1      -0.324  10.591  22.004  0.00  0.00    +0.000 C 
ATOM      9  C   UNL     1       0.446   9.758  21.021  0.00  0.00    +0.000 A 
ATOM     10  C   UNL     1       0.589  10.160  19.688  0.00  0.00    +0.000 A 
ATOM     11  C   UNL     1       1.303   9.369  18.781  0.00  0.00    +0.000 A 
ATOM     12  C   UNL     1       1.889   8.163  19.190  0.00  0.00    +0.000 A 
ATOM     13  C   UNL     1       1.741   7.764  20.526  0.00  0.00    +0.000 A 
ATOM     14  C   UNL     1       1.029   8.555  21.432  0.00  0.00    +0.000 A 
ENDBRANCH   7  12
ENDBRANCH   3   7
ENDBRANCH   1   4
BRANCH   1  15
ATOM     15  S   UNL     1       3.580   2.536  18.059  0.00  0.00    +0.000 S 
BRANCH  15  16
ATOM     16  C   UNL     1       4.951   3.567  18.285  0.00  0.00    +0.000 A 
ATOM     17  N   UNL     1       5.346   3.994  19.464  0.00  0.00    +0.000 NA
ATOM     18  N   UNL     1       6.453   4.796  19.209  0.00  0.00    +0.000 N 
ATOM     19  C   UNL     1       6.693   4.878  17.895  0.00  0.00    +0.000 A 
ATOM     20  N   UNL     1       7.466   5.505  17.063  0.00  0.00    +0.000 NA
ATOM     21  C   UNL     1       7.044   5.028  15.833  0.00  0.00    +0.000 A 
ATOM     22  C   UNL     1       7.515   5.375  14.558  0.00  0.00    +0.000 A 
ATOM     23  C   UNL     1       6.950   4.756  13.438  0.00  0.00    +0.000 A 
ATOM     24  C   UNL     1       5.944   3.797  13.585  0.00  0.00    +0.000 A 
ATOM     25  C   UNL     1       5.443   3.440  14.846  0.00  0.00    +0.000 A 
ATOM     26  C   UNL     1       6.000   4.090  15.953  0.00  0.00    +0.000 A 
ATOM     27  N   UNL     1       5.779   4.076  17.300  0.00  0.00    +0.000 N 
ATOM     28  H   UNL     1       6.883   5.381  19.920  0.00  0.00    +0.000 HD
ENDBRANCH  15  16
ENDBRANCH   1  15
TORSDOF 5
ENDMDL
MODEL 4
REMARK VINA RESULT:      -7.9      1.782      8.443
REMARK  Name = 
REMARK  7 active torsions:
REMARK  status: ('A' for Active; 'I' for Inactive)
REMARK    1  A    between atoms: C_1  and  C_2
REMARK    2  A    between atoms: C_5  and  C_6
REMARK    3  A    between atoms: C_6  and  N_7
REMARK    4  A    between atoms: C_8  and  C_10
REMARK    5  A    between atoms: C_10  and  C_11
REMARK    6  A    between atoms: C_10  and  S_12
REMARK    7  A    between atoms: S_12  and  C_13
REMARK                            x       y       z     vdW  Elec       q    Type
REMARK                         _______ _______ _______ _____ _____    ______ ____
ROOT
ATOM      1  C   UNL     1       1.913   4.943  19.714  0.00  0.00    +0.000 C 
ATOM      2  C   UNL     1       0.930   3.851  20.122  0.00  0.00    +0.000 C 
ENDROOT
BRANCH   1   4
ATOM      3  N   UNL     1       4.280   5.206  19.112  0.00  0.00    +0.000 N 
ATOM      4  C   UNL     1       3.307   4.324  19.535  0.00  0.00    +0.000 C 
ATOM      5  O   UNL     1       3.531   3.127  19.703  0.00  0.00    +0.000 OA
ATOM      6  H   UNL     1       4.082   6.196  19.051  0.00  0.00    +0.000 HD
BRANCH   3   7
ATOM      7  C   UNL     1       5.625   4.770  18.793  0.00  0.00    +0.000 C 
BRANCH   7  12
ATOM      8  C   UNL     1       6.556   4.018  13.085  0.00  0.00    +0.000 C 
ATOM      9  C   UNL     1       6.320   4.238  14.550  0.00  0.00    +0.000 A 
ATOM     10  C   UNL     1       7.304   4.808  15.365  0.00  0.00    +0.000 A 
ATOM     11  C   UNL     1       7.072   5.000  16.731  0.00  0.00    +0.000 A 
ATOM     12  C   UNL     1       5.850   4.628  17.308  0.00  0.00    +0.000 A 
ATOM     13  C   UNL     1       4.867   4.056  16.488  0.00  0.00    +0.000 A 
ATOM     14  C   UNL     1       5.099   3.865  15.123  0.00  0.00    +0.000 A 
ENDBRANCH   7  12
ENDBRANCH   3   7
ENDBRANCH   1   4
BRANCH   1  15
ATOM     15  S   UNL     1       1.952   6.283  20.981  0.00  0.00    +0.000 S 
BRANCH  15  16
ATOM     16  C   UNL     1       1.789   7.641  19.921  0.00  0.00    +0.000 A 
ATOM     17  N   UNL     1       2.311   7.682  18.715  0.00  0.00    +0.000 NA
ATOM     18  N   UNL     1       1.970   8.932  18.212  0.00  0.00    +0.000 N 
ATOM     19  C   UNL     1       1.288   9.643  19.117  0.00  0.00    +0.000 A 
ATOM     20  N   UNL     1       0.805  10.835  19.287  0.00  0.00    +0.000 NA
ATOM     21  C   UNL     1       0.248  10.764  20.553  0.00  0.00    +0.000 A 
ATOM     22  C   UNL     1      -0.404  11.776  21.274  0.00  0.00    +0.000 A 
ATOM     23  C   UNL     1      -0.906  11.481  22.545  0.00  0.00    +0.000 A 
ATOM     24  C   UNL     1      -0.776  10.198  23.085  0.00  0.00    +0.000 A 
ATOM     25  C   UNL     1      -0.117   9.171  22.394  0.00  0.00    +0.000 A 
ATOM     26  C   UNL     1       0.405   9.491  21.135  0.00  0.00    +0.000 A 
ATOM     27  N   UNL     1       1.131   8.828  20.187  0.00  0.00    +0.000 N 
ATOM     28  H   UNL     1       2.361   9.303  17.350  0.00  0.00    +0.000 HD
ENDBRANCH  15  16
ENDBRANCH   1  15
TORSDOF 5
ENDMDL
MODEL 5
REMARK VINA RESULT:      -7.9      4.395      7.136
REMARK  Name = 
REMARK  7 active torsions:
REMARK  status: ('A' for Active; 'I' for Inactive)
REMARK    1  A    between atoms: C_1  and  C_2
REMARK    2  A    between atoms: C_5  and  C_6
REMARK    3  A    between atoms: C_6  and  N_7
REMARK    4  A    between atoms: C_8  and  C_10
REMARK    5  A    between atoms: C_10  and  C_11
REMARK    6  A    between atoms: C_10  and  S_12
REMARK    7  A    between atoms: S_12  and  C_13
REMARK                            x       y       z     vdW  Elec       q    Type
REMARK                         _______ _______ _______ _____ _____    ______ ____
ROOT
ATOM      1  C   UNL     1       7.372   5.780  18.535  0.00  0.00    +0.000 C 
ATOM      2  C   UNL     1       8.337   5.768  19.717  0.00  0.00    +0.000 C 
ENDROOT
BRANCH   1   4
ATOM      3  N   UNL     1       8.056   8.121  18.240  0.00  0.00    +0.000 N 
ATOM      4  C   UNL     1       7.739   6.941  17.599  0.00  0.00    +0.000 C 
ATOM      5  O   UNL     1       7.703   6.847  16.374  0.00  0.00    +0.000 OA
ATOM      6  H   UNL     1       8.146   8.148  19.247  0.00  0.00    +0.000 HD
BRANCH   3   7
ATOM      7  C   UNL     1       8.324   9.344  17.510  0.00  0.00    +0.000 C 
BRANCH   7  12
ATOM      8  C   UNL     1      10.291  13.578  21.006  0.00  0.00    +0.000 C 
ATOM      9  C   UNL     1       9.806  12.494  20.089  0.00  0.00    +0.000 A 
ATOM     10  C   UNL     1       9.391  12.780  18.784  0.00  0.00    +0.000 A 
ATOM     11  C   UNL     1       8.933  11.760  17.944  0.00  0.00    +0.000 A 
ATOM     12  C   UNL     1       8.884  10.433  18.391  0.00  0.00    +0.000 A 
ATOM     13  C   UNL     1       9.298  10.150  19.700  0.00  0.00    +0.000 A 
ATOM     14  C   UNL     1       9.757  11.170  20.539  0.00  0.00    +0.000 A 
ENDBRANCH   7  12
ENDBRANCH   3   7
ENDBRANCH   1   4
BRANCH   1  15
ATOM     15  S   UNL     1       5.632   5.942  19.124  0.00  0.00    +0.000 S 
BRANCH  15  16
ATOM     16  C   UNL     1       4.880   4.867  17.996  0.00  0.00    +0.000 A 
ATOM     17  N   UNL     1       5.326   4.675  16.775  0.00  0.00    +0.000 NA
ATOM     18  N   UNL     1       4.443   3.765  16.202  0.00  0.00    +0.000 N 
ATOM     19  C   UNL     1       3.463   3.447  17.056  0.00  0.00    +0.000 A 
ATOM     20  N   UNL     1       2.353   2.776  17.090  0.00  0.00    +0.000 NA
ATOM     21  C   UNL     1       1.912   2.978  18.386  0.00  0.00    +0.000 A 
ATOM     22  C   UNL     1       0.739   2.500  18.990  0.00  0.00    +0.000 A 
ATOM     23  C   UNL     1       0.491   2.817  20.329  0.00  0.00    +0.000 A 
ATOM     24  C   UNL     1       1.402   3.584  21.062  0.00  0.00    +0.000 A 
ATOM     25  C   UNL     1       2.576   4.088  20.481  0.00  0.00    +0.000 A 
ATOM     26  C   UNL     1       2.794   3.785  19.133  0.00  0.00    +0.000 A 
ATOM     27  N   UNL     1       3.746   4.103  18.206  0.00  0.00    +0.000 N 
ATOM     28  H   UNL     1       4.453   3.539  15.211  0.00  0.00    +0.000 HD
ENDBRANCH  15  16
ENDBRANCH   1  15
TORSDOF 5
ENDMDL
MODEL 6
REMARK VINA RESULT:      -7.9      0.934      1.119
REMARK  Name = 
REMARK  7 active torsions:
REMARK  status: ('A' for Active; 'I' for Inactive)
REMARK    1  A    between atoms: C_1  and  C_2
REMARK    2  A    between atoms: C_5  and  C_6
REMARK    3  A    between atoms: C_6  and  N_7
REMARK    4  A    between atoms: C_8  and  C_10
REMARK    5  A    between atoms: C_10  and  C_11
REMARK    6  A    between atoms: C_10  and  S_12
REMARK    7  A    between atoms: S_12  and  C_13
REMARK                            x       y       z     vdW  Elec       q    Type
REMARK                         _______ _______ _______ _____ _____    ______ ____
ROOT
ATOM      1  C   UNL     1       3.189   4.511  19.852  0.00  0.00    +0.000 C 
ATOM      2  C   UNL     1       2.051   3.759  20.537  0.00  0.00    +0.000 C 
ENDROOT
BRANCH   1   4
ATOM      3  N   UNL     1       2.905   6.774  18.938  0.00  0.00    +0.000 N 
ATOM      4  C   UNL     1       2.603   5.437  18.776  0.00  0.00    +0.000 C 
ATOM      5  O   UNL     1       1.878   5.031  17.870  0.00  0.00    +0.000 OA
ATOM      6  H   UNL     1       3.560   7.067  19.650  0.00  0.00    +0.000 HD
BRANCH   3   7
ATOM      7  C   UNL     1       2.349   7.797  18.074  0.00  0.00    +0.000 C 
BRANCH   7  12
ATOM      8  C   UNL     1      -0.113  12.115  21.125  0.00  0.00    +0.000 C 
ATOM      9  C   UNL     1       0.497  10.990  20.342  0.00  0.00    +0.000 A 
ATOM     10  C   UNL     1       0.663   9.721  20.907  0.00  0.00    +0.000 A 
ATOM     11  C   UNL     1       1.241   8.684  20.167  0.00  0.00    +0.000 A 
ATOM     12  C   UNL     1       1.662   8.895  18.848  0.00  0.00    +0.000 A 
ATOM     13  C   UNL     1       1.496  10.168  18.286  0.00  0.00    +0.000 A 
ATOM     14  C   UNL     1       0.918  11.204  19.025  0.00  0.00    +0.000 A 
ENDBRANCH   7  12
ENDBRANCH   3   7
ENDBRANCH   1   4
BRANCH   1  15
ATOM     15  S   UNL     1       4.391   3.326  19.110  0.00  0.00    +0.000 S 
BRANCH  15  16
ATOM     16  C   UNL     1       5.669   4.440  18.767  0.00  0.00    +0.000 A 
ATOM     17  N   UNL     1       6.248   5.180  19.686  0.00  0.00    +0.000 NA
ATOM     18  N   UNL     1       7.195   5.935  19.003  0.00  0.00    +0.000 N 
ATOM     19  C   UNL     1       7.157   5.679  17.691  0.00  0.00    +0.000 A 
ATOM     20  N   UNL     1       7.679   6.099  16.580  0.00  0.00    +0.000 NA
ATOM     21  C   UNL     1       7.068   5.298  15.631  0.00  0.00    +0.000 A 
ATOM     22  C   UNL     1       7.236   5.318  14.237  0.00  0.00    +0.000 A 
ATOM     23  C   UNL     1       6.522   4.402  13.459  0.00  0.00    +0.000 A 
ATOM     24  C   UNL     1       5.667   3.471  14.055  0.00  0.00    +0.000 A 
ATOM     25  C   UNL     1       5.468   3.436  15.444  0.00  0.00    +0.000 A 
ATOM     26  C   UNL     1       6.169   4.378  16.205  0.00  0.00    +0.000 A 
ATOM     27  N   UNL     1       6.226   4.709  17.529  0.00  0.00    +0.000 N 
ATOM     28  H   UNL     1       7.699   6.705  19.435  0.00  0.00    +0.000 HD
ENDBRANCH  15  16
ENDBRANCH   1  15
TORSDOF 5
ENDMDL
MODEL 7
REMARK VINA RESULT:      -7.9      2.172      7.456
REMARK  Name = 
REMARK  7 active torsions:
REMARK  status: ('A' for Active; 'I' for Inactive)
REMARK    1  A    between atoms: C_1  and  C_2
REMARK    2  A    between atoms: C_5  and  C_6
REMARK    3  A    between atoms: C_6  and  N_7
REMARK    4  A    between atoms: C_8  and  C_10
REMARK    5  A    between atoms: C_10  and  C_11
REMARK    6  A    between atoms: C_10  and  S_12
REMARK    7  A    between atoms: S_12  and  C_13
REMARK                            x       y       z     vdW  Elec       q    Type
REMARK                         _______ _______ _______ _____ _____    ______ ____
ROOT
ATOM      1  C   UNL     1       1.755   4.375  19.208  0.00  0.00    +0.000 C 
ATOM      2  C   UNL     1       1.260   3.090  19.863  0.00  0.00    +0.000 C 
ENDROOT
BRANCH   1   4
ATOM      3  N   UNL     1       4.201   4.234  19.022  0.00  0.00    +0.000 N 
ATOM      4  C   UNL     1       3.000   4.062  18.364  0.00  0.00    +0.000 C 
ATOM      5  O   UNL     1       2.938   3.737  17.181  0.00  0.00    +0.000 OA
ATOM      6  H   UNL     1       4.217   4.433  20.013  0.00  0.00    +0.000 HD
BRANCH   3   7
ATOM      7  C   UNL     1       5.475   4.084  18.347  0.00  0.00    +0.000 C 
BRANCH   7  12
ATOM      8  C   UNL     1       8.487   9.041  17.740  0.00  0.00    +0.000 C 
ATOM      9  C   UNL     1       7.706   7.773  17.922  0.00  0.00    +0.000 A 
ATOM     10  C   UNL     1       8.105   6.804  18.849  0.00  0.00    +0.000 A 
ATOM     11  C   UNL     1       7.372   5.622  19.002  0.00  0.00    +0.000 A 
ATOM     12  C   UNL     1       6.225   5.388  18.232  0.00  0.00    +0.000 A 
ATOM     13  C   UNL     1       5.829   6.361  17.304  0.00  0.00    +0.000 A 
ATOM     14  C   UNL     1       6.561   7.541  17.152  0.00  0.00    +0.000 A 
ENDBRANCH   7  12
ENDBRANCH   3   7
ENDBRANCH   1   4
BRANCH   1  15
ATOM     15  S   UNL     1       2.138   5.646  20.489  0.00  0.00    +0.000 S 
BRANCH  15  16
ATOM     16  C   UNL     1       2.099   7.048  19.477  0.00  0.00    +0.000 A 
ATOM     17  N   UNL     1       2.648   7.092  18.283  0.00  0.00    +0.000 NA
ATOM     18  N   UNL     1       2.411   8.382  17.819  0.00  0.00    +0.000 N 
ATOM     19  C   UNL     1       1.764   9.109  18.737  0.00  0.00    +0.000 A 
ATOM     20  N   UNL     1       1.367  10.327  18.941  0.00  0.00    +0.000 NA
ATOM     21  C   UNL     1       0.779  10.254  20.192  0.00  0.00    +0.000 A 
ATOM     22  C   UNL     1       0.187  11.285  20.937  0.00  0.00    +0.000 A 
ATOM     23  C   UNL     1      -0.362  10.985  22.187  0.00  0.00    +0.000 A 
ATOM     24  C   UNL     1      -0.339   9.678  22.682  0.00  0.00    +0.000 A 
ATOM     25  C   UNL     1       0.258   8.629  21.967  0.00  0.00    +0.000 A 
ATOM     26  C   UNL     1       0.829   8.953  20.731  0.00  0.00    +0.000 A 
ATOM     27  N   UNL     1       1.524   8.271  19.773  0.00  0.00    +0.000 N 
ATOM     28  H   UNL     1       2.846   8.752  16.979  0.00  0.00    +0.000 HD
ENDBRANCH  15  16
ENDBRANCH   1  15
TORSDOF 5
ENDMDL
MODEL 8
REMARK VINA RESULT:      -7.8      4.175      7.324
REMARK  Name = 
REMARK  7 active torsions:
REMARK  status: ('A' for Active; 'I' for Inactive)
REMARK    1  A    between atoms: C_1  and  C_2
REMARK    2  A    between atoms: C_5  and  C_6
REMARK    3  A    between atoms: C_6  and  N_7
REMARK    4  A    between atoms: C_8  and  C_10
REMARK    5  A    between atoms: C_10  and  C_11
REMARK    6  A    between atoms: C_10  and  S_12
REMARK    7  A    between atoms: S_12  and  C_13
REMARK                            x       y       z     vdW  Elec       q    Type
REMARK                         _______ _______ _______ _____ _____    ______ ____
ROOT
ATOM      1  C   UNL     1       7.572   5.436  18.017  0.00  0.00    +0.000 C 
ATOM      2  C   UNL     1       7.296   5.668  19.499  0.00  0.00    +0.000 C 
ENDROOT
BRANCH   1   4
ATOM      3  N   UNL     1       7.751   7.881  18.168  0.00  0.00    +0.000 N 
ATOM      4  C   UNL     1       7.745   6.793  17.319  0.00  0.00    +0.000 C 
ATOM      5  O   UNL     1       7.818   6.910  16.098  0.00  0.00    +0.000 OA
ATOM      6  H   UNL     1       7.760   7.748  19.170  0.00  0.00    +0.000 HD
BRANCH   3   7
ATOM      7  C   UNL     1       7.800   9.242  17.671  0.00  0.00    +0.000 C 
BRANCH   7  12
ATOM      8  C   UNL     1      11.974  12.503  20.112  0.00  0.00    +0.000 C 
ATOM      9  C   UNL     1      10.919  11.651  19.471  0.00  0.00    +0.000 A 
ATOM     10  C   UNL     1      10.736  11.646  18.084  0.00  0.00    +0.000 A 
ATOM     11  C   UNL     1       9.743  10.852  17.501  0.00  0.00    +0.000 A 
ATOM     12  C   UNL     1       8.915  10.044  18.293  0.00  0.00    +0.000 A 
ATOM     13  C   UNL     1       9.102  10.053  19.683  0.00  0.00    +0.000 A 
ATOM     14  C   UNL     1      10.094  10.846  20.265  0.00  0.00    +0.000 A 
ENDBRANCH   7  12
ENDBRANCH   3   7
ENDBRANCH   1   4
BRANCH   1  15
ATOM     15  S   UNL     1       6.198   4.476  17.247  0.00  0.00    +0.000 S 
BRANCH  15  16
ATOM     16  C   UNL     1       4.888   5.527  17.665  0.00  0.00    +0.000 A 
ATOM     17  N   UNL     1       4.712   6.711  17.123  0.00  0.00    +0.000 NA
ATOM     18  N   UNL     1       3.575   7.228  17.735  0.00  0.00    +0.000 N 
ATOM     19  C   UNL     1       3.101   6.381  18.656  0.00  0.00    +0.000 A 
ATOM     20  N   UNL     1       2.189   6.322  19.577  0.00  0.00    +0.000 NA
ATOM     21  C   UNL     1       2.382   5.064  20.121  0.00  0.00    +0.000 A 
ATOM     22  C   UNL     1       1.686   4.458  21.178  0.00  0.00    +0.000 A 
ATOM     23  C   UNL     1       2.040   3.161  21.563  0.00  0.00    +0.000 A 
ATOM     24  C   UNL     1       3.058   2.472  20.898  0.00  0.00    +0.000 A 
ATOM     25  C   UNL     1       3.781   3.057  19.847  0.00  0.00    +0.000 A 
ATOM     26  C   UNL     1       3.432   4.365  19.494  0.00  0.00    +0.000 A 
ATOM     27  N   UNL     1       3.895   5.285  18.597  0.00  0.00    +0.000 N 
ATOM     28  H   UNL     1       3.280   8.194  17.620  0.00  0.00    +0.000 HD
ENDBRANCH  15  16
ENDBRANCH   1  15
TORSDOF 5
ENDMDL
MODEL 9
REMARK VINA RESULT:      -7.8      1.839      2.592
REMARK  Name = 
REMARK  7 active torsions:
REMARK  status: ('A' for Active; 'I' for Inactive)
REMARK    1  A    between atoms: C_1  and  C_2
REMARK    2  A    between atoms: C_5  and  C_6
REMARK    3  A    between atoms: C_6  and  N_7
REMARK    4  A    between atoms: C_8  and  C_10
REMARK    5  A    between atoms: C_10  and  C_11
REMARK    6  A    between atoms: C_10  and  S_12
REMARK    7  A    between atoms: S_12  and  C_13
REMARK                            x       y       z     vdW  Elec       q    Type
REMARK                         _______ _______ _______ _____ _____    ______ ____
ROOT
ATOM      1  C   UNL     1       3.402   2.769  18.302  0.00  0.00    +0.000 C 
ATOM      2  C   UNL     1       2.446   1.582  18.232  0.00  0.00    +0.000 C 
ENDROOT
BRANCH   1   4
ATOM      3  N   UNL     1       2.357   4.667  19.460  0.00  0.00    +0.000 N 
ATOM      4  C   UNL     1       3.147   3.544  19.603  0.00  0.00    +0.000 C 
ATOM      5  O   UNL     1       3.648   3.224  20.679  0.00  0.00    +0.000 OA
ATOM      6  H   UNL     1       1.903   4.863  18.578  0.00  0.00    +0.000 HD
BRANCH   3   7
ATOM      7  C   UNL     1       2.102   5.571  20.563  0.00  0.00    +0.000 C 
BRANCH   7  12
ATOM      8  C   UNL     1       1.017  10.998  18.721  0.00  0.00    +0.000 C 
ATOM      9  C   UNL     1       1.323   9.607  19.194  0.00  0.00    +0.000 A 
ATOM     10  C   UNL     1       2.036   8.709  18.391  0.00  0.00    +0.000 A 
ATOM     11  C   UNL     1       2.306   7.413  18.842  0.00  0.00    +0.000 A 
ATOM     12  C   UNL     1       1.871   6.990  20.106  0.00  0.00    +0.000 A 
ATOM     13  C   UNL     1       1.156   7.892  20.906  0.00  0.00    +0.000 A 
ATOM     14  C   UNL     1       0.887   9.187  20.455  0.00  0.00    +0.000 A 
ENDBRANCH   7  12
ENDBRANCH   3   7
ENDBRANCH   1   4
BRANCH   1  15
ATOM     15  S   UNL     1       3.180   3.864  16.835  0.00  0.00    +0.000 S 
BRANCH  15  16
ATOM     16  C   UNL     1       4.719   4.653  16.870  0.00  0.00    +0.000 A 
ATOM     17  N   UNL     1       5.173   5.303  17.918  0.00  0.00    +0.000 NA
ATOM     18  N   UNL     1       6.417   5.794  17.534  0.00  0.00    +0.000 N 
ATOM     19  C   UNL     1       6.685   5.474  16.262  0.00  0.00    +0.000 A 
ATOM     20  N   UNL     1       7.573   5.704  15.345  0.00  0.00    +0.000 NA
ATOM     21  C   UNL     1       7.085   4.998  14.260  0.00  0.00    +0.000 A 
ATOM     22  C   UNL     1       7.630   4.898  12.970  0.00  0.00    +0.000 A 
ATOM     23  C   UNL     1       6.972   4.113  12.018  0.00  0.00    +0.000 A 
ATOM     24  C   UNL     1       5.800   3.426  12.347  0.00  0.00    +0.000 A 
ATOM     25  C   UNL     1       5.223   3.518  13.623  0.00  0.00    +0.000 A 
ATOM     26  C   UNL     1       5.879   4.331  14.554  0.00  0.00    +0.000 A 
ATOM     27  N   UNL     1       5.642   4.720  15.841  0.00  0.00    +0.000 N 
ATOM     28  H   UNL     1       6.941   6.461  18.093  0.00  0.00    +0.000 HD
ENDBRANCH  15  16
ENDBRANCH   1  15
TORSDOF 5
ENDMDL
