MODEL 1
REMARK VINA RESULT:      -8.7      0.000      0.000
REMARK  Name = 
REMARK  4 active torsions:
REMARK  status: ('A' for Active; 'I' for Inactive)
REMARK    1  A    between atoms: C_2  and  C_10
REMARK    2  A    between atoms: C_12  and  S_13
REMARK    3  A    between atoms: S_13  and  N_16
REMARK    4  A    between atoms: C_24  and  O_25
REMARK                            x       y       z     vdW  Elec       q    Type
REMARK                         _______ _______ _______ _____ _____    ______ ____
ROOT
ATOM      1  C   UNL     1       7.757   7.047  18.291  0.00  0.00    +0.000 A 
ATOM      2  C   UNL     1       6.969   6.135  17.612  0.00  0.00    +0.000 A 
ATOM      3  C   UNL     1       6.623   5.102  18.516  0.00  0.00    +0.000 A 
ATOM      4  C   UNL     1       7.440   5.252  19.625  0.00  0.00    +0.000 A 
ATOM      5  N   UNL     1       8.190   6.397  19.434  0.00  0.00    +0.000 N 
ATOM      6  H   UNL     1       8.828   6.812  20.101  0.00  0.00    +0.000 HD
ENDROOT
BRANCH   1   8
ATOM      7  O   UNL     1       7.803   8.913  16.904  0.00  0.00    +0.000 OA
ATOM      8  C   UNL     1       8.049   8.465  18.007  0.00  0.00    +0.000 C 
ATOM      9  N   UNL     1       8.663   9.076  19.076  0.00  0.00    +0.000 N 
ATOM     10  C   UNL     1       9.366  10.287  19.040  0.00  0.00    +0.000 A 
ATOM     11  C   UNL     1       9.876  10.723  20.276  0.00  0.00    +0.000 A 
ATOM     12  C   UNL     1      10.652  11.877  20.315  0.00  0.00    +0.000 A 
ATOM     13  C   UNL     1      10.886  12.570  19.143  0.00  0.00    +0.000 A 
ATOM     14  C   UNL     1      10.346  12.074  17.980  0.00  0.00    +0.000 A 
ATOM     15  N   UNL     1       9.606  10.938  17.916  0.00  0.00    +0.000 NA
ATOM     16  H   UNL     1       8.717   8.559  19.935  0.00  0.00    +0.000 HD
ENDBRANCH   1   8
BRANCH   3  17
ATOM     17  S   UNL     1       5.299   4.011  18.195  0.00  0.00    +0.000 S 
ATOM     18  O   UNL     1       5.354   3.891  16.770  0.00  0.00    +0.000 OA
ATOM     19  O   UNL     1       5.552   2.900  19.078  0.00  0.00    +0.000 OA
BRANCH  17  20
ATOM     20  N   UNL     1       3.852   4.716  18.596  0.00  0.00    +0.000 NA
ATOM     21  C   UNL     1       3.725   5.474  19.861  0.00  0.00    +0.000 C 
ATOM     22  C   UNL     1       2.395   5.043  20.444  0.00  0.00    +0.000 C 
ATOM     23  C   UNL     1       2.410   3.669  21.099  0.00  0.00    +0.000 C 
ATOM     24  C   UNL     1       1.757   2.695  20.020  0.00  0.00    +0.000 C 
ATOM     25  C   UNL     1       0.657   3.715  19.601  0.00  0.00    +0.000 C 
ATOM     26  C   UNL     1       1.572   4.823  19.175  0.00  0.00    +0.000 C 
ATOM     27  C   UNL     1       2.555   4.095  18.194  0.00  0.00    +0.000 C 
ATOM     28  C   UNL     1       2.214   2.581  18.518  0.00  0.00    +0.000 C 
BRANCH  28  29
ATOM     29  O   UNL     1       3.132   1.482  18.425  0.00  0.00    +0.000 OA
ATOM     30  H   UNL     1       2.861   0.957  17.629  0.00  0.00    +0.000 HD
ENDBRANCH  28  29
ENDBRANCH  17  20
ENDBRANCH   3  17
TORSDOF 4
ENDMDL
MODEL 2
REMARK VINA RESULT:      -8.7      0.969      1.022
REMARK  Name = 
REMARK  4 active torsions:
REMARK  status: ('A' for Active; 'I' for Inactive)
REMARK    1  A    between atoms: C_2  and  C_10
REMARK    2  A    between atoms: C_12  and  S_13
REMARK    3  A    between atoms: S_13  and  N_16
REMARK    4  A    between atoms: C_24  and  O_25
REMARK                            x       y       z     vdW  Elec       q    Type
REMARK                         _______ _______ _______ _____ _____    ______ ____
ROOT
ATOM      1  C   UNL     1       8.017   7.817  18.153  0.00  0.00    +0.000 A 
ATOM      2  C   UNL     1       7.345   6.900  17.366  0.00  0.00    +0.000 A 
ATOM      3  C   UNL     1       7.132   5.735  18.141  0.00  0.00    +0.000 A 
ATOM      4  C   UNL     1       7.928   5.856  19.270  0.00  0.00    +0.000 A 
ATOM      5  N   UNL     1       8.530   7.099  19.219  0.00  0.00    +0.000 N 
ATOM      6  H   UNL     1       9.114   7.511  19.936  0.00  0.00    +0.000 HD
ENDROOT
BRANCH   1   8
ATOM      7  O   UNL     1       7.490   9.864  17.180  0.00  0.00    +0.000 OA
ATOM      8  C   UNL     1       8.130   9.284  18.036  0.00  0.00    +0.000 C 
ATOM      9  N   UNL     1       9.058   9.789  18.918  0.00  0.00    +0.000 N 
ATOM     10  C   UNL     1       9.652  11.055  18.853  0.00  0.00    +0.000 A 
ATOM     11  C   UNL     1      10.550  11.353  19.895  0.00  0.00    +0.000 A 
ATOM     12  C   UNL     1      11.241  12.559  19.864  0.00  0.00    +0.000 A 
ATOM     13  C   UNL     1      11.014  13.437  18.821  0.00  0.00    +0.000 A 
ATOM     14  C   UNL     1      10.117  13.068  17.848  0.00  0.00    +0.000 A 
ATOM     15  N   UNL     1       9.450  11.886  17.846  0.00  0.00    +0.000 NA
ATOM     16  H   UNL     1       9.434   9.158  19.602  0.00  0.00    +0.000 HD
ENDBRANCH   1   8
BRANCH   3  17
ATOM     17  S   UNL     1       5.953   4.533  17.684  0.00  0.00    +0.000 S 
ATOM     18  O   UNL     1       6.242   4.350  16.294  0.00  0.00    +0.000 OA
ATOM     19  O   UNL     1       6.135   3.488  18.659  0.00  0.00    +0.000 OA
BRANCH  17  20
ATOM     20  N   UNL     1       4.416   5.145  17.812  0.00  0.00    +0.000 NA
ATOM     21  C   UNL     1       4.047   5.976  18.981  0.00  0.00    +0.000 C 
ATOM     22  C   UNL     1       2.677   5.480  19.396  0.00  0.00    +0.000 C 
ATOM     23  C   UNL     1       2.688   4.159  20.153  0.00  0.00    +0.000 C 
ATOM     24  C   UNL     1       2.275   3.065  19.071  0.00  0.00    +0.000 C 
ATOM     25  C   UNL     1       1.183   3.962  18.417  0.00  0.00    +0.000 C 
ATOM     26  C   UNL     1       2.073   5.109  18.043  0.00  0.00    +0.000 C 
ATOM     27  C   UNL     1       3.241   4.397  17.276  0.00  0.00    +0.000 C 
ATOM     28  C   UNL     1       2.960   2.885  17.666  0.00  0.00    +0.000 C 
BRANCH  28  29
ATOM     29  O   UNL     1       3.956   1.860  17.796  0.00  0.00    +0.000 OA
ATOM     30  H   UNL     1       3.673   1.119  17.201  0.00  0.00    +0.000 HD
ENDBRANCH  28  29
ENDBRANCH  17  20
ENDBRANCH   3  17
TORSDOF 4
ENDMDL
MODEL 3
REMARK VINA RESULT:      -8.6      1.567      2.260
REMARK  Name = 
REMARK  4 active torsions:
REMARK  status: ('A' for Active; 'I' for Inactive)
REMARK    1  A    between atoms: C_2  and  C_10
REMARK    2  A    between atoms: C_12  and  S_13
REMARK    3  A    between atoms: S_13  and  N_16
REMARK    4  A    between atoms: C_24  and  O_25
REMARK                            x       y       z     vdW  Elec       q    Type
REMARK                         _______ _______ _______ _____ _____    ______ ____
ROOT
ATOM      1  C   UNL     1       7.983   7.966  17.970  0.00  0.00    +0.000 A 
ATOM      2  C   UNL     1       7.362   7.190  17.008  0.00  0.00    +0.000 A 
ATOM      3  C   UNL     1       7.038   5.945  17.596  0.00  0.00    +0.000 A 
ATOM      4  C   UNL     1       7.723   5.881  18.799  0.00  0.00    +0.000 A 
ATOM      5  N   UNL     1       8.367   7.092  18.972  0.00  0.00    +0.000 N 
ATOM      6  H   UNL     1       8.892   7.380  19.788  0.00  0.00    +0.000 HD
ENDROOT
BRANCH   1   8
ATOM      7  O   UNL     1       7.544  10.149  17.296  0.00  0.00    +0.000 OA
ATOM      8  C   UNL     1       8.154   9.428  18.063  0.00  0.00    +0.000 C 
ATOM      9  N   UNL     1       9.094   9.766  19.009  0.00  0.00    +0.000 N 
ATOM     10  C   UNL     1       9.737  11.005  19.126  0.00  0.00    +0.000 A 
ATOM     11  C   UNL     1      10.638  11.116  20.201  0.00  0.00    +0.000 A 
ATOM     12  C   UNL     1      11.375  12.287  20.343  0.00  0.00    +0.000 A 
ATOM     13  C   UNL     1      11.191  13.312  19.436  0.00  0.00    +0.000 A 
ATOM     14  C   UNL     1      10.288  13.119  18.417  0.00  0.00    +0.000 A 
ATOM     15  N   UNL     1       9.576  11.977  18.246  0.00  0.00    +0.000 NA
ATOM     16  H   UNL     1       9.440   9.031  19.598  0.00  0.00    +0.000 HD
ENDBRANCH   1   8
BRANCH   3  17
ATOM     17  S   UNL     1       5.870   4.867  16.874  0.00  0.00    +0.000 S 
ATOM     18  O   UNL     1       5.064   5.773  16.114  0.00  0.00    +0.000 OA
ATOM     19  O   UNL     1       6.682   3.847  16.260  0.00  0.00    +0.000 OA
BRANCH  17  20
ATOM     20  N   UNL     1       4.910   4.181  18.041  0.00  0.00    +0.000 NA
ATOM     21  C   UNL     1       4.052   3.022  17.703  0.00  0.00    +0.000 C 
ATOM     22  C   UNL     1       2.723   3.312  18.370  0.00  0.00    +0.000 C 
ATOM     23  C   UNL     1       1.867   4.342  17.648  0.00  0.00    +0.000 C 
ATOM     24  C   UNL     1       2.076   5.693  18.466  0.00  0.00    +0.000 C 
ATOM     25  C   UNL     1       2.033   4.990  19.855  0.00  0.00    +0.000 C 
ATOM     26  C   UNL     1       3.178   4.048  19.630  0.00  0.00    +0.000 C 
ATOM     27  C   UNL     1       4.316   5.006  19.133  0.00  0.00    +0.000 C 
ATOM     28  C   UNL     1       3.474   6.316  18.832  0.00  0.00    +0.000 C 
BRANCH  28  29
ATOM     29  O   UNL     1       3.789   7.296  17.831  0.00  0.00    +0.000 OA
ATOM     30  H   UNL     1       3.233   8.091  18.034  0.00  0.00    +0.000 HD
ENDBRANCH  28  29
ENDBRANCH  17  20
ENDBRANCH   3  17
TORSDOF 4
ENDMDL
MODEL 4
REMARK VINA RESULT:      -8.6      1.277      1.624
REMARK  Name = 
REMARK  4 active torsions:
REMARK  status: ('A' for Active; 'I' for Inactive)
REMARK    1  A    between atoms: C_2  and  C_10
REMARK    2  A    between atoms: C_12  and  S_13
REMARK    3  A    between atoms: S_13  and  N_16
REMARK    4  A    between atoms: C_24  and  O_25
REMARK                            x       y       z     vdW  Elec       q    Type
REMARK                         _______ _______ _______ _____ _____    ______ ____
ROOT
ATOM      1  C   UNL     1       7.181   6.993  17.678  0.00  0.00    +0.000 A 
ATOM      2  C   UNL     1       6.081   6.345  18.211  0.00  0.00    +0.000 A 
ATOM      3  C   UNL     1       5.742   5.279  17.344  0.00  0.00    +0.000 A 
ATOM      4  C   UNL     1       6.448   5.481  16.169  0.00  0.00    +0.000 A 
ATOM      5  N   UNL     1       7.258   6.584  16.358  0.00  0.00    +0.000 N 
ATOM      6  H   UNL     1       7.947   6.941  15.707  0.00  0.00    +0.000 HD
ENDROOT
BRANCH   1   8
ATOM      7  O   UNL     1       8.865   7.424  19.224  0.00  0.00    +0.000 OA
ATOM      8  C   UNL     1       8.186   7.864  18.316  0.00  0.00    +0.000 C 
ATOM      9  N   UNL     1       8.143   9.141  17.805  0.00  0.00    +0.000 N 
ATOM     10  C   UNL     1       8.704  10.282  18.391  0.00  0.00    +0.000 A 
ATOM     11  C   UNL     1       8.555  11.471  17.654  0.00  0.00    +0.000 A 
ATOM     12  C   UNL     1       9.016  12.664  18.201  0.00  0.00    +0.000 A 
ATOM     13  C   UNL     1       9.621  12.645  19.443  0.00  0.00    +0.000 A 
ATOM     14  C   UNL     1       9.728  11.438  20.092  0.00  0.00    +0.000 A 
ATOM     15  N   UNL     1       9.264  10.267  19.587  0.00  0.00    +0.000 NA
ATOM     16  H   UNL     1       7.561   9.296  17.002  0.00  0.00    +0.000 HD
ENDBRANCH   1   8
BRANCH   3  17
ATOM     17  S   UNL     1       4.716   3.967  17.864  0.00  0.00    +0.000 S 
ATOM     18  O   UNL     1       4.372   3.351  16.619  0.00  0.00    +0.000 OA
ATOM     19  O   UNL     1       5.503   3.298  18.870  0.00  0.00    +0.000 OA
BRANCH  17  20
ATOM     20  N   UNL     1       3.323   4.551  18.551  0.00  0.00    +0.000 NA
ATOM     21  C   UNL     1       3.387   5.297  19.829  0.00  0.00    +0.000 C 
ATOM     22  C   UNL     1       2.236   4.759  20.653  0.00  0.00    +0.000 C 
ATOM     23  C   UNL     1       2.490   3.391  21.271  0.00  0.00    +0.000 C 
ATOM     24  C   UNL     1       1.718   2.366  20.326  0.00  0.00    +0.000 C 
ATOM     25  C   UNL     1       0.479   3.292  20.146  0.00  0.00    +0.000 C 
ATOM     26  C   UNL     1       1.201   4.472  19.567  0.00  0.00    +0.000 C 
ATOM     27  C   UNL     1       2.028   3.826  18.401  0.00  0.00    +0.000 C 
ATOM     28  C   UNL     1       1.879   2.289  18.762  0.00  0.00    +0.000 C 
BRANCH  28  29
ATOM     29  O   UNL     1       2.847   1.269  18.475  0.00  0.00    +0.000 OA
ATOM     30  H   UNL     1       3.733   1.713  18.490  0.00  0.00    +0.000 HD
ENDBRANCH  28  29
ENDBRANCH  17  20
ENDBRANCH   3  17
TORSDOF 4
ENDMDL
MODEL 5
REMARK VINA RESULT:      -8.5      1.777      2.324
REMARK  Name = 
REMARK  4 active torsions:
REMARK  status: ('A' for Active; 'I' for Inactive)
REMARK    1  A    between atoms: C_2  and  C_10
REMARK    2  A    between atoms: C_12  and  S_13
REMARK    3  A    between atoms: S_13  and  N_16
REMARK    4  A    between atoms: C_24  and  O_25
REMARK                            x       y       z     vdW  Elec       q    Type
REMARK                         _______ _______ _______ _____ _____    ______ ____
ROOT
ATOM      1  C   UNL     1       7.166   7.217  17.438  0.00  0.00    +0.000 A 
ATOM      2  C   UNL     1       5.797   7.111  17.607  0.00  0.00    +0.000 A 
ATOM      3  C   UNL     1       5.372   5.918  16.974  0.00  0.00    +0.000 A 
ATOM      4  C   UNL     1       6.430   5.483  16.192  0.00  0.00    +0.000 A 
ATOM      5  N   UNL     1       7.492   6.338  16.420  0.00  0.00    +0.000 N 
ATOM      6  H   UNL     1       8.429   6.241  16.049  0.00  0.00    +0.000 HD
ENDROOT
BRANCH   1   8
ATOM      7  O   UNL     1       8.757   7.449  19.119  0.00  0.00    +0.000 OA
ATOM      8  C   UNL     1       8.172   7.984  18.197  0.00  0.00    +0.000 C 
ATOM      9  N   UNL     1       8.241   9.289  17.766  0.00  0.00    +0.000 N 
ATOM     10  C   UNL     1       8.823  10.356  18.460  0.00  0.00    +0.000 A 
ATOM     11  C   UNL     1       8.797  11.594  17.791  0.00  0.00    +0.000 A 
ATOM     12  C   UNL     1       9.286  12.721  18.443  0.00  0.00    +0.000 A 
ATOM     13  C   UNL     1       9.798  12.591  19.720  0.00  0.00    +0.000 A 
ATOM     14  C   UNL     1       9.788  11.344  20.296  0.00  0.00    +0.000 A 
ATOM     15  N   UNL     1       9.294  10.235  19.688  0.00  0.00    +0.000 NA
ATOM     16  H   UNL     1       7.728   9.527  16.936  0.00  0.00    +0.000 HD
ENDBRANCH   1   8
BRANCH   3  17
ATOM     17  S   UNL     1       3.824   5.195  17.329  0.00  0.00    +0.000 S 
ATOM     18  O   UNL     1       2.956   6.332  17.307  0.00  0.00    +0.000 OA
ATOM     19  O   UNL     1       3.723   4.122  16.372  0.00  0.00    +0.000 OA
BRANCH  17  20
ATOM     20  N   UNL     1       3.811   4.569  18.865  0.00  0.00    +0.000 NA
ATOM     21  C   UNL     1       4.788   3.522  19.245  0.00  0.00    +0.000 C 
ATOM     22  C   UNL     1       3.986   2.505  20.030  0.00  0.00    +0.000 C 
ATOM     23  C   UNL     1       3.119   1.591  19.176  0.00  0.00    +0.000 C 
ATOM     24  C   UNL     1       1.649   2.194  19.296  0.00  0.00    +0.000 C 
ATOM     25  C   UNL     1       1.778   2.501  20.817  0.00  0.00    +0.000 C 
ATOM     26  C   UNL     1       2.971   3.406  20.732  0.00  0.00    +0.000 C 
ATOM     27  C   UNL     1       2.538   4.437  19.632  0.00  0.00    +0.000 C 
ATOM     28  C   UNL     1       1.269   3.698  19.032  0.00  0.00    +0.000 C 
BRANCH  28  29
ATOM     29  O   UNL     1       0.812   3.799  17.675  0.00  0.00    +0.000 OA
ATOM     30  H   UNL     1       0.589   4.754  17.526  0.00  0.00    +0.000 HD
ENDBRANCH  28  29
ENDBRANCH  17  20
ENDBRANCH   3  17
TORSDOF 4
ENDMDL
MODEL 6
REMARK VINA RESULT:      -8.5      5.397      7.882
REMARK  Name = 
REMARK  4 active torsions:
REMARK  status: ('A' for Active; 'I' for Inactive)
REMARK    1  A    between atoms: C_2  and  C_10
REMARK    2  A    between atoms: C_12  and  S_13
REMARK    3  A    between atoms: S_13  and  N_16
REMARK    4  A    between atoms: C_24  and  O_25
REMARK                            x       y       z     vdW  Elec       q    Type
REMARK                         _______ _______ _______ _____ _____    ______ ____
ROOT
ATOM      1  C   UNL     1       0.844   9.475  19.520  0.00  0.00    +0.000 A 
ATOM      2  C   UNL     1       1.737   8.742  18.758  0.00  0.00    +0.000 A 
ATOM      3  C   UNL     1       2.188   7.654  19.544  0.00  0.00    +0.000 A 
ATOM      4  C   UNL     1       1.794   7.913  20.847  0.00  0.00    +0.000 A 
ATOM      5  N   UNL     1       1.047   9.076  20.829  0.00  0.00    +0.000 N 
ATOM      6  H   UNL     1       0.559   9.487  21.616  0.00  0.00    +0.000 HD
ENDROOT
BRANCH   1   8
ATOM      7  O   UNL     1      -0.528  11.320  19.872  0.00  0.00    +0.000 OA
ATOM      8  C   UNL     1      -0.214  10.421  19.116  0.00  0.00    +0.000 C 
ATOM      9  N   UNL     1      -0.767  10.071  17.906  0.00  0.00    +0.000 N 
ATOM     10  C   UNL     1      -1.987  10.532  17.394  0.00  0.00    +0.000 A 
ATOM     11  C   UNL     1      -2.321  10.052  16.115  0.00  0.00    +0.000 A 
ATOM     12  C   UNL     1      -3.551  10.400  15.565  0.00  0.00    +0.000 A 
ATOM     13  C   UNL     1      -4.400  11.219  16.284  0.00  0.00    +0.000 A 
ATOM     14  C   UNL     1      -3.991  11.645  17.525  0.00  0.00    +0.000 A 
ATOM     15  N   UNL     1      -2.807  11.298  18.090  0.00  0.00    +0.000 NA
ATOM     16  H   UNL     1      -0.322   9.332  17.392  0.00  0.00    +0.000 HD
ENDBRANCH   1   8
BRANCH   3  17
ATOM     17  S   UNL     1       2.961   6.265  18.826  0.00  0.00    +0.000 S 
ATOM     18  O   UNL     1       3.179   6.709  17.484  0.00  0.00    +0.000 OA
ATOM     19  O   UNL     1       4.042   5.970  19.733  0.00  0.00    +0.000 OA
BRANCH  17  20
ATOM     20  N   UNL     1       1.916   4.976  18.776  0.00  0.00    +0.000 NA
ATOM     21  C   UNL     1       1.172   4.581  19.994  0.00  0.00    +0.000 C 
ATOM     22  C   UNL     1       1.259   3.070  20.033  0.00  0.00    +0.000 C 
ATOM     23  C   UNL     1       2.601   2.528  20.501  0.00  0.00    +0.000 C 
ATOM     24  C   UNL     1       3.358   2.101  19.165  0.00  0.00    +0.000 C 
ATOM     25  C   UNL     1       2.084   1.495  18.505  0.00  0.00    +0.000 C 
ATOM     26  C   UNL     1       1.239   2.734  18.543  0.00  0.00    +0.000 C 
ATOM     27  C   UNL     1       2.178   3.806  17.888  0.00  0.00    +0.000 C 
ATOM     28  C   UNL     1       3.560   3.028  17.910  0.00  0.00    +0.000 C 
BRANCH  28  29
ATOM     29  O   UNL     1       4.856   3.636  18.023  0.00  0.00    +0.000 OA
ATOM     30  H   UNL     1       4.700   4.613  18.090  0.00  0.00    +0.000 HD
ENDBRANCH  28  29
ENDBRANCH  17  20
ENDBRANCH   3  17
TORSDOF 4
ENDMDL
MODEL 7
REMARK VINA RESULT:      -8.4      4.270      5.860
REMARK  Name = 
REMARK  4 active torsions:
REMARK  status: ('A' for Active; 'I' for Inactive)
REMARK    1  A    between atoms: C_2  and  C_10
REMARK    2  A    between atoms: C_12  and  S_13
REMARK    3  A    between atoms: S_13  and  N_16
REMARK    4  A    between atoms: C_24  and  O_25
REMARK                            x       y       z     vdW  Elec       q    Type
REMARK                         _______ _______ _______ _____ _____    ______ ____
ROOT
ATOM      1  C   UNL     1       3.027   7.696  17.785  0.00  0.00    +0.000 A 
ATOM      2  C   UNL     1       3.223   6.420  18.282  0.00  0.00    +0.000 A 
ATOM      3  C   UNL     1       4.504   5.984  17.867  0.00  0.00    +0.000 A 
ATOM      4  C   UNL     1       4.931   6.873  16.893  0.00  0.00    +0.000 A 
ATOM      5  N   UNL     1       3.976   7.866  16.792  0.00  0.00    +0.000 N 
ATOM      6  H   UNL     1       4.035   8.698  16.218  0.00  0.00    +0.000 HD
ENDROOT
BRANCH   1   8
ATOM      7  O   UNL     1       2.010   9.775  17.546  0.00  0.00    +0.000 OA
ATOM      8  C   UNL     1       2.108   8.766  18.219  0.00  0.00    +0.000 C 
ATOM      9  N   UNL     1       1.528   8.471  19.431  0.00  0.00    +0.000 N 
ATOM     10  C   UNL     1       0.884   9.381  20.279  0.00  0.00    +0.000 A 
ATOM     11  C   UNL     1       0.340   8.827  21.452  0.00  0.00    +0.000 A 
ATOM     12  C   UNL     1      -0.249   9.674  22.385  0.00  0.00    +0.000 A 
ATOM     13  C   UNL     1      -0.298  11.030  22.127  0.00  0.00    +0.000 A 
ATOM     14  C   UNL     1       0.256  11.485  20.954  0.00  0.00    +0.000 A 
ATOM     15  N   UNL     1       0.856  10.680  20.041  0.00  0.00    +0.000 NA
ATOM     16  H   UNL     1       1.677   7.550  19.801  0.00  0.00    +0.000 HD
ENDBRANCH   1   8
BRANCH   3  17
ATOM     17  S   UNL     1       5.308   4.641  18.636  0.00  0.00    +0.000 S 
ATOM     18  O   UNL     1       6.429   4.433  17.772  0.00  0.00    +0.000 OA
ATOM     19  O   UNL     1       5.452   5.068  20.005  0.00  0.00    +0.000 OA
BRANCH  17  20
ATOM     20  N   UNL     1       4.358   3.282  18.580  0.00  0.00    +0.000 NA
ATOM     21  C   UNL     1       3.660   2.920  17.324  0.00  0.00    +0.000 C 
ATOM     22  C   UNL     1       2.266   2.512  17.755  0.00  0.00    +0.000 C 
ATOM     23  C   UNL     1       1.348   3.675  18.102  0.00  0.00    +0.000 C 
ATOM     24  C   UNL     1       1.349   3.736  19.694  0.00  0.00    +0.000 C 
ATOM     25  C   UNL     1       1.295   2.189  19.864  0.00  0.00    +0.000 C 
ATOM     26  C   UNL     1       2.551   1.868  19.111  0.00  0.00    +0.000 C 
ATOM     27  C   UNL     1       3.604   2.819  19.781  0.00  0.00    +0.000 C 
ATOM     28  C   UNL     1       2.641   3.784  20.592  0.00  0.00    +0.000 C 
BRANCH  28  29
ATOM     29  O   UNL     1       2.908   5.161  20.897  0.00  0.00    +0.000 OA
ATOM     30  H   UNL     1       2.026   5.590  21.044  0.00  0.00    +0.000 HD
ENDBRANCH  28  29
ENDBRANCH  17  20
ENDBRANCH   3  17
TORSDOF 4
ENDMDL
MODEL 8
REMARK VINA RESULT:      -8.4      1.234      1.611
REMARK  Name = 
REMARK  4 active torsions:
REMARK  status: ('A' for Active; 'I' for Inactive)
REMARK    1  A    between atoms: C_2  and  C_10
REMARK    2  A    between atoms: C_12  and  S_13
REMARK    3  A    between atoms: S_13  and  N_16
REMARK    4  A    between atoms: C_24  and  O_25
REMARK                            x       y       z     vdW  Elec       q    Type
REMARK                         _______ _______ _______ _____ _____    ______ ____
ROOT
ATOM      1  C   UNL     1       7.737   7.427  18.101  0.00  0.00    +0.000 A 
ATOM      2  C   UNL     1       6.736   6.751  17.426  0.00  0.00    +0.000 A 
ATOM      3  C   UNL     1       6.290   5.694  18.257  0.00  0.00    +0.000 A 
ATOM      4  C   UNL     1       7.219   5.570  19.278  0.00  0.00    +0.000 A 
ATOM      5  N   UNL     1       8.146   6.582  19.118  0.00  0.00    +0.000 N 
ATOM      6  H   UNL     1       8.908   6.801  19.748  0.00  0.00    +0.000 HD
ENDROOT
BRANCH   1   8
ATOM      7  O   UNL     1       8.369   9.253  16.805  0.00  0.00    +0.000 OA
ATOM      8  C   UNL     1       8.258   8.796  17.927  0.00  0.00    +0.000 C 
ATOM      9  N   UNL     1       8.633   9.349  19.130  0.00  0.00    +0.000 N 
ATOM     10  C   UNL     1       9.457  10.468  19.301  0.00  0.00    +0.000 A 
ATOM     11  C   UNL     1       9.667  10.861  20.635  0.00  0.00    +0.000 A 
ATOM     12  C   UNL     1      10.534  11.917  20.897  0.00  0.00    +0.000 A 
ATOM     13  C   UNL     1      11.151  12.559  19.840  0.00  0.00    +0.000 A 
ATOM     14  C   UNL     1      10.885  12.111  18.568  0.00  0.00    +0.000 A 
ATOM     15  N   UNL     1      10.062  11.068  18.291  0.00  0.00    +0.000 NA
ATOM     16  H   UNL     1       8.395   8.842  19.963  0.00  0.00    +0.000 HD
ENDBRANCH   1   8
BRANCH   3  17
ATOM     17  S   UNL     1       4.765   4.894  17.979  0.00  0.00    +0.000 S 
ATOM     18  O   UNL     1       3.937   5.978  17.549  0.00  0.00    +0.000 OA
ATOM     19  O   UNL     1       5.111   3.791  17.118  0.00  0.00    +0.000 OA
BRANCH  17  20
ATOM     20  N   UNL     1       4.145   4.309  19.403  0.00  0.00    +0.000 NA
ATOM     21  C   UNL     1       4.545   2.967  19.887  0.00  0.00    +0.000 C 
ATOM     22  C   UNL     1       3.260   2.325  20.366  0.00  0.00    +0.000 C 
ATOM     23  C   UNL     1       2.358   1.814  19.252  0.00  0.00    +0.000 C 
ATOM     24  C   UNL     1       1.229   2.929  19.097  0.00  0.00    +0.000 C 
ATOM     25  C   UNL     1       1.083   3.153  20.631  0.00  0.00    +0.000 C 
ATOM     26  C   UNL     1       2.506   3.539  20.907  0.00  0.00    +0.000 C 
ATOM     27  C   UNL     1       2.765   4.664  19.846  0.00  0.00    +0.000 C 
ATOM     28  C   UNL     1       1.504   4.466  18.905  0.00  0.00    +0.000 C 
BRANCH  28  29
ATOM     29  O   UNL     1       1.465   4.742  17.497  0.00  0.00    +0.000 OA
ATOM     30  H   UNL     1       1.518   5.728  17.404  0.00  0.00    +0.000 HD
ENDBRANCH  28  29
ENDBRANCH  17  20
ENDBRANCH   3  17
TORSDOF 4
ENDMDL
MODEL 9
REMARK VINA RESULT:      -8.3      5.176      8.248
REMARK  Name = 
REMARK  4 active torsions:
REMARK  status: ('A' for Active; 'I' for Inactive)
REMARK    1  A    between atoms: C_2  and  C_10
REMARK    2  A    between atoms: C_12  and  S_13
REMARK    3  A    between atoms: S_13  and  N_16
REMARK    4  A    between atoms: C_24  and  O_25
REMARK                            x       y       z     vdW  Elec       q    Type
REMARK                         _______ _______ _______ _____ _____    ______ ____
ROOT
ATOM      1  C   UNL     1       0.922   9.302  19.516  0.00  0.00    +0.000 A 
ATOM      2  C   UNL     1       1.823   8.542  18.791  0.00  0.00    +0.000 A 
ATOM      3  C   UNL     1       2.206   7.440  19.592  0.00  0.00    +0.000 A 
ATOM      4  C   UNL     1       1.765   7.710  20.878  0.00  0.00    +0.000 A 
ATOM      5  N   UNL     1       1.056   8.895  20.832  0.00  0.00    +0.000 N 
ATOM      6  H   UNL     1       0.549   9.320  21.598  0.00  0.00    +0.000 HD
ENDROOT
BRANCH   1   8
ATOM      7  O   UNL     1      -0.345  11.235  19.779  0.00  0.00    +0.000 OA
ATOM      8  C   UNL     1      -0.088  10.281  19.070  0.00  0.00    +0.000 C 
ATOM      9  N   UNL     1      -0.672   9.897  17.885  0.00  0.00    +0.000 N 
ATOM     10  C   UNL     1      -1.871  10.396  17.359  0.00  0.00    +0.000 A 
ATOM     11  C   UNL     1      -2.245   9.867  16.110  0.00  0.00    +0.000 A 
ATOM     12  C   UNL     1      -3.459  10.252  15.552  0.00  0.00    +0.000 A 
ATOM     13  C   UNL     1      -4.256  11.153  16.232  0.00  0.00    +0.000 A 
ATOM     14  C   UNL     1      -3.811  11.622  17.445  0.00  0.00    +0.000 A 
ATOM     15  N   UNL     1      -2.641  11.242  18.018  0.00  0.00    +0.000 NA
ATOM     16  H   UNL     1      -0.273   9.109  17.408  0.00  0.00    +0.000 HD
ENDBRANCH   1   8
BRANCH   3  17
ATOM     17  S   UNL     1       2.965   6.028  18.904  0.00  0.00    +0.000 S 
ATOM     18  O   UNL     1       3.227   5.237  20.067  0.00  0.00    +0.000 OA
ATOM     19  O   UNL     1       2.044   5.614  17.875  0.00  0.00    +0.000 OA
BRANCH  17  20
ATOM     20  N   UNL     1       4.421   6.425  18.215  0.00  0.00    +0.000 NA
ATOM     21  C   UNL     1       4.455   7.102  16.898  0.00  0.00    +0.000 C 
ATOM     22  C   UNL     1       5.554   6.402  16.126  0.00  0.00    +0.000 C 
ATOM     23  C   UNL     1       5.167   5.037  15.577  0.00  0.00    +0.000 C 
ATOM     24  C   UNL     1       5.813   3.991  16.591  0.00  0.00    +0.000 C 
ATOM     25  C   UNL     1       7.140   4.791  16.746  0.00  0.00    +0.000 C 
ATOM     26  C   UNL     1       6.538   6.069  17.247  0.00  0.00    +0.000 C 
ATOM     27  C   UNL     1       5.631   5.579  18.429  0.00  0.00    +0.000 C 
ATOM     28  C   UNL     1       5.623   4.017  18.153  0.00  0.00    +0.000 C 
BRANCH  28  29
ATOM     29  O   UNL     1       4.549   3.120  18.476  0.00  0.00    +0.000 OA
ATOM     30  H   UNL     1       4.965   2.329  18.905  0.00  0.00    +0.000 HD
ENDBRANCH  28  29
ENDBRANCH  17  20
ENDBRANCH   3  17
TORSDOF 4
ENDMDL
