MODEL 1
REMARK VINA RESULT:      -8.8      0.000      0.000
REMARK  Name = 
REMARK  7 active torsions:
REMARK  status: ('A' for Active; 'I' for Inactive)
REMARK    1  A    between atoms: C_1  and  N_2
REMARK    2  A    between atoms: N_2  and  C_3
REMARK    3  A    between atoms: N_2  and  C_10
REMARK    4  A    between atoms: C_3  and  C_4
REMARK    5  A    between atoms: N_8  and  C_9
REMARK    6  A    between atoms: C_14  and  N_15
REMARK    7  A    between atoms: C_22  and  C_23
REMARK                            x       y       z     vdW  Elec       q    Type
REMARK                         _______ _______ _______ _____ _____    ______ ____
ROOT
ATOM      1  C   UNL     1       3.992   4.746  17.629  0.00  0.00    +0.000 C 
ATOM      2  C   UNL     1       3.456   3.643  18.186  0.00  0.00    +0.000 C 
ATOM      3  C   UNL     1       2.319   3.699  19.167  0.00  0.00    +0.000 C 
ATOM      4  C   UNL     1       2.162   5.060  19.864  0.00  0.00    +0.000 C 
ATOM      5  C   UNL     1       2.536   6.231  18.983  0.00  0.00    +0.000 C 
ATOM      6  C   UNL     1       3.351   6.019  17.931  0.00  0.00    +0.000 C 
ENDROOT
BRANCH   5   7
ATOM      7  N   UNL     1       2.032   7.496  19.276  0.00  0.00    +0.000 N 
ATOM      8  C   UNL     1       1.370   7.810  20.543  0.00  0.00    +0.000 C 
ATOM      9  C   UNL     1       0.986   9.249  20.397  0.00  0.00    +0.000 A 
ATOM     10  C   UNL     1       1.357   9.696  19.131  0.00  0.00    +0.000 A 
ATOM     11  C   UNL     1       1.109  10.981  18.689  0.00  0.00    +0.000 A 
ATOM     12  C   UNL     1       0.462  11.849  19.566  0.00  0.00    +0.000 A 
ATOM     13  C   UNL     1       0.090  11.415  20.853  0.00  0.00    +0.000 A 
ATOM     14  C   UNL     1       0.350  10.101  21.291  0.00  0.00    +0.000 A 
ATOM     15  C   UNL     1       2.011   8.596  18.412  0.00  0.00    +0.000 C 
ATOM     16  O   UNL     1       2.411   8.716  17.268  0.00  0.00    +0.000 OA
BRANCH  14  17
ATOM     17  C   UNL     1      -0.055   9.678  22.682  0.00  0.00    +0.000 C 
ATOM     18  F   UNL     1      -0.686  10.649  23.391  0.00  0.00    +0.000 F 
ATOM     19  F   UNL     1      -0.908   8.617  22.665  0.00  0.00    +0.000 F 
ATOM     20  F   UNL     1       1.010   9.288  23.436  0.00  0.00    +0.000 F 
ENDBRANCH  14  17
ENDBRANCH   5   7
BRANCH   1  22
ATOM     21  C   UNL     1       4.961   4.498  15.339  0.00  0.00    +0.000 C 
ATOM     22  N   UNL     1       5.098   4.755  16.769  0.00  0.00    +0.000 N 
BRANCH  22  23
ATOM     23  C   UNL     1       6.482   4.752  17.301  0.00  0.00    +0.000 C 
BRANCH  23  24
ATOM     24  C   UNL     1       7.160   6.078  17.494  0.00  0.00    +0.000 A 
ATOM     25  N   UNL     1       7.092   7.114  16.675  0.00  0.00    +0.000 NA
ATOM     26  N   UNL     1       7.753   8.171  17.250  0.00  0.00    +0.000 NA
ATOM     27  C   UNL     1       8.199   7.771  18.415  0.00  0.00    +0.000 A 
ATOM     28  N   UNL     1       7.865   6.465  18.606  0.00  0.00    +0.000 N 
ATOM     29  C   UNL     1       8.167   5.690  19.778  0.00  0.00    +0.000 C 
ENDBRANCH  23  24
ENDBRANCH  22  23
ENDBRANCH   1  22
TORSDOF 5
ENDMDL
MODEL 2
REMARK VINA RESULT:      -8.6      1.452      2.559
REMARK  Name = 
REMARK  7 active torsions:
REMARK  status: ('A' for Active; 'I' for Inactive)
REMARK    1  A    between atoms: C_1  and  N_2
REMARK    2  A    between atoms: N_2  and  C_3
REMARK    3  A    between atoms: N_2  and  C_10
REMARK    4  A    between atoms: C_3  and  C_4
REMARK    5  A    between atoms: N_8  and  C_9
REMARK    6  A    between atoms: C_14  and  N_15
REMARK    7  A    between atoms: C_22  and  C_23
REMARK                            x       y       z     vdW  Elec       q    Type
REMARK                         _______ _______ _______ _____ _____    ______ ____
ROOT
ATOM      1  C   UNL     1       4.431   5.435  17.585  0.00  0.00    +0.000 C 
ATOM      2  C   UNL     1       3.771   4.267  17.689  0.00  0.00    +0.000 C 
ATOM      3  C   UNL     1       2.384   4.165  18.259  0.00  0.00    +0.000 C 
ATOM      4  C   UNL     1       1.991   5.347  19.160  0.00  0.00    +0.000 C 
ATOM      5  C   UNL     1       2.597   6.662  18.722  0.00  0.00    +0.000 C 
ATOM      6  C   UNL     1       3.703   6.643  17.953  0.00  0.00    +0.000 C 
ENDROOT
BRANCH   5   7
ATOM      7  N   UNL     1       2.002   7.856  19.121  0.00  0.00    +0.000 N 
ATOM      8  C   UNL     1       1.361   8.023  20.426  0.00  0.00    +0.000 C 
ATOM      9  C   UNL     1       0.856   9.431  20.396  0.00  0.00    +0.000 A 
ATOM     10  C   UNL     1       1.145   9.996  19.156  0.00  0.00    +0.000 A 
ATOM     11  C   UNL     1       0.778  11.284  18.817  0.00  0.00    +0.000 A 
ATOM     12  C   UNL     1       0.093  12.030  19.773  0.00  0.00    +0.000 A 
ATOM     13  C   UNL     1      -0.198  11.477  21.035  0.00  0.00    +0.000 A 
ATOM     14  C   UNL     1       0.183  10.162  21.368  0.00  0.00    +0.000 A 
ATOM     15  C   UNL     1       1.862   9.009  18.341  0.00  0.00    +0.000 C 
ATOM     16  O   UNL     1       2.211   9.242  17.198  0.00  0.00    +0.000 OA
BRANCH  14  17
ATOM     17  C   UNL     1      -0.138   9.609  22.735  0.00  0.00    +0.000 C 
ATOM     18  F   UNL     1      -0.889   8.478  22.710  0.00  0.00    +0.000 F 
ATOM     19  F   UNL     1       0.987   9.293  23.435  0.00  0.00    +0.000 F 
ATOM     20  F   UNL     1      -0.819  10.500  23.507  0.00  0.00    +0.000 F 
ENDBRANCH  14  17
ENDBRANCH   5   7
BRANCH   1  22
ATOM     21  C   UNL     1       6.447   6.857  17.182  0.00  0.00    +0.000 C 
ATOM     22  N   UNL     1       5.750   5.576  17.132  0.00  0.00    +0.000 N 
BRANCH  22  23
ATOM     23  C   UNL     1       6.402   4.510  16.333  0.00  0.00    +0.000 C 
BRANCH  23  24
ATOM     24  C   UNL     1       6.960   4.885  14.991  0.00  0.00    +0.000 A 
ATOM     25  N   UNL     1       8.039   5.619  14.773  0.00  0.00    +0.000 NA
ATOM     26  N   UNL     1       8.284   5.646  13.422  0.00  0.00    +0.000 NA
ATOM     27  C   UNL     1       7.363   4.919  12.839  0.00  0.00    +0.000 A 
ATOM     28  N   UNL     1       6.505   4.433  13.778  0.00  0.00    +0.000 N 
ATOM     29  C   UNL     1       5.380   3.578  13.515  0.00  0.00    +0.000 C 
ENDBRANCH  23  24
ENDBRANCH  22  23
ENDBRANCH   1  22
TORSDOF 5
ENDMDL
MODEL 3
REMARK VINA RESULT:      -8.4      4.468      8.667
REMARK  Name = 
REMARK  7 active torsions:
REMARK  status: ('A' for Active; 'I' for Inactive)
REMARK    1  A    between atoms: C_1  and  N_2
REMARK    2  A    between atoms: N_2  and  C_3
REMARK    3  A    between atoms: N_2  and  C_10
REMARK    4  A    between atoms: C_3  and  C_4
REMARK    5  A    between atoms: N_8  and  C_9
REMARK    6  A    between atoms: C_14  and  N_15
REMARK    7  A    between atoms: C_22  and  C_23
REMARK                            x       y       z     vdW  Elec       q    Type
REMARK                         _______ _______ _______ _____ _____    ______ ____
ROOT
ATOM      1  C   UNL     1       0.404  10.252  19.521  0.00  0.00    +0.000 C 
ATOM      2  C   UNL     1       0.419  10.446  20.853  0.00  0.00    +0.000 C 
ATOM      3  C   UNL     1       1.131   9.524  21.802  0.00  0.00    +0.000 C 
ATOM      4  C   UNL     1       1.384   8.118  21.232  0.00  0.00    +0.000 C 
ATOM      5  C   UNL     1       1.644   8.113  19.742  0.00  0.00    +0.000 C 
ATOM      6  C   UNL     1       1.207   9.152  19.003  0.00  0.00    +0.000 C 
ENDROOT
BRANCH   5   7
ATOM      7  N   UNL     1       2.324   7.041  19.170  0.00  0.00    +0.000 N 
ATOM      8  C   UNL     1       3.291   7.206  18.084  0.00  0.00    +0.000 C 
ATOM      9  C   UNL     1       3.735   5.809  17.787  0.00  0.00    +0.000 A 
ATOM     10  C   UNL     1       3.039   4.923  18.606  0.00  0.00    +0.000 A 
ATOM     11  C   UNL     1       3.212   3.554  18.545  0.00  0.00    +0.000 A 
ATOM     12  C   UNL     1       4.132   3.063  17.621  0.00  0.00    +0.000 A 
ATOM     13  C   UNL     1       4.851   3.946  16.793  0.00  0.00    +0.000 A 
ATOM     14  C   UNL     1       4.665   5.341  16.866  0.00  0.00    +0.000 A 
ATOM     15  C   UNL     1       2.140   5.689  19.477  0.00  0.00    +0.000 C 
ATOM     16  O   UNL     1       1.395   5.150  20.275  0.00  0.00    +0.000 OA
BRANCH  14  17
ATOM     17  C   UNL     1       5.464   6.254  15.970  0.00  0.00    +0.000 C 
ATOM     18  F   UNL     1       4.703   7.047  15.171  0.00  0.00    +0.000 F 
ATOM     19  F   UNL     1       6.260   7.100  16.681  0.00  0.00    +0.000 F 
ATOM     20  F   UNL     1       6.296   5.567  15.140  0.00  0.00    +0.000 F 
ENDBRANCH  14  17
ENDBRANCH   5   7
BRANCH   1  22
ATOM     21  C   UNL     1      -0.371  12.491  18.725  0.00  0.00    +0.000 C 
ATOM     22  N   UNL     1      -0.304  11.038  18.602  0.00  0.00    +0.000 N 
BRANCH  22  23
ATOM     23  C   UNL     1      -1.239  10.422  17.629  0.00  0.00    +0.000 C 
BRANCH  23  24
ATOM     24  C   UNL     1      -2.658  10.914  17.615  0.00  0.00    +0.000 A 
ATOM     25  N   UNL     1      -3.318  11.415  18.645  0.00  0.00    +0.000 NA
ATOM     26  N   UNL     1      -4.546  11.849  18.209  0.00  0.00    +0.000 NA
ATOM     27  C   UNL     1      -4.610  11.621  16.920  0.00  0.00    +0.000 A 
ATOM     28  N   UNL     1      -3.458  11.025  16.506  0.00  0.00    +0.000 N 
ATOM     29  C   UNL     1      -3.157  10.644  15.153  0.00  0.00    +0.000 C 
ENDBRANCH  23  24
ENDBRANCH  22  23
ENDBRANCH   1  22
TORSDOF 5
ENDMDL
MODEL 4
REMARK VINA RESULT:      -8.4      1.589      2.389
REMARK  Name = 
REMARK  7 active torsions:
REMARK  status: ('A' for Active; 'I' for Inactive)
REMARK    1  A    between atoms: C_1  and  N_2
REMARK    2  A    between atoms: N_2  and  C_3
REMARK    3  A    between atoms: N_2  and  C_10
REMARK    4  A    between atoms: C_3  and  C_4
REMARK    5  A    between atoms: N_8  and  C_9
REMARK    6  A    between atoms: C_14  and  N_15
REMARK    7  A    between atoms: C_22  and  C_23
REMARK                            x       y       z     vdW  Elec       q    Type
REMARK                         _______ _______ _______ _____ _____    ______ ____
ROOT
ATOM      1  C   UNL     1       2.860   3.226  19.083  0.00  0.00    +0.000 C 
ATOM      2  C   UNL     1       2.553   2.510  20.180  0.00  0.00    +0.000 C 
ATOM      3  C   UNL     1       1.916   3.120  21.397  0.00  0.00    +0.000 C 
ATOM      4  C   UNL     1       2.112   4.641  21.507  0.00  0.00    +0.000 C 
ATOM      5  C   UNL     1       2.142   5.340  20.166  0.00  0.00    +0.000 C 
ATOM      6  C   UNL     1       2.450   4.625  19.067  0.00  0.00    +0.000 C 
ENDROOT
BRANCH   5   7
ATOM      7  N   UNL     1       1.853   6.701  20.098  0.00  0.00    +0.000 N 
ATOM      8  C   UNL     1       1.157   7.417  21.167  0.00  0.00    +0.000 C 
ATOM      9  C   UNL     1       1.053   8.817  20.649  0.00  0.00    +0.000 A 
ATOM     10  C   UNL     1       1.602   8.875  19.370  0.00  0.00    +0.000 A 
ATOM     11  C   UNL     1       1.629  10.033  18.619  0.00  0.00    +0.000 A 
ATOM     12  C   UNL     1       1.079  11.181  19.187  0.00  0.00    +0.000 A 
ATOM     13  C   UNL     1       0.529  11.141  20.483  0.00  0.00    +0.000 A 
ATOM     14  C   UNL     1       0.510   9.952  21.239  0.00  0.00    +0.000 A 
ATOM     15  C   UNL     1       2.103   7.543  19.009  0.00  0.00    +0.000 C 
ATOM     16  O   UNL     1       2.612   7.314  17.927  0.00  0.00    +0.000 OA
BRANCH  14  17
ATOM     17  C   UNL     1      -0.078   9.954  22.628  0.00  0.00    +0.000 C 
ATOM     18  F   UNL     1      -1.134   9.114  22.781  0.00  0.00    +0.000 F 
ATOM     19  F   UNL     1       0.833   9.580  23.569  0.00  0.00    +0.000 F 
ATOM     20  F   UNL     1      -0.516  11.187  23.003  0.00  0.00    +0.000 F 
ENDBRANCH  14  17
ENDBRANCH   5   7
BRANCH   1  22
ATOM     21  C   UNL     1       3.814   1.301  17.805  0.00  0.00    +0.000 C 
ATOM     22  N   UNL     1       3.520   2.723  17.953  0.00  0.00    +0.000 N 
BRANCH  22  23
ATOM     23  C   UNL     1       4.190   3.630  16.990  0.00  0.00    +0.000 C 
BRANCH  23  24
ATOM     24  C   UNL     1       5.573   4.108  17.327  0.00  0.00    +0.000 A 
ATOM     25  N   UNL     1       6.063   4.283  18.543  0.00  0.00    +0.000 NA
ATOM     26  N   UNL     1       7.389   4.622  18.437  0.00  0.00    +0.000 NA
ATOM     27  C   UNL     1       7.692   4.634  17.162  0.00  0.00    +0.000 A 
ATOM     28  N   UNL     1       6.586   4.333  16.429  0.00  0.00    +0.000 N 
ATOM     29  C   UNL     1       6.539   4.232  14.996  0.00  0.00    +0.000 C 
ENDBRANCH  23  24
ENDBRANCH  22  23
ENDBRANCH   1  22
TORSDOF 5
ENDMDL
MODEL 5
REMARK VINA RESULT:      -8.4      1.351      2.381
REMARK  Name = 
REMARK  7 active torsions:
REMARK  status: ('A' for Active; 'I' for Inactive)
REMARK    1  A    between atoms: C_1  and  N_2
REMARK    2  A    between atoms: N_2  and  C_3
REMARK    3  A    between atoms: N_2  and  C_10
REMARK    4  A    between atoms: C_3  and  C_4
REMARK    5  A    between atoms: N_8  and  C_9
REMARK    6  A    between atoms: C_14  and  N_15
REMARK    7  A    between atoms: C_22  and  C_23
REMARK                            x       y       z     vdW  Elec       q    Type
REMARK                         _______ _______ _______ _____ _____    ______ ____
ROOT
ATOM      1  C   UNL     1       5.038   5.571  18.371  0.00  0.00    +0.000 C 
ATOM      2  C   UNL     1       4.616   4.339  18.712  0.00  0.00    +0.000 C 
ATOM      3  C   UNL     1       3.269   4.083  19.327  0.00  0.00    +0.000 C 
ATOM      4  C   UNL     1       2.643   5.318  19.995  0.00  0.00    +0.000 C 
ATOM      5  C   UNL     1       2.988   6.616  19.299  0.00  0.00    +0.000 C 
ATOM      6  C   UNL     1       4.085   6.663  18.519  0.00  0.00    +0.000 C 
ENDROOT
BRANCH   5   7
ATOM      7  N   UNL     1       2.167   7.727  19.478  0.00  0.00    +0.000 N 
ATOM      8  C   UNL     1       1.455   7.992  20.728  0.00  0.00    +0.000 C 
ATOM      9  C   UNL     1       0.701   9.253  20.448  0.00  0.00    +0.000 A 
ATOM     10  C   UNL     1       0.930   9.642  19.130  0.00  0.00    +0.000 A 
ATOM     11  C   UNL     1       0.346  10.760  18.567  0.00  0.00    +0.000 A 
ATOM     12  C   UNL     1      -0.502  11.516  19.373  0.00  0.00    +0.000 A 
ATOM     13  C   UNL     1      -0.736  11.143  20.710  0.00  0.00    +0.000 A 
ATOM     14  C   UNL     1      -0.132  10.000  21.272  0.00  0.00    +0.000 A 
ATOM     15  C   UNL     1       1.848   8.682  18.506  0.00  0.00    +0.000 C 
ATOM     16  O   UNL     1       2.193   8.777  17.342  0.00  0.00    +0.000 OA
BRANCH  14  17
ATOM     17  C   UNL     1      -0.400   9.639  22.713  0.00  0.00    +0.000 C 
ATOM     18  F   UNL     1      -1.198  10.526  23.363  0.00  0.00    +0.000 F 
ATOM     19  F   UNL     1      -1.015   8.430  22.831  0.00  0.00    +0.000 F 
ATOM     20  F   UNL     1       0.744   9.550  23.445  0.00  0.00    +0.000 F 
ENDBRANCH  14  17
ENDBRANCH   5   7
BRANCH   1  22
ATOM     21  C   UNL     1       6.799   7.245  17.784  0.00  0.00    +0.000 C 
ATOM     22  N   UNL     1       6.310   5.872  17.865  0.00  0.00    +0.000 N 
BRANCH  22  23
ATOM     23  C   UNL     1       7.107   4.853  17.140  0.00  0.00    +0.000 C 
BRANCH  23  24
ATOM     24  C   UNL     1       6.987   4.807  15.644  0.00  0.00    +0.000 A 
ATOM     25  N   UNL     1       7.736   5.474  14.781  0.00  0.00    +0.000 NA
ATOM     26  N   UNL     1       7.392   5.084  13.510  0.00  0.00    +0.000 NA
ATOM     27  C   UNL     1       6.452   4.177  13.616  0.00  0.00    +0.000 A 
ATOM     28  N   UNL     1       6.155   3.981  14.931  0.00  0.00    +0.000 N 
ATOM     29  C   UNL     1       5.188   3.046  15.436  0.00  0.00    +0.000 C 
ENDBRANCH  23  24
ENDBRANCH  22  23
ENDBRANCH   1  22
TORSDOF 5
ENDMDL
MODEL 6
REMARK VINA RESULT:      -8.3      4.300      8.485
REMARK  Name = 
REMARK  7 active torsions:
REMARK  status: ('A' for Active; 'I' for Inactive)
REMARK    1  A    between atoms: C_1  and  N_2
REMARK    2  A    between atoms: N_2  and  C_3
REMARK    3  A    between atoms: N_2  and  C_10
REMARK    4  A    between atoms: C_3  and  C_4
REMARK    5  A    between atoms: N_8  and  C_9
REMARK    6  A    between atoms: C_14  and  N_15
REMARK    7  A    between atoms: C_22  and  C_23
REMARK                            x       y       z     vdW  Elec       q    Type
REMARK                         _______ _______ _______ _____ _____    ______ ____
ROOT
ATOM      1  C   UNL     1       0.287  10.228  19.914  0.00  0.00    +0.000 C 
ATOM      2  C   UNL     1       0.415  10.419  21.240  0.00  0.00    +0.000 C 
ATOM      3  C   UNL     1       1.233   9.514  22.117  0.00  0.00    +0.000 C 
ATOM      4  C   UNL     1       1.474   8.118  21.521  0.00  0.00    +0.000 C 
ATOM      5  C   UNL     1       1.600   8.124  20.013  0.00  0.00    +0.000 C 
ATOM      6  C   UNL     1       1.071   9.152  19.321  0.00  0.00    +0.000 C 
ENDROOT
BRANCH   5   7
ATOM      7  N   UNL     1       2.256   7.073  19.377  0.00  0.00    +0.000 N 
ATOM      8  C   UNL     1       3.172   7.275  18.254  0.00  0.00    +0.000 C 
ATOM      9  C   UNL     1       3.605   5.889  17.895  0.00  0.00    +0.000 A 
ATOM     10  C   UNL     1       2.949   4.975  18.716  0.00  0.00    +0.000 A 
ATOM     11  C   UNL     1       3.123   3.609  18.606  0.00  0.00    +0.000 A 
ATOM     12  C   UNL     1       4.001   3.151  17.625  0.00  0.00    +0.000 A 
ATOM     13  C   UNL     1       4.679   4.062  16.793  0.00  0.00    +0.000 A 
ATOM     14  C   UNL     1       4.492   5.453  16.918  0.00  0.00    +0.000 A 
ATOM     15  C   UNL     1       2.089   5.711  19.651  0.00  0.00    +0.000 C 
ATOM     16  O   UNL     1       1.384   5.144  20.466  0.00  0.00    +0.000 OA
BRANCH  14  17
ATOM     17  C   UNL     1       5.247   6.397  16.014  0.00  0.00    +0.000 C 
ATOM     18  F   UNL     1       4.453   7.271  15.344  0.00  0.00    +0.000 F 
ATOM     19  F   UNL     1       6.140   7.160  16.703  0.00  0.00    +0.000 F 
ATOM     20  F   UNL     1       5.971   5.739  15.067  0.00  0.00    +0.000 F 
ENDBRANCH  14  17
ENDBRANCH   5   7
BRANCH   1  22
ATOM     21  C   UNL     1      -0.082  12.288  18.548  0.00  0.00    +0.000 C 
ATOM     22  N   UNL     1      -0.521  10.996  19.065  0.00  0.00    +0.000 N 
BRANCH  22  23
ATOM     23  C   UNL     1      -1.955  10.670  18.871  0.00  0.00    +0.000 C 
BRANCH  23  24
ATOM     24  C   UNL     1      -2.472  10.599  17.464  0.00  0.00    +0.000 A 
ATOM     25  N   UNL     1      -1.904   9.957  16.457  0.00  0.00    +0.000 NA
ATOM     26  N   UNL     1      -2.732  10.036  15.364  0.00  0.00    +0.000 NA
ATOM     27  C   UNL     1      -3.796  10.711  15.724  0.00  0.00    +0.000 A 
ATOM     28  N   UNL     1      -3.673  11.096  17.024  0.00  0.00    +0.000 N 
ATOM     29  C   UNL     1      -4.654  11.836  17.770  0.00  0.00    +0.000 C 
ENDBRANCH  23  24
ENDBRANCH  22  23
ENDBRANCH   1  22
TORSDOF 5
ENDMDL
MODEL 7
REMARK VINA RESULT:      -8.3      1.555      2.118
REMARK  Name = 
REMARK  7 active torsions:
REMARK  status: ('A' for Active; 'I' for Inactive)
REMARK    1  A    between atoms: C_1  and  N_2
REMARK    2  A    between atoms: N_2  and  C_3
REMARK    3  A    between atoms: N_2  and  C_10
REMARK    4  A    between atoms: C_3  and  C_4
REMARK    5  A    between atoms: N_8  and  C_9
REMARK    6  A    between atoms: C_14  and  N_15
REMARK    7  A    between atoms: C_22  and  C_23
REMARK                            x       y       z     vdW  Elec       q    Type
REMARK                         _______ _______ _______ _____ _____    ______ ____
ROOT
ATOM      1  C   UNL     1       2.870   3.392  18.969  0.00  0.00    +0.000 C 
ATOM      2  C   UNL     1       2.575   2.624  20.035  0.00  0.00    +0.000 C 
ATOM      3  C   UNL     1       1.924   3.169  21.274  0.00  0.00    +0.000 C 
ATOM      4  C   UNL     1       2.089   4.688  21.449  0.00  0.00    +0.000 C 
ATOM      5  C   UNL     1       2.108   5.443  20.138  0.00  0.00    +0.000 C 
ATOM      6  C   UNL     1       2.432   4.781  19.011  0.00  0.00    +0.000 C 
ENDROOT
BRANCH   5   7
ATOM      7  N   UNL     1       1.791   6.800  20.126  0.00  0.00    +0.000 N 
ATOM      8  C   UNL     1       1.093   7.460  21.230  0.00  0.00    +0.000 C 
ATOM      9  C   UNL     1       0.956   8.876  20.768  0.00  0.00    +0.000 A 
ATOM     10  C   UNL     1       1.490   8.995  19.487  0.00  0.00    +0.000 A 
ATOM     11  C   UNL     1       1.486  10.182  18.782  0.00  0.00    +0.000 A 
ATOM     12  C   UNL     1       0.920  11.295  19.400  0.00  0.00    +0.000 A 
ATOM     13  C   UNL     1       0.385  11.194  20.698  0.00  0.00    +0.000 A 
ATOM     14  C   UNL     1       0.397   9.976  21.408  0.00  0.00    +0.000 A 
ATOM     15  C   UNL     1       2.013   7.689  19.069  0.00  0.00    +0.000 C 
ATOM     16  O   UNL     1       2.514   7.512  17.974  0.00  0.00    +0.000 OA
BRANCH  14  17
ATOM     17  C   UNL     1      -0.176   9.912  22.802  0.00  0.00    +0.000 C 
ATOM     18  F   UNL     1       0.734   9.591  23.758  0.00  0.00    +0.000 F 
ATOM     19  F   UNL     1      -0.716  11.101  23.187  0.00  0.00    +0.000 F 
ATOM     20  F   UNL     1      -1.177   8.995  22.908  0.00  0.00    +0.000 F 
ENDBRANCH  14  17
ENDBRANCH   5   7
BRANCH   1  22
ATOM     21  C   UNL     1       3.967   1.562  17.666  0.00  0.00    +0.000 C 
ATOM     22  N   UNL     1       3.543   2.949  17.822  0.00  0.00    +0.000 N 
BRANCH  22  23
ATOM     23  C   UNL     1       4.095   3.913  16.839  0.00  0.00    +0.000 C 
BRANCH  23  24
ATOM     24  C   UNL     1       5.579   4.142  16.843  0.00  0.00    +0.000 A 
ATOM     25  N   UNL     1       6.399   3.956  15.822  0.00  0.00    +0.000 NA
ATOM     26  N   UNL     1       7.654   4.377  16.186  0.00  0.00    +0.000 NA
ATOM     27  C   UNL     1       7.579   4.825  17.415  0.00  0.00    +0.000 A 
ATOM     28  N   UNL     1       6.304   4.686  17.873  0.00  0.00    +0.000 N 
ATOM     29  C   UNL     1       5.837   5.088  19.171  0.00  0.00    +0.000 C 
ENDBRANCH  23  24
ENDBRANCH  22  23
ENDBRANCH   1  22
TORSDOF 5
ENDMDL
MODEL 8
REMARK VINA RESULT:      -8.2      3.711      8.212
REMARK  Name = 
REMARK  7 active torsions:
REMARK  status: ('A' for Active; 'I' for Inactive)
REMARK    1  A    between atoms: C_1  and  N_2
REMARK    2  A    between atoms: N_2  and  C_3
REMARK    3  A    between atoms: N_2  and  C_10
REMARK    4  A    between atoms: C_3  and  C_4
REMARK    5  A    between atoms: N_8  and  C_9
REMARK    6  A    between atoms: C_14  and  N_15
REMARK    7  A    between atoms: C_22  and  C_23
REMARK                            x       y       z     vdW  Elec       q    Type
REMARK                         _______ _______ _______ _____ _____    ______ ____
ROOT
ATOM      1  C   UNL     1      -0.443  11.291  20.170  0.00  0.00    +0.000 C 
ATOM      2  C   UNL     1      -0.556  11.459  21.500  0.00  0.00    +0.000 C 
ATOM      3  C   UNL     1       0.034  10.498  22.493  0.00  0.00    +0.000 C 
ATOM      4  C   UNL     1       0.307   9.097  21.920  0.00  0.00    +0.000 C 
ATOM      5  C   UNL     1       0.713   9.115  20.463  0.00  0.00    +0.000 C 
ATOM      6  C   UNL     1       0.379  10.180  19.708  0.00  0.00    +0.000 C 
ENDROOT
BRANCH   5   7
ATOM      7  N   UNL     1       1.419   8.036  19.936  0.00  0.00    +0.000 N 
ATOM      8  C   UNL     1       1.443   6.719  20.574  0.00  0.00    +0.000 C 
ATOM      9  C   UNL     1       2.328   5.908  19.681  0.00  0.00    +0.000 A 
ATOM     10  C   UNL     1       2.803   6.715  18.650  0.00  0.00    +0.000 A 
ATOM     11  C   UNL     1       3.669   6.254  17.677  0.00  0.00    +0.000 A 
ATOM     12  C   UNL     1       4.065   4.920  17.750  0.00  0.00    +0.000 A 
ATOM     13  C   UNL     1       3.586   4.089  18.780  0.00  0.00    +0.000 A 
ATOM     14  C   UNL     1       2.702   4.573  19.766  0.00  0.00    +0.000 A 
ATOM     15  C   UNL     1       2.242   8.062  18.806  0.00  0.00    +0.000 C 
ATOM     16  O   UNL     1       2.520   8.972  18.045  0.00  0.00    +0.000 OA
BRANCH  14  17
ATOM     17  C   UNL     1       2.202   3.646  20.846  0.00  0.00    +0.000 C 
ATOM     18  F   UNL     1       0.859   3.443  20.820  0.00  0.00    +0.000 F 
ATOM     19  F   UNL     1       2.766   2.410  20.761  0.00  0.00    +0.000 F 
ATOM     20  F   UNL     1       2.492   4.103  22.095  0.00  0.00    +0.000 F 
ENDBRANCH  14  17
ENDBRANCH   5   7
BRANCH   1  22
ATOM     21  C   UNL     1      -0.370  13.313  18.701  0.00  0.00    +0.000 C 
ATOM     22  N   UNL     1      -1.036  12.115  19.203  0.00  0.00    +0.000 N 
BRANCH  22  23
ATOM     23  C   UNL     1      -2.468  11.969  18.846  0.00  0.00    +0.000 C 
BRANCH  23  24
ATOM     24  C   UNL     1      -2.798  11.433  17.483  0.00  0.00    +0.000 A 
ATOM     25  N   UNL     1      -1.959  10.825  16.661  0.00  0.00    +0.000 NA
ATOM     26  N   UNL     1      -2.660  10.388  15.564  0.00  0.00    +0.000 NA
ATOM     27  C   UNL     1      -3.915  10.723  15.739  0.00  0.00    +0.000 A 
ATOM     28  N   UNL     1      -4.048  11.390  16.918  0.00  0.00    +0.000 N 
ATOM     29  C   UNL     1      -5.282  11.894  17.455  0.00  0.00    +0.000 C 
ENDBRANCH  23  24
ENDBRANCH  22  23
ENDBRANCH   1  22
TORSDOF 5
ENDMDL
MODEL 9
REMARK VINA RESULT:      -8.2      0.946      1.388
REMARK  Name = 
REMARK  7 active torsions:
REMARK  status: ('A' for Active; 'I' for Inactive)
REMARK    1  A    between atoms: C_1  and  N_2
REMARK    2  A    between atoms: N_2  and  C_3
REMARK    3  A    between atoms: N_2  and  C_10
REMARK    4  A    between atoms: C_3  and  C_4
REMARK    5  A    between atoms: N_8  and  C_9
REMARK    6  A    between atoms: C_14  and  N_15
REMARK    7  A    between atoms: C_22  and  C_23
REMARK                            x       y       z     vdW  Elec       q    Type
REMARK                         _______ _______ _______ _____ _____    ______ ____
ROOT
ATOM      1  C   UNL     1       4.597   4.643  17.043  0.00  0.00    +0.000 C 
ATOM      2  C   UNL     1       4.351   3.549  17.787  0.00  0.00    +0.000 C 
ATOM      3  C   UNL     1       3.418   3.559  18.965  0.00  0.00    +0.000 C 
ATOM      4  C   UNL     1       3.180   4.957  19.560  0.00  0.00    +0.000 C 
ATOM      5  C   UNL     1       3.198   6.060  18.525  0.00  0.00    +0.000 C 
ATOM      6  C   UNL     1       3.831   5.843  17.355  0.00  0.00    +0.000 C 
ENDROOT
BRANCH   5   7
ATOM      7  N   UNL     1       2.565   7.269  18.802  0.00  0.00    +0.000 N 
ATOM      8  C   UNL     1       1.805   7.501  20.031  0.00  0.00    +0.000 C 
ATOM      9  C   UNL     1       1.300   8.901  19.879  0.00  0.00    +0.000 A 
ATOM     10  C   UNL     1       1.701   9.401  18.642  0.00  0.00    +0.000 A 
ATOM     11  C   UNL     1       1.363  10.665  18.201  0.00  0.00    +0.000 A 
ATOM     12  C   UNL     1       0.589  11.456  19.049  0.00  0.00    +0.000 A 
ATOM     13  C   UNL     1       0.185  10.969  20.306  0.00  0.00    +0.000 A 
ATOM     14  C   UNL     1       0.539   9.677  20.744  0.00  0.00    +0.000 A 
ATOM     15  C   UNL     1       2.493   8.377  17.951  0.00  0.00    +0.000 C 
ATOM     16  O   UNL     1       2.946   8.552  16.834  0.00  0.00    +0.000 OA
BRANCH  14  17
ATOM     17  C   UNL     1       0.094   9.196  22.103  0.00  0.00    +0.000 C 
ATOM     18  F   UNL     1      -0.602  10.120  22.815  0.00  0.00    +0.000 F 
ATOM     19  F   UNL     1      -0.716   8.105  22.020  0.00  0.00    +0.000 F 
ATOM     20  F   UNL     1       1.142   8.823  22.889  0.00  0.00    +0.000 F 
ENDBRANCH  14  17
ENDBRANCH   5   7
BRANCH   1  22
ATOM     21  C   UNL     1       5.102   4.485  14.600  0.00  0.00    +0.000 C 
ATOM     22  N   UNL     1       5.512   4.706  15.983  0.00  0.00    +0.000 N 
BRANCH  22  23
ATOM     23  C   UNL     1       6.973   4.726  16.234  0.00  0.00    +0.000 C 
BRANCH  23  24
ATOM     24  C   UNL     1       7.446   5.209  17.575  0.00  0.00    +0.000 A 
ATOM     25  N   UNL     1       7.944   4.457  18.542  0.00  0.00    +0.000 NA
ATOM     26  N   UNL     1       8.360   5.276  19.563  0.00  0.00    +0.000 NA
ATOM     27  C   UNL     1       8.123   6.512  19.199  0.00  0.00    +0.000 A 
ATOM     28  N   UNL     1       7.539   6.520  17.969  0.00  0.00    +0.000 N 
ATOM     29  C   UNL     1       7.154   7.695  17.237  0.00  0.00    +0.000 C 
ENDBRANCH  23  24
ENDBRANCH  22  23
ENDBRANCH   1  22
TORSDOF 5
ENDMDL
