MODEL 1
REMARK VINA RESULT:      -8.3      0.000      0.000
REMARK  Name = 
REMARK  6 active torsions:
REMARK  status: ('A' for Active; 'I' for Inactive)
REMARK    1  A    between atoms: C_2  and  C_16
REMARK    2  A    between atoms: N_3  and  C_4
REMARK    3  A    between atoms: C_4  and  C_5
REMARK    4  A    between atoms: C_5  and  C_6
REMARK    5  A    between atoms: C_20  and  O_21
REMARK    6  A    between atoms: O_21  and  C_22
REMARK                            x       y       z     vdW  Elec       q    Type
REMARK                         _______ _______ _______ _____ _____    ______ ____
ROOT
ATOM      1  O   UNL     1       3.189   7.271  17.000  0.00  0.00    +0.000 OA
ATOM      2  C   UNL     1       3.155   7.197  18.223  0.00  0.00    +0.000 C 
ATOM      3  N   UNL     1       3.958   6.354  18.960  0.00  0.00    +0.000 N 
ATOM      4  H   UNL     1       3.788   6.265  19.952  0.00  0.00    +0.000 HD
ENDROOT
BRANCH   2   5
ATOM      5  C   UNL     1       2.204   8.049  18.974  0.00  0.00    +0.000 A 
ATOM      6  C   UNL     1       1.902   7.659  20.283  0.00  0.00    +0.000 A 
ATOM      7  C   UNL     1       0.959   8.363  21.023  0.00  0.00    +0.000 A 
ATOM      8  C   UNL     1       0.317   9.458  20.454  0.00  0.00    +0.000 A 
ATOM      9  C   UNL     1       0.647   9.886  19.161  0.00  0.00    +0.000 A 
ATOM     10  C   UNL     1       1.569   9.160  18.402  0.00  0.00    +0.000 A 
BRANCH   9  11
ATOM     11  O   UNL     1       0.042  10.959  18.544  0.00  0.00    +0.000 OA
BRANCH  11  12
ATOM     12  C   UNL     1      -1.292  10.824  18.185  0.00  0.00    +0.000 A 
ATOM     13  C   UNL     1      -2.216  11.635  18.824  0.00  0.00    +0.000 A 
ATOM     14  N   UNL     1      -3.540  11.610  18.524  0.00  0.00    +0.000 NA
ATOM     15  C   UNL     1      -3.894  10.731  17.559  0.00  0.00    +0.000 A 
ATOM     16  C   UNL     1      -2.975   9.903  16.938  0.00  0.00    +0.000 A 
ATOM     17  N   UNL     1      -1.660   9.918  17.247  0.00  0.00    +0.000 NA
ENDBRANCH  11  12
ENDBRANCH   9  11
ENDBRANCH   2   5
BRANCH   3  18
ATOM     18  C   UNL     1       4.987   5.491  18.312  0.00  0.00    +0.000 C 
ATOM     19  C   UNL     1       6.218   5.230  19.244  0.00  0.00    +0.000 C 
ATOM     20  C   UNL     1       7.127   5.492  18.029  0.00  0.00    +0.000 C 
ATOM     21  C   UNL     1       5.978   6.319  17.426  0.00  0.00    +0.000 C 
BRANCH  18  22
ATOM     22  C   UNL     1       4.382   4.196  17.740  0.00  0.00    +0.000 C 
BRANCH  22  23
ATOM     23  C   UNL     1       3.254   3.633  18.577  0.00  0.00    +0.000 A 
ATOM     24  C   UNL     1       1.938   3.587  18.082  0.00  0.00    +0.000 A 
ATOM     25  C   UNL     1       0.889   3.119  18.879  0.00  0.00    +0.000 A 
ATOM     26  C   UNL     1       1.142   2.701  20.183  0.00  0.00    +0.000 A 
ATOM     27  C   UNL     1       2.441   2.750  20.674  0.00  0.00    +0.000 A 
ATOM     28  F   UNL     1       2.684   2.362  21.934  0.00  0.00    +0.000 F 
ATOM     29  C   UNL     1       3.494   3.204  19.887  0.00  0.00    +0.000 A 
ENDBRANCH  22  23
ENDBRANCH  18  22
ENDBRANCH   3  18
TORSDOF 6
ENDMDL
MODEL 2
REMARK VINA RESULT:      -8.1      3.020      8.183
REMARK  Name = 
REMARK  6 active torsions:
REMARK  status: ('A' for Active; 'I' for Inactive)
REMARK    1  A    between atoms: C_2  and  C_16
REMARK    2  A    between atoms: N_3  and  C_4
REMARK    3  A    between atoms: C_4  and  C_5
REMARK    4  A    between atoms: C_5  and  C_6
REMARK    5  A    between atoms: C_20  and  O_21
REMARK    6  A    between atoms: O_21  and  C_22
REMARK                            x       y       z     vdW  Elec       q    Type
REMARK                         _______ _______ _______ _____ _____    ______ ____
ROOT
ATOM      1  O   UNL     1       2.275   8.004  18.882  0.00  0.00    +0.000 OA
ATOM      2  C   UNL     1       2.195   7.204  19.808  0.00  0.00    +0.000 C 
ATOM      3  N   UNL     1       1.558   7.477  21.000  0.00  0.00    +0.000 N 
ATOM      4  H   UNL     1       1.637   6.811  21.756  0.00  0.00    +0.000 HD
ENDROOT
BRANCH   2   5
ATOM      5  C   UNL     1       2.810   5.865  19.664  0.00  0.00    +0.000 A 
ATOM      6  C   UNL     1       2.040   4.768  20.065  0.00  0.00    +0.000 A 
ATOM      7  C   UNL     1       2.577   3.487  20.034  0.00  0.00    +0.000 A 
ATOM      8  C   UNL     1       3.886   3.300  19.601  0.00  0.00    +0.000 A 
ATOM      9  C   UNL     1       4.650   4.386  19.151  0.00  0.00    +0.000 A 
ATOM     10  C   UNL     1       4.124   5.680  19.214  0.00  0.00    +0.000 A 
BRANCH   9  11
ATOM     11  O   UNL     1       5.951   4.264  18.716  0.00  0.00    +0.000 OA
BRANCH  11  12
ATOM     12  C   UNL     1       6.195   4.463  17.364  0.00  0.00    +0.000 A 
ATOM     13  C   UNL     1       7.151   5.405  17.015  0.00  0.00    +0.000 A 
ATOM     14  N   UNL     1       7.494   5.653  15.724  0.00  0.00    +0.000 NA
ATOM     15  C   UNL     1       6.830   4.918  14.803  0.00  0.00    +0.000 A 
ATOM     16  C   UNL     1       5.858   3.996  15.150  0.00  0.00    +0.000 A 
ATOM     17  N   UNL     1       5.507   3.760  16.433  0.00  0.00    +0.000 NA
ENDBRANCH  11  12
ENDBRANCH   9  11
ENDBRANCH   2   5
BRANCH   3  18
ATOM     18  C   UNL     1       0.859   8.773  21.233  0.00  0.00    +0.000 C 
ATOM     19  C   UNL     1       1.109   9.334  22.673  0.00  0.00    +0.000 C 
ATOM     20  C   UNL     1      -0.393   9.666  22.748  0.00  0.00    +0.000 C 
ATOM     21  C   UNL     1      -0.624   8.570  21.693  0.00  0.00    +0.000 C 
BRANCH  18  22
ATOM     22  C   UNL     1       1.160   9.801  20.127  0.00  0.00    +0.000 C 
BRANCH  22  23
ATOM     23  C   UNL     1      -0.080  10.391  19.492  0.00  0.00    +0.000 A 
ATOM     24  C   UNL     1      -0.645  11.583  19.978  0.00  0.00    +0.000 A 
ATOM     25  C   UNL     1      -1.823  12.095  19.426  0.00  0.00    +0.000 A 
ATOM     26  C   UNL     1      -2.455  11.414  18.388  0.00  0.00    +0.000 A 
ATOM     27  C   UNL     1      -1.900  10.234  17.910  0.00  0.00    +0.000 A 
ATOM     28  F   UNL     1      -2.515   9.570  16.921  0.00  0.00    +0.000 F 
ATOM     29  C   UNL     1      -0.722   9.721  18.445  0.00  0.00    +0.000 A 
ENDBRANCH  22  23
ENDBRANCH  18  22
ENDBRANCH   3  18
TORSDOF 6
ENDMDL
MODEL 3
REMARK VINA RESULT:      -8.0      1.178      1.487
REMARK  Name = 
REMARK  6 active torsions:
REMARK  status: ('A' for Active; 'I' for Inactive)
REMARK    1  A    between atoms: C_2  and  C_16
REMARK    2  A    between atoms: N_3  and  C_4
REMARK    3  A    between atoms: C_4  and  C_5
REMARK    4  A    between atoms: C_5  and  C_6
REMARK    5  A    between atoms: C_20  and  O_21
REMARK    6  A    between atoms: O_21  and  C_22
REMARK                            x       y       z     vdW  Elec       q    Type
REMARK                         _______ _______ _______ _____ _____    ______ ____
ROOT
ATOM      1  O   UNL     1       2.600   5.818  17.596  0.00  0.00    +0.000 OA
ATOM      2  C   UNL     1       3.020   6.313  18.636  0.00  0.00    +0.000 C 
ATOM      3  N   UNL     1       4.185   5.914  19.256  0.00  0.00    +0.000 N 
ATOM      4  H   UNL     1       4.401   6.288  20.169  0.00  0.00    +0.000 HD
ENDROOT
BRANCH   2   5
ATOM      5  C   UNL     1       2.250   7.399  19.284  0.00  0.00    +0.000 A 
ATOM      6  C   UNL     1       1.900   7.215  20.626  0.00  0.00    +0.000 A 
ATOM      7  C   UNL     1       1.110   8.153  21.279  0.00  0.00    +0.000 A 
ATOM      8  C   UNL     1       0.669   9.279  20.590  0.00  0.00    +0.000 A 
ATOM      9  C   UNL     1       1.052   9.497  19.260  0.00  0.00    +0.000 A 
ATOM     10  C   UNL     1       1.818   8.538  18.590  0.00  0.00    +0.000 A 
BRANCH   9  11
ATOM     11  O   UNL     1       0.643  10.589  18.527  0.00  0.00    +0.000 OA
BRANCH  11  12
ATOM     12  C   UNL     1      -0.717  10.727  18.288  0.00  0.00    +0.000 A 
ATOM     13  C   UNL     1      -1.390  11.732  18.965  0.00  0.00    +0.000 A 
ATOM     14  N   UNL     1      -2.713  11.978  18.780  0.00  0.00    +0.000 NA
ATOM     15  C   UNL     1      -3.329  11.167  17.890  0.00  0.00    +0.000 A 
ATOM     16  C   UNL     1      -2.663  10.146  17.233  0.00  0.00    +0.000 A 
ATOM     17  N   UNL     1      -1.350   9.893  17.429  0.00  0.00    +0.000 NA
ENDBRANCH  11  12
ENDBRANCH   9  11
ENDBRANCH   2   5
BRANCH   3  18
ATOM     18  C   UNL     1       5.066   4.867  18.664  0.00  0.00    +0.000 C 
ATOM     19  C   UNL     1       6.573   5.288  18.660  0.00  0.00    +0.000 C 
ATOM     20  C   UNL     1       6.666   4.751  17.220  0.00  0.00    +0.000 C 
ATOM     21  C   UNL     1       5.148   4.978  17.105  0.00  0.00    +0.000 C 
BRANCH  18  22
ATOM     22  C   UNL     1       4.830   3.484  19.300  0.00  0.00    +0.000 C 
BRANCH  22  23
ATOM     23  C   UNL     1       3.407   3.264  19.763  0.00  0.00    +0.000 A 
ATOM     24  C   UNL     1       3.045   3.457  21.108  0.00  0.00    +0.000 A 
ATOM     25  C   UNL     1       1.742   3.198  21.545  0.00  0.00    +0.000 A 
ATOM     26  C   UNL     1       0.789   2.733  20.642  0.00  0.00    +0.000 A 
ATOM     27  C   UNL     1       1.146   2.539  19.314  0.00  0.00    +0.000 A 
ATOM     28  F   UNL     1       0.233   2.077  18.447  0.00  0.00    +0.000 F 
ATOM     29  C   UNL     1       2.437   2.803  18.867  0.00  0.00    +0.000 A 
ENDBRANCH  22  23
ENDBRANCH  18  22
ENDBRANCH   3  18
TORSDOF 6
ENDMDL
MODEL 4
REMARK VINA RESULT:      -8.0      0.876      1.038
REMARK  Name = 
REMARK  6 active torsions:
REMARK  status: ('A' for Active; 'I' for Inactive)
REMARK    1  A    between atoms: C_2  and  C_16
REMARK    2  A    between atoms: N_3  and  C_4
REMARK    3  A    between atoms: C_4  and  C_5
REMARK    4  A    between atoms: C_5  and  C_6
REMARK    5  A    between atoms: C_20  and  O_21
REMARK    6  A    between atoms: O_21  and  C_22
REMARK                            x       y       z     vdW  Elec       q    Type
REMARK                         _______ _______ _______ _____ _____    ______ ____
ROOT
ATOM      1  O   UNL     1       2.320   5.956  17.651  0.00  0.00    +0.000 OA
ATOM      2  C   UNL     1       2.882   6.675  18.469  0.00  0.00    +0.000 C 
ATOM      3  N   UNL     1       4.220   6.574  18.784  0.00  0.00    +0.000 N 
ATOM      4  H   UNL     1       4.581   7.122  19.552  0.00  0.00    +0.000 HD
ENDROOT
BRANCH   2   5
ATOM      5  C   UNL     1       2.101   7.718  19.174  0.00  0.00    +0.000 A 
ATOM      6  C   UNL     1       1.846   7.507  20.534  0.00  0.00    +0.000 A 
ATOM      7  C   UNL     1       1.053   8.401  21.243  0.00  0.00    +0.000 A 
ATOM      8  C   UNL     1       0.513   9.507  20.594  0.00  0.00    +0.000 A 
ATOM      9  C   UNL     1       0.802   9.753  19.245  0.00  0.00    +0.000 A 
ATOM     10  C   UNL     1       1.570   8.838  18.519  0.00  0.00    +0.000 A 
BRANCH   9  11
ATOM     11  O   UNL     1       0.293  10.828  18.548  0.00  0.00    +0.000 OA
BRANCH  11  12
ATOM     12  C   UNL     1      -1.056  10.800  18.225  0.00  0.00    +0.000 A 
ATOM     13  C   UNL     1      -1.887  11.714  18.853  0.00  0.00    +0.000 A 
ATOM     14  N   UNL     1      -3.216  11.799  18.584  0.00  0.00    +0.000 NA
ATOM     15  C   UNL     1      -3.671  10.922  17.661  0.00  0.00    +0.000 A 
ATOM     16  C   UNL     1      -2.847   9.992  17.051  0.00  0.00    +0.000 A 
ATOM     17  N   UNL     1      -1.528   9.899  17.331  0.00  0.00    +0.000 NA
ENDBRANCH  11  12
ENDBRANCH   9  11
ENDBRANCH   2   5
BRANCH   3  18
ATOM     18  C   UNL     1       5.112   5.596  18.097  0.00  0.00    +0.000 C 
ATOM     19  C   UNL     1       6.494   6.221  17.710  0.00  0.00    +0.000 C 
ATOM     20  C   UNL     1       6.363   5.532  16.339  0.00  0.00    +0.000 C 
ATOM     21  C   UNL     1       4.839   5.529  16.558  0.00  0.00    +0.000 C 
BRANCH  18  22
ATOM     22  C   UNL     1       5.247   4.281  18.887  0.00  0.00    +0.000 C 
BRANCH  22  23
ATOM     23  C   UNL     1       3.969   3.475  18.946  0.00  0.00    +0.000 A 
ATOM     24  C   UNL     1       3.530   2.729  17.838  0.00  0.00    +0.000 A 
ATOM     25  C   UNL     1       2.319   2.031  17.877  0.00  0.00    +0.000 A 
ATOM     26  C   UNL     1       1.528   2.079  19.021  0.00  0.00    +0.000 A 
ATOM     27  C   UNL     1       1.958   2.819  20.117  0.00  0.00    +0.000 A 
ATOM     28  F   UNL     1       1.190   2.878  21.214  0.00  0.00    +0.000 F 
ATOM     29  C   UNL     1       3.166   3.509  20.092  0.00  0.00    +0.000 A 
ENDBRANCH  22  23
ENDBRANCH  18  22
ENDBRANCH   3  18
TORSDOF 6
ENDMDL
MODEL 5
REMARK VINA RESULT:      -8.0      2.585      4.328
REMARK  Name = 
REMARK  6 active torsions:
REMARK  status: ('A' for Active; 'I' for Inactive)
REMARK    1  A    between atoms: C_2  and  C_16
REMARK    2  A    between atoms: N_3  and  C_4
REMARK    3  A    between atoms: C_4  and  C_5
REMARK    4  A    between atoms: C_5  and  C_6
REMARK    5  A    between atoms: C_20  and  O_21
REMARK    6  A    between atoms: O_21  and  C_22
REMARK                            x       y       z     vdW  Elec       q    Type
REMARK                         _______ _______ _______ _____ _____    ______ ____
ROOT
ATOM      1  O   UNL     1       3.637   5.821  19.924  0.00  0.00    +0.000 OA
ATOM      2  C   UNL     1       2.994   6.174  18.942  0.00  0.00    +0.000 C 
ATOM      3  N   UNL     1       2.881   5.422  17.792  0.00  0.00    +0.000 N 
ATOM      4  H   UNL     1       2.432   5.833  16.986  0.00  0.00    +0.000 HD
ENDROOT
BRANCH   2   5
ATOM      5  C   UNL     1       2.293   7.478  18.966  0.00  0.00    +0.000 A 
ATOM      6  C   UNL     1       2.252   8.198  17.767  0.00  0.00    +0.000 A 
ATOM      7  C   UNL     1       1.681   9.464  17.730  0.00  0.00    +0.000 A 
ATOM      8  C   UNL     1       1.150  10.014  18.893  0.00  0.00    +0.000 A 
ATOM      9  C   UNL     1       1.143   9.282  20.088  0.00  0.00    +0.000 A 
ATOM     10  C   UNL     1       1.747   8.022  20.137  0.00  0.00    +0.000 A 
BRANCH   9  11
ATOM     11  O   UNL     1       0.635   9.774  21.271  0.00  0.00    +0.000 OA
BRANCH  11  12
ATOM     12  C   UNL     1       0.180  11.085  21.275  0.00  0.00    +0.000 A 
ATOM     13  C   UNL     1      -1.174  11.297  21.070  0.00  0.00    +0.000 A 
ATOM     14  N   UNL     1      -1.731  12.535  21.091  0.00  0.00    +0.000 NA
ATOM     15  C   UNL     1      -0.867  13.550  21.321  0.00  0.00    +0.000 A 
ATOM     16  C   UNL     1       0.490  13.341  21.501  0.00  0.00    +0.000 A 
ATOM     17  N   UNL     1       1.045  12.110  21.466  0.00  0.00    +0.000 NA
ENDBRANCH  11  12
ENDBRANCH   9  11
ENDBRANCH   2   5
BRANCH   3  18
ATOM     18  C   UNL     1       3.501   4.071  17.679  0.00  0.00    +0.000 C 
ATOM     19  C   UNL     1       2.485   2.989  17.181  0.00  0.00    +0.000 C 
ATOM     20  C   UNL     1       3.040   2.044  18.262  0.00  0.00    +0.000 C 
ATOM     21  C   UNL     1       3.484   3.297  19.039  0.00  0.00    +0.000 C 
BRANCH  18  22
ATOM     22  C   UNL     1       4.801   4.098  16.855  0.00  0.00    +0.000 C 
BRANCH  22  23
ATOM     23  C   UNL     1       5.807   5.117  17.342  0.00  0.00    +0.000 A 
ATOM     24  C   UNL     1       5.921   6.375  16.725  0.00  0.00    +0.000 A 
ATOM     25  C   UNL     1       6.891   7.293  17.142  0.00  0.00    +0.000 A 
ATOM     26  C   UNL     1       7.764   6.958  18.173  0.00  0.00    +0.000 A 
ATOM     27  C   UNL     1       7.655   5.714  18.781  0.00  0.00    +0.000 A 
ATOM     28  F   UNL     1       8.505   5.385  19.764  0.00  0.00    +0.000 F 
ATOM     29  C   UNL     1       6.688   4.797  18.382  0.00  0.00    +0.000 A 
ENDBRANCH  22  23
ENDBRANCH  18  22
ENDBRANCH   3  18
TORSDOF 6
ENDMDL
MODEL 6
REMARK VINA RESULT:      -7.9      2.205      3.799
REMARK  Name = 
REMARK  6 active torsions:
REMARK  status: ('A' for Active; 'I' for Inactive)
REMARK    1  A    between atoms: C_2  and  C_16
REMARK    2  A    between atoms: N_3  and  C_4
REMARK    3  A    between atoms: C_4  and  C_5
REMARK    4  A    between atoms: C_5  and  C_6
REMARK    5  A    between atoms: C_20  and  O_21
REMARK    6  A    between atoms: O_21  and  C_22
REMARK                            x       y       z     vdW  Elec       q    Type
REMARK                         _______ _______ _______ _____ _____    ______ ____
ROOT
ATOM      1  O   UNL     1       4.060   5.924  19.845  0.00  0.00    +0.000 OA
ATOM      2  C   UNL     1       3.067   6.205  19.183  0.00  0.00    +0.000 C 
ATOM      3  N   UNL     1       2.691   5.526  18.044  0.00  0.00    +0.000 N 
ATOM      4  H   UNL     1       1.929   5.892  17.491  0.00  0.00    +0.000 HD
ENDROOT
BRANCH   2   5
ATOM      5  C   UNL     1       2.208   7.333  19.611  0.00  0.00    +0.000 A 
ATOM      6  C   UNL     1       1.717   7.295  20.920  0.00  0.00    +0.000 A 
ATOM      7  C   UNL     1       0.841   8.276  21.368  0.00  0.00    +0.000 A 
ATOM      8  C   UNL     1       0.455   9.298  20.507  0.00  0.00    +0.000 A 
ATOM      9  C   UNL     1       0.978   9.373  19.209  0.00  0.00    +0.000 A 
ATOM     10  C   UNL     1       1.832   8.369  18.744  0.00  0.00    +0.000 A 
BRANCH   9  11
ATOM     11  O   UNL     1       0.630  10.358  18.311  0.00  0.00    +0.000 OA
BRANCH  11  12
ATOM     12  C   UNL     1      -0.723  10.605  18.125  0.00  0.00    +0.000 A 
ATOM     13  C   UNL     1      -1.266  11.717  18.750  0.00  0.00    +0.000 A 
ATOM     14  N   UNL     1      -2.569  12.072  18.606  0.00  0.00    +0.000 NA
ATOM     15  C   UNL     1      -3.301  11.258  17.812  0.00  0.00    +0.000 A 
ATOM     16  C   UNL     1      -2.766  10.133  17.208  0.00  0.00    +0.000 A 
ATOM     17  N   UNL     1      -1.473   9.773  17.364  0.00  0.00    +0.000 NA
ENDBRANCH  11  12
ENDBRANCH   9  11
ENDBRANCH   2   5
BRANCH   3  18
ATOM     18  C   UNL     1       3.452   4.341  17.554  0.00  0.00    +0.000 C 
ATOM     19  C   UNL     1       2.512   3.197  17.047  0.00  0.00    +0.000 C 
ATOM     20  C   UNL     1       3.408   2.197  17.800  0.00  0.00    +0.000 C 
ATOM     21  C   UNL     1       3.831   3.362  18.714  0.00  0.00    +0.000 C 
BRANCH  18  22
ATOM     22  C   UNL     1       4.532   4.731  16.527  0.00  0.00    +0.000 C 
BRANCH  22  23
ATOM     23  C   UNL     1       5.753   5.376  17.146  0.00  0.00    +0.000 A 
ATOM     24  C   UNL     1       6.592   4.655  18.013  0.00  0.00    +0.000 A 
ATOM     25  C   UNL     1       7.687   5.271  18.627  0.00  0.00    +0.000 A 
ATOM     26  C   UNL     1       7.948   6.617  18.389  0.00  0.00    +0.000 A 
ATOM     27  C   UNL     1       7.117   7.332  17.535  0.00  0.00    +0.000 A 
ATOM     28  F   UNL     1       7.359   8.632  17.317  0.00  0.00    +0.000 F 
ATOM     29  C   UNL     1       6.031   6.727  16.910  0.00  0.00    +0.000 A 
ENDBRANCH  22  23
ENDBRANCH  18  22
ENDBRANCH   3  18
TORSDOF 6
ENDMDL
MODEL 7
REMARK VINA RESULT:      -7.9      3.332      8.281
REMARK  Name = 
REMARK  6 active torsions:
REMARK  status: ('A' for Active; 'I' for Inactive)
REMARK    1  A    between atoms: C_2  and  C_16
REMARK    2  A    between atoms: N_3  and  C_4
REMARK    3  A    between atoms: C_4  and  C_5
REMARK    4  A    between atoms: C_5  and  C_6
REMARK    5  A    between atoms: C_20  and  O_21
REMARK    6  A    between atoms: O_21  and  C_22
REMARK                            x       y       z     vdW  Elec       q    Type
REMARK                         _______ _______ _______ _____ _____    ______ ____
ROOT
ATOM      1  O   UNL     1       1.990   7.691  18.769  0.00  0.00    +0.000 OA
ATOM      2  C   UNL     1       2.163   7.038  19.792  0.00  0.00    +0.000 C 
ATOM      3  N   UNL     1       1.739   7.445  21.039  0.00  0.00    +0.000 N 
ATOM      4  H   UNL     1       2.022   6.908  21.846  0.00  0.00    +0.000 HD
ENDROOT
BRANCH   2   5
ATOM      5  C   UNL     1       2.866   5.737  19.710  0.00  0.00    +0.000 A 
ATOM      6  C   UNL     1       2.195   4.621  20.224  0.00  0.00    +0.000 A 
ATOM      7  C   UNL     1       2.821   3.381  20.255  0.00  0.00    +0.000 A 
ATOM      8  C   UNL     1       4.119   3.254  19.771  0.00  0.00    +0.000 A 
ATOM      9  C   UNL     1       4.782   4.354  19.210  0.00  0.00    +0.000 A 
ATOM     10  C   UNL     1       4.169   5.610  19.209  0.00  0.00    +0.000 A 
BRANCH   9  11
ATOM     11  O   UNL     1       6.068   4.290  18.720  0.00  0.00    +0.000 OA
BRANCH  11  12
ATOM     12  C   UNL     1       6.243   4.475  17.355  0.00  0.00    +0.000 A 
ATOM     13  C   UNL     1       7.230   5.358  16.947  0.00  0.00    +0.000 A 
ATOM     14  N   UNL     1       7.510   5.586  15.638  0.00  0.00    +0.000 NA
ATOM     15  C   UNL     1       6.751   4.891  14.759  0.00  0.00    +0.000 A 
ATOM     16  C   UNL     1       5.749   4.028  15.166  0.00  0.00    +0.000 A 
ATOM     17  N   UNL     1       5.461   3.813  16.469  0.00  0.00    +0.000 NA
ENDBRANCH  11  12
ENDBRANCH   9  11
ENDBRANCH   2   5
BRANCH   3  18
ATOM     18  C   UNL     1       0.975   8.711  21.229  0.00  0.00    +0.000 C 
ATOM     19  C   UNL     1       1.098   9.267  22.687  0.00  0.00    +0.000 C 
ATOM     20  C   UNL     1      -0.417   9.541  22.655  0.00  0.00    +0.000 C 
ATOM     21  C   UNL     1      -0.528   8.447  21.579  0.00  0.00    +0.000 C 
BRANCH  18  22
ATOM     22  C   UNL     1       1.315   9.760  20.155  0.00  0.00    +0.000 C 
BRANCH  22  23
ATOM     23  C   UNL     1       0.100  10.446  19.570  0.00  0.00    +0.000 A 
ATOM     24  C   UNL     1      -0.610   9.873  18.500  0.00  0.00    +0.000 A 
ATOM     25  C   UNL     1      -1.698  10.537  17.924  0.00  0.00    +0.000 A 
ATOM     26  C   UNL     1      -2.080  11.786  18.405  0.00  0.00    +0.000 A 
ATOM     27  C   UNL     1      -1.377  12.355  19.460  0.00  0.00    +0.000 A 
ATOM     28  F   UNL     1      -1.736  13.564  19.915  0.00  0.00    +0.000 F 
ATOM     29  C   UNL     1      -0.300  11.699  20.047  0.00  0.00    +0.000 A 
ENDBRANCH  22  23
ENDBRANCH  18  22
ENDBRANCH   3  18
TORSDOF 6
ENDMDL
MODEL 8
REMARK VINA RESULT:      -7.8      0.794      1.116
REMARK  Name = 
REMARK  6 active torsions:
REMARK  status: ('A' for Active; 'I' for Inactive)
REMARK    1  A    between atoms: C_2  and  C_16
REMARK    2  A    between atoms: N_3  and  C_4
REMARK    3  A    between atoms: C_4  and  C_5
REMARK    4  A    between atoms: C_5  and  C_6
REMARK    5  A    between atoms: C_20  and  O_21
REMARK    6  A    between atoms: O_21  and  C_22
REMARK                            x       y       z     vdW  Elec       q    Type
REMARK                         _______ _______ _______ _____ _____    ______ ____
ROOT
ATOM      1  O   UNL     1       3.387   7.429  16.928  0.00  0.00    +0.000 OA
ATOM      2  C   UNL     1       3.181   7.184  18.111  0.00  0.00    +0.000 C 
ATOM      3  N   UNL     1       3.781   6.146  18.792  0.00  0.00    +0.000 N 
ATOM      4  H   UNL     1       3.470   5.937  19.730  0.00  0.00    +0.000 HD
ENDROOT
BRANCH   2   5
ATOM      5  C   UNL     1       2.239   8.034  18.873  0.00  0.00    +0.000 A 
ATOM      6  C   UNL     1       1.922   7.622  20.172  0.00  0.00    +0.000 A 
ATOM      7  C   UNL     1       0.985   8.324  20.921  0.00  0.00    +0.000 A 
ATOM      8  C   UNL     1       0.363   9.441  20.371  0.00  0.00    +0.000 A 
ATOM      9  C   UNL     1       0.707   9.890  19.089  0.00  0.00    +0.000 A 
ATOM     10  C   UNL     1       1.624   9.166  18.320  0.00  0.00    +0.000 A 
BRANCH   9  11
ATOM     11  O   UNL     1       0.123  10.985  18.491  0.00  0.00    +0.000 OA
BRANCH  11  12
ATOM     12  C   UNL     1      -1.239  10.922  18.232  0.00  0.00    +0.000 A 
ATOM     13  C   UNL     1      -1.681   9.955  17.344  0.00  0.00    +0.000 A 
ATOM     14  N   UNL     1      -2.995   9.782  17.046  0.00  0.00    +0.000 NA
ATOM     15  C   UNL     1      -3.842  10.627  17.676  0.00  0.00    +0.000 A 
ATOM     16  C   UNL     1      -3.399  11.611  18.544  0.00  0.00    +0.000 A 
ATOM     17  N   UNL     1      -2.090  11.791  18.828  0.00  0.00    +0.000 NA
ENDBRANCH  11  12
ENDBRANCH   9  11
ENDBRANCH   2   5
BRANCH   3  18
ATOM     18  C   UNL     1       4.786   5.260  18.137  0.00  0.00    +0.000 C 
ATOM     19  C   UNL     1       6.233   5.856  18.196  0.00  0.00    +0.000 C 
ATOM     20  C   UNL     1       6.404   5.450  16.721  0.00  0.00    +0.000 C 
ATOM     21  C   UNL     1       4.871   5.504  16.593  0.00  0.00    +0.000 C 
BRANCH  18  22
ATOM     22  C   UNL     1       4.710   3.813  18.659  0.00  0.00    +0.000 C 
BRANCH  22  23
ATOM     23  C   UNL     1       3.316   3.385  19.060  0.00  0.00    +0.000 A 
ATOM     24  C   UNL     1       2.305   3.217  18.098  0.00  0.00    +0.000 A 
ATOM     25  C   UNL     1       1.003   2.876  18.478  0.00  0.00    +0.000 A 
ATOM     26  C   UNL     1       0.696   2.711  19.826  0.00  0.00    +0.000 A 
ATOM     27  C   UNL     1       1.693   2.880  20.779  0.00  0.00    +0.000 A 
ATOM     28  F   UNL     1       1.395   2.736  22.078  0.00  0.00    +0.000 F 
ATOM     29  C   UNL     1       2.994   3.209  20.411  0.00  0.00    +0.000 A 
ENDBRANCH  22  23
ENDBRANCH  18  22
ENDBRANCH   3  18
TORSDOF 6
ENDMDL
MODEL 9
REMARK VINA RESULT:      -7.8      2.703      4.441
REMARK  Name = 
REMARK  6 active torsions:
REMARK  status: ('A' for Active; 'I' for Inactive)
REMARK    1  A    between atoms: C_2  and  C_16
REMARK    2  A    between atoms: N_3  and  C_4
REMARK    3  A    between atoms: C_4  and  C_5
REMARK    4  A    between atoms: C_5  and  C_6
REMARK    5  A    between atoms: C_20  and  O_21
REMARK    6  A    between atoms: O_21  and  C_22
REMARK                            x       y       z     vdW  Elec       q    Type
REMARK                         _______ _______ _______ _____ _____    ______ ____
ROOT
ATOM      1  O   UNL     1       2.350   5.655  20.828  0.00  0.00    +0.000 OA
ATOM      2  C   UNL     1       2.337   6.064  19.672  0.00  0.00    +0.000 C 
ATOM      3  N   UNL     1       2.671   5.287  18.584  0.00  0.00    +0.000 N 
ATOM      4  H   UNL     1       2.750   5.728  17.678  0.00  0.00    +0.000 HD
ENDROOT
BRANCH   2   5
ATOM      5  C   UNL     1       1.945   7.466  19.404  0.00  0.00    +0.000 A 
ATOM      6  C   UNL     1       2.241   7.975  18.135  0.00  0.00    +0.000 A 
ATOM      7  C   UNL     1       1.977   9.306  17.835  0.00  0.00    +0.000 A 
ATOM      8  C   UNL     1       1.414  10.131  18.805  0.00  0.00    +0.000 A 
ATOM      9  C   UNL     1       1.069   9.619  20.063  0.00  0.00    +0.000 A 
ATOM     10  C   UNL     1       1.366   8.290  20.380  0.00  0.00    +0.000 A 
BRANCH   9  11
ATOM     11  O   UNL     1       0.515  10.387  21.063  0.00  0.00    +0.000 OA
BRANCH  11  12
ATOM     12  C   UNL     1       0.506  11.763  20.884  0.00  0.00    +0.000 A 
ATOM     13  C   UNL     1      -0.664  12.344  20.421  0.00  0.00    +0.000 A 
ATOM     14  N   UNL     1      -0.794  13.685  20.244  0.00  0.00    +0.000 NA
ATOM     15  C   UNL     1       0.305  14.413  20.547  0.00  0.00    +0.000 A 
ATOM     16  C   UNL     1       1.482  13.831  20.985  0.00  0.00    +0.000 A 
ATOM     17  N   UNL     1       1.615  12.496  21.146  0.00  0.00    +0.000 NA
ENDBRANCH  11  12
ENDBRANCH   9  11
ENDBRANCH   2   5
BRANCH   3  18
ATOM     18  C   UNL     1       3.029   3.847  18.733  0.00  0.00    +0.000 C 
ATOM     19  C   UNL     1       2.578   2.991  17.502  0.00  0.00    +0.000 C 
ATOM     20  C   UNL     1       2.071   1.927  18.494  0.00  0.00    +0.000 C 
ATOM     21  C   UNL     1       1.949   3.051  19.539  0.00  0.00    +0.000 C 
BRANCH  18  22
ATOM     22  C   UNL     1       4.515   3.653  19.087  0.00  0.00    +0.000 C 
BRANCH  22  23
ATOM     23  C   UNL     1       5.446   4.561  18.315  0.00  0.00    +0.000 A 
ATOM     24  C   UNL     1       5.454   4.565  16.909  0.00  0.00    +0.000 A 
ATOM     25  C   UNL     1       6.355   5.364  16.199  0.00  0.00    +0.000 A 
ATOM     26  C   UNL     1       7.267   6.159  16.887  0.00  0.00    +0.000 A 
ATOM     27  C   UNL     1       7.264   6.153  18.277  0.00  0.00    +0.000 A 
ATOM     28  F   UNL     1       8.152   6.907  18.941  0.00  0.00    +0.000 F 
ATOM     29  C   UNL     1       6.364   5.370  18.993  0.00  0.00    +0.000 A 
ENDBRANCH  22  23
ENDBRANCH  18  22
ENDBRANCH   3  18
TORSDOF 6
ENDMDL
