MODEL 1
REMARK VINA RESULT:      -8.7      0.000      0.000
REMARK  Name = 
REMARK  5 active torsions:
REMARK  status: ('A' for Active; 'I' for Inactive)
REMARK    1  A    between atoms: C_1  and  N_2
REMARK    2  A    between atoms: N_2  and  C_3
REMARK    3  A    between atoms: C_3  and  C_4
REMARK    4  A    between atoms: C_14  and  C_16
REMARK    5  A    between atoms: C_16  and  C_17
REMARK                            x       y       z     vdW  Elec       q    Type
REMARK                         _______ _______ _______ _____ _____    ______ ____
ROOT
ATOM      1  C   UNL     1       1.755   7.224  20.781  0.00  0.00    +0.000 C 
ATOM      2  N   UNL     1       1.528   8.311  19.831  0.00  0.00    +0.000 N 
ATOM      3  C   UNL     1       0.898   9.440  20.355  0.00  0.00    +0.000 C 
ATOM      4  O   UNL     1       0.481   9.397  21.523  0.00  0.00    +0.000 OA
ENDROOT
BRANCH   3   5
ATOM      5  C   UNL     1       0.687  10.765  19.532  0.00  0.00    +0.000 C 
ATOM      6  C   UNL     1       1.838  10.924  18.480  0.00  0.00    +0.000 C 
ATOM      7  C   UNL     1       1.977  12.420  18.197  0.00  0.00    +0.000 C 
ATOM      8  C   UNL     1       1.415  13.124  19.414  0.00  0.00    +0.000 C 
ATOM      9  C   UNL     1       1.017  12.012  20.373  0.00  0.00    +0.000 C 
BRANCH   5  10
ATOM     10  C   UNL     1      -0.662  10.747  18.795  0.00  0.00    +0.000 A 
ATOM     11  C   UNL     1      -0.885  10.008  17.621  0.00  0.00    +0.000 A 
ATOM     12  C   UNL     1      -2.106  10.067  16.943  0.00  0.00    +0.000 A 
ATOM     13  C   UNL     1      -3.147  10.830  17.454  0.00  0.00    +0.000 A 
ATOM     14  C   UNL     1      -2.971  11.531  18.648  0.00  0.00    +0.000 A 
ATOM     15  C   UNL     1      -1.733  11.518  19.293  0.00  0.00    +0.000 A 
ATOM     16  O   UNL     1      -3.971  12.257  19.242  0.00  0.00    +0.000 OA
ATOM     17  C   UNL     1      -5.252  11.863  18.735  0.00  0.00    +0.000 C 
ATOM     18  C   UNL     1      -5.227  11.828  17.216  0.00  0.00    +0.000 C 
ATOM     19  O   UNL     1      -4.318  10.829  16.741  0.00  0.00    +0.000 OA
ENDBRANCH   5  10
ENDBRANCH   3   5
BRANCH   2  20
ATOM     20  C   UNL     1       2.208   8.167  18.541  0.00  0.00    +0.000 C 
BRANCH  20  21
ATOM     21  C   UNL     1       2.694   6.777  18.200  0.00  0.00    +0.000 A 
ATOM     22  C   UNL     1       4.050   6.493  17.970  0.00  0.00    +0.000 A 
ATOM     23  C   UNL     1       4.490   5.166  17.889  0.00  0.00    +0.000 A 
ATOM     24  C   UNL     1       3.578   4.118  18.004  0.00  0.00    +0.000 A 
ATOM     25  C   UNL     1       2.218   4.393  18.166  0.00  0.00    +0.000 A 
ATOM     26  C   UNL     1       1.771   5.714  18.203  0.00  0.00    +0.000 A 
ATOM     27  O   UNL     1       1.270   3.420  18.364  0.00  0.00    +0.000 OA
ATOM     28  C   UNL     1       1.874   2.174  18.734  0.00  0.00    +0.000 C 
ATOM     29  C   UNL     1       3.054   1.871  17.825  0.00  0.00    +0.000 C 
ATOM     30  O   UNL     1       4.090   2.846  17.996  0.00  0.00    +0.000 OA
ENDBRANCH  20  21
ENDBRANCH   2  20
TORSDOF 4
ENDMDL
MODEL 2
REMARK VINA RESULT:      -8.7      1.260      2.066
REMARK  Name = 
REMARK  5 active torsions:
REMARK  status: ('A' for Active; 'I' for Inactive)
REMARK    1  A    between atoms: C_1  and  N_2
REMARK    2  A    between atoms: N_2  and  C_3
REMARK    3  A    between atoms: C_3  and  C_4
REMARK    4  A    between atoms: C_14  and  C_16
REMARK    5  A    between atoms: C_16  and  C_17
REMARK                            x       y       z     vdW  Elec       q    Type
REMARK                         _______ _______ _______ _____ _____    ______ ____
ROOT
ATOM      1  C   UNL     1       1.876   7.266  20.519  0.00  0.00    +0.000 C 
ATOM      2  N   UNL     1       1.552   8.395  19.649  0.00  0.00    +0.000 N 
ATOM      3  C   UNL     1       1.000   9.503  20.291  0.00  0.00    +0.000 C 
ATOM      4  O   UNL     1       0.721   9.412  21.497  0.00  0.00    +0.000 OA
ENDROOT
BRANCH   3   5
ATOM      5  C   UNL     1       0.708  10.865  19.556  0.00  0.00    +0.000 C 
ATOM      6  C   UNL     1       1.834  11.149  18.503  0.00  0.00    +0.000 C 
ATOM      7  C   UNL     1       1.891  12.665  18.314  0.00  0.00    +0.000 C 
ATOM      8  C   UNL     1       1.312  13.261  19.579  0.00  0.00    +0.000 C 
ATOM      9  C   UNL     1       0.986  12.072  20.470  0.00  0.00    +0.000 C 
BRANCH   5  10
ATOM     10  C   UNL     1      -0.649  10.822  18.835  0.00  0.00    +0.000 A 
ATOM     11  C   UNL     1      -0.881  10.055  17.681  0.00  0.00    +0.000 A 
ATOM     12  C   UNL     1      -2.109  10.091  17.016  0.00  0.00    +0.000 A 
ATOM     13  C   UNL     1      -3.149  10.860  17.521  0.00  0.00    +0.000 A 
ATOM     14  C   UNL     1      -2.964  11.589  18.696  0.00  0.00    +0.000 A 
ATOM     15  C   UNL     1      -1.719  11.598  19.328  0.00  0.00    +0.000 A 
ATOM     16  O   UNL     1      -3.961  12.323  19.284  0.00  0.00    +0.000 OA
ATOM     17  C   UNL     1      -5.245  11.910  18.801  0.00  0.00    +0.000 C 
ATOM     18  C   UNL     1      -5.238  11.840  17.283  0.00  0.00    +0.000 C 
ATOM     19  O   UNL     1      -4.328  10.836  16.822  0.00  0.00    +0.000 OA
ENDBRANCH   5  10
ENDBRANCH   3   5
BRANCH   2  20
ATOM     20  C   UNL     1       2.076   8.304  18.284  0.00  0.00    +0.000 C 
BRANCH  20  21
ATOM     21  C   UNL     1       2.895   7.073  17.970  0.00  0.00    +0.000 A 
ATOM     22  C   UNL     1       2.402   5.773  18.170  0.00  0.00    +0.000 A 
ATOM     23  C   UNL     1       3.090   4.669  17.654  0.00  0.00    +0.000 A 
ATOM     24  C   UNL     1       4.289   4.851  16.966  0.00  0.00    +0.000 A 
ATOM     25  C   UNL     1       4.821   6.134  16.821  0.00  0.00    +0.000 A 
ATOM     26  C   UNL     1       4.159   7.232  17.371  0.00  0.00    +0.000 A 
ATOM     27  O   UNL     1       5.953   6.405  16.092  0.00  0.00    +0.000 OA
ATOM     28  C   UNL     1       6.294   5.306  15.237  0.00  0.00    +0.000 C 
ATOM     29  C   UNL     1       6.213   3.997  16.004  0.00  0.00    +0.000 C 
ATOM     30  O   UNL     1       4.868   3.734  16.419  0.00  0.00    +0.000 OA
ENDBRANCH  20  21
ENDBRANCH   2  20
TORSDOF 4
ENDMDL
MODEL 3
REMARK VINA RESULT:      -8.6      3.610      6.512
REMARK  Name = 
REMARK  5 active torsions:
REMARK  status: ('A' for Active; 'I' for Inactive)
REMARK    1  A    between atoms: C_1  and  N_2
REMARK    2  A    between atoms: N_2  and  C_3
REMARK    3  A    between atoms: C_3  and  C_4
REMARK    4  A    between atoms: C_14  and  C_16
REMARK    5  A    between atoms: C_16  and  C_17
REMARK                            x       y       z     vdW  Elec       q    Type
REMARK                         _______ _______ _______ _____ _____    ______ ____
ROOT
ATOM      1  C   UNL     1       5.151   3.771  14.190  0.00  0.00    +0.000 C 
ATOM      2  N   UNL     1       5.542   4.070  15.567  0.00  0.00    +0.000 N 
ATOM      3  C   UNL     1       5.880   5.400  15.816  0.00  0.00    +0.000 C 
ATOM      4  O   UNL     1       5.939   6.186  14.857  0.00  0.00    +0.000 OA
ENDROOT
BRANCH   3   5
ATOM      5  C   UNL     1       6.197   5.951  17.256  0.00  0.00    +0.000 C 
ATOM      6  C   UNL     1       7.277   7.083  17.163  0.00  0.00    +0.000 C 
ATOM      7  C   UNL     1       8.002   7.117  18.508  0.00  0.00    +0.000 C 
ATOM      8  C   UNL     1       7.817   5.740  19.111  0.00  0.00    +0.000 C 
ATOM      9  C   UNL     1       7.034   4.950  18.073  0.00  0.00    +0.000 C 
BRANCH   5  10
ATOM     10  C   UNL     1       4.932   6.521  17.918  0.00  0.00    +0.000 A 
ATOM     11  C   UNL     1       4.432   6.054  19.145  0.00  0.00    +0.000 A 
ATOM     12  C   UNL     1       3.243   6.553  19.685  0.00  0.00    +0.000 A 
ATOM     13  C   UNL     1       2.555   7.565  19.029  0.00  0.00    +0.000 A 
ATOM     14  C   UNL     1       3.058   8.085  17.837  0.00  0.00    +0.000 A 
ATOM     15  C   UNL     1       4.215   7.547  17.269  0.00  0.00    +0.000 A 
ATOM     16  O   UNL     1       2.465   9.124  17.166  0.00  0.00    +0.000 OA
ATOM     17  C   UNL     1       1.572   9.839  18.028  0.00  0.00    +0.000 C 
ATOM     18  C   UNL     1       0.656   8.869  18.756  0.00  0.00    +0.000 C 
ATOM     19  O   UNL     1       1.404   8.012  19.625  0.00  0.00    +0.000 OA
ENDBRANCH   5  10
ENDBRANCH   3   5
BRANCH   2  20
ATOM     20  C   UNL     1       5.287   3.001  16.536  0.00  0.00    +0.000 C 
BRANCH  20  21
ATOM     21  C   UNL     1       4.112   3.214  17.463  0.00  0.00    +0.000 A 
ATOM     22  C   UNL     1       2.836   3.558  16.989  0.00  0.00    +0.000 A 
ATOM     23  C   UNL     1       1.730   3.518  17.846  0.00  0.00    +0.000 A 
ATOM     24  C   UNL     1       1.894   3.168  19.185  0.00  0.00    +0.000 A 
ATOM     25  C   UNL     1       3.170   2.890  19.681  0.00  0.00    +0.000 A 
ATOM     26  C   UNL     1       4.280   2.971  18.840  0.00  0.00    +0.000 A 
ATOM     27  O   UNL     1       3.405   2.463  20.964  0.00  0.00    +0.000 OA
ATOM     28  C   UNL     1       2.198   2.009  21.589  0.00  0.00    +0.000 C 
ATOM     29  C   UNL     1       1.072   2.999  21.342  0.00  0.00    +0.000 C 
ATOM     30  O   UNL     1       0.757   3.072  19.946  0.00  0.00    +0.000 OA
ENDBRANCH  20  21
ENDBRANCH   2  20
TORSDOF 4
ENDMDL
MODEL 4
REMARK VINA RESULT:      -8.6      3.331      6.363
REMARK  Name = 
REMARK  5 active torsions:
REMARK  status: ('A' for Active; 'I' for Inactive)
REMARK    1  A    between atoms: C_1  and  N_2
REMARK    2  A    between atoms: N_2  and  C_3
REMARK    3  A    between atoms: C_3  and  C_4
REMARK    4  A    between atoms: C_14  and  C_16
REMARK    5  A    between atoms: C_16  and  C_17
REMARK                            x       y       z     vdW  Elec       q    Type
REMARK                         _______ _______ _______ _____ _____    ______ ____
ROOT
ATOM      1  C   UNL     1       6.837   5.383  19.405  0.00  0.00    +0.000 C 
ATOM      2  N   UNL     1       5.514   5.372  18.784  0.00  0.00    +0.000 N 
ATOM      3  C   UNL     1       4.482   4.887  19.587  0.00  0.00    +0.000 C 
ATOM      4  O   UNL     1       4.770   4.403  20.694  0.00  0.00    +0.000 OA
ENDROOT
BRANCH   3   5
ATOM      5  C   UNL     1       2.969   4.919  19.155  0.00  0.00    +0.000 C 
ATOM      6  C   UNL     1       2.112   4.086  20.169  0.00  0.00    +0.000 C 
ATOM      7  C   UNL     1       0.873   3.605  19.413  0.00  0.00    +0.000 C 
ATOM      8  C   UNL     1       1.258   3.605  17.949  0.00  0.00    +0.000 C 
ATOM      9  C   UNL     1       2.716   4.039  17.917  0.00  0.00    +0.000 C 
BRANCH   5  10
ATOM     10  C   UNL     1       2.436   6.361  19.118  0.00  0.00    +0.000 A 
ATOM     11  C   UNL     1       2.374   7.126  17.941  0.00  0.00    +0.000 A 
ATOM     12  C   UNL     1       1.944   8.456  17.958  0.00  0.00    +0.000 A 
ATOM     13  C   UNL     1       1.522   9.033  19.147  0.00  0.00    +0.000 A 
ATOM     14  C   UNL     1       1.521   8.279  20.321  0.00  0.00    +0.000 A 
ATOM     15  C   UNL     1       2.005   6.970  20.314  0.00  0.00    +0.000 A 
ATOM     16  O   UNL     1       1.064   8.763  21.519  0.00  0.00    +0.000 OA
ATOM     17  C   UNL     1       0.236   9.915  21.317  0.00  0.00    +0.000 C 
ATOM     18  C   UNL     1       0.926  10.900  20.388  0.00  0.00    +0.000 C 
ATOM     19  O   UNL     1       1.102  10.337  19.083  0.00  0.00    +0.000 OA
ENDBRANCH   5  10
ENDBRANCH   3   5
BRANCH   2  20
ATOM     20  C   UNL     1       5.413   6.094  17.513  0.00  0.00    +0.000 C 
BRANCH  20  21
ATOM     21  C   UNL     1       5.730   5.295  16.270  0.00  0.00    +0.000 A 
ATOM     22  C   UNL     1       4.887   4.274  15.800  0.00  0.00    +0.000 A 
ATOM     23  C   UNL     1       5.089   3.720  14.530  0.00  0.00    +0.000 A 
ATOM     24  C   UNL     1       6.151   4.154  13.738  0.00  0.00    +0.000 A 
ATOM     25  C   UNL     1       7.034   5.121  14.225  0.00  0.00    +0.000 A 
ATOM     26  C   UNL     1       6.860   5.644  15.506  0.00  0.00    +0.000 A 
ATOM     27  O   UNL     1       8.054   5.656  13.479  0.00  0.00    +0.000 OA
ATOM     28  C   UNL     1       7.877   5.379  12.084  0.00  0.00    +0.000 C 
ATOM     29  C   UNL     1       7.511   3.918  11.880  0.00  0.00    +0.000 C 
ATOM     30  O   UNL     1       6.241   3.625  12.476  0.00  0.00    +0.000 OA
ENDBRANCH  20  21
ENDBRANCH   2  20
TORSDOF 4
ENDMDL
MODEL 5
REMARK VINA RESULT:      -8.4      1.832      2.972
REMARK  Name = 
REMARK  5 active torsions:
REMARK  status: ('A' for Active; 'I' for Inactive)
REMARK    1  A    between atoms: C_1  and  N_2
REMARK    2  A    between atoms: N_2  and  C_3
REMARK    3  A    between atoms: C_3  and  C_4
REMARK    4  A    between atoms: C_14  and  C_16
REMARK    5  A    between atoms: C_16  and  C_17
REMARK                            x       y       z     vdW  Elec       q    Type
REMARK                         _______ _______ _______ _____ _____    ______ ____
ROOT
ATOM      1  C   UNL     1       2.662  11.855  17.926  0.00  0.00    +0.000 C 
ATOM      2  N   UNL     1       1.652  11.105  18.671  0.00  0.00    +0.000 N 
ATOM      3  C   UNL     1       1.041  11.802  19.714  0.00  0.00    +0.000 C 
ATOM      4  O   UNL     1       1.469  12.931  20.004  0.00  0.00    +0.000 OA
ENDROOT
BRANCH   3   5
ATOM      5  C   UNL     1      -0.162  11.220  20.547  0.00  0.00    +0.000 C 
ATOM      6  C   UNL     1      -0.432  12.133  21.792  0.00  0.00    +0.000 C 
ATOM      7  C   UNL     1      -1.087  11.251  22.854  0.00  0.00    +0.000 C 
ATOM      8  C   UNL     1      -0.671   9.833  22.527  0.00  0.00    +0.000 C 
ATOM      9  C   UNL     1       0.245   9.952  21.319  0.00  0.00    +0.000 C 
BRANCH   5  10
ATOM     10  C   UNL     1      -1.439  11.150  19.694  0.00  0.00    +0.000 A 
ATOM     11  C   UNL     1      -1.637  10.189  18.687  0.00  0.00    +0.000 A 
ATOM     12  C   UNL     1      -2.784  10.196  17.889  0.00  0.00    +0.000 A 
ATOM     13  C   UNL     1      -3.780  11.137  18.113  0.00  0.00    +0.000 A 
ATOM     14  C   UNL     1      -3.633  12.068  19.142  0.00  0.00    +0.000 A 
ATOM     15  C   UNL     1      -2.462  12.097  19.901  0.00  0.00    +0.000 A 
ATOM     16  O   UNL     1      -4.600  12.988  19.459  0.00  0.00    +0.000 OA
ATOM     17  C   UNL     1      -5.867  12.598  18.917  0.00  0.00    +0.000 C 
ATOM     18  C   UNL     1      -5.719  12.224  17.452  0.00  0.00    +0.000 C 
ATOM     19  O   UNL     1      -4.881  11.074  17.299  0.00  0.00    +0.000 OA
ENDBRANCH   5  10
ENDBRANCH   3   5
BRANCH   2  20
ATOM     20  C   UNL     1       1.248   9.832  18.070  0.00  0.00    +0.000 C 
BRANCH  20  21
ATOM     21  C   UNL     1       2.078   8.627  18.449  0.00  0.00    +0.000 A 
ATOM     22  C   UNL     1       1.818   7.871  19.604  0.00  0.00    +0.000 A 
ATOM     23  C   UNL     1       2.451   6.638  19.799  0.00  0.00    +0.000 A 
ATOM     24  C   UNL     1       3.371   6.168  18.862  0.00  0.00    +0.000 A 
ATOM     25  C   UNL     1       3.686   6.945  17.745  0.00  0.00    +0.000 A 
ATOM     26  C   UNL     1       3.089   8.194  17.571  0.00  0.00    +0.000 A 
ATOM     27  O   UNL     1       4.520   6.521  16.741  0.00  0.00    +0.000 OA
ATOM     28  C   UNL     1       4.725   5.103  16.801  0.00  0.00    +0.000 C 
ATOM     29  C   UNL     1       5.021   4.674  18.228  0.00  0.00    +0.000 C 
ATOM     30  O   UNL     1       3.893   4.918  19.077  0.00  0.00    +0.000 OA
ENDBRANCH  20  21
ENDBRANCH   2  20
TORSDOF 4
ENDMDL
MODEL 6
REMARK VINA RESULT:      -8.4      2.305      4.797
REMARK  Name = 
REMARK  5 active torsions:
REMARK  status: ('A' for Active; 'I' for Inactive)
REMARK    1  A    between atoms: C_1  and  N_2
REMARK    2  A    between atoms: N_2  and  C_3
REMARK    3  A    between atoms: C_3  and  C_4
REMARK    4  A    between atoms: C_14  and  C_16
REMARK    5  A    between atoms: C_16  and  C_17
REMARK                            x       y       z     vdW  Elec       q    Type
REMARK                         _______ _______ _______ _____ _____    ______ ____
ROOT
ATOM      1  C   UNL     1       1.837   7.506  20.760  0.00  0.00    +0.000 C 
ATOM      2  N   UNL     1       1.350   8.512  19.818  0.00  0.00    +0.000 N 
ATOM      3  C   UNL     1       0.512   9.484  20.364  0.00  0.00    +0.000 C 
ATOM      4  O   UNL     1       0.153   9.361  21.546  0.00  0.00    +0.000 OA
ENDROOT
BRANCH   3   5
ATOM      5  C   UNL     1      -0.008  10.727  19.550  0.00  0.00    +0.000 C 
ATOM      6  C   UNL     1      -1.292  11.309  20.235  0.00  0.00    +0.000 C 
ATOM      7  C   UNL     1      -2.095  12.017  19.144  0.00  0.00    +0.000 C 
ATOM      8  C   UNL     1      -1.667  11.382  17.838  0.00  0.00    +0.000 C 
ATOM      9  C   UNL     1      -0.670  10.300  18.227  0.00  0.00    +0.000 C 
BRANCH   5  10
ATOM     10  C   UNL     1       1.063  11.828  19.482  0.00  0.00    +0.000 A 
ATOM     11  C   UNL     1       1.713  12.194  18.291  0.00  0.00    +0.000 A 
ATOM     12  C   UNL     1       2.727  13.155  18.279  0.00  0.00    +0.000 A 
ATOM     13  C   UNL     1       3.080  13.805  19.454  0.00  0.00    +0.000 A 
ATOM     14  C   UNL     1       2.414  13.500  20.641  0.00  0.00    +0.000 A 
ATOM     15  C   UNL     1       1.441  12.500  20.663  0.00  0.00    +0.000 A 
ATOM     16  O   UNL     1       2.668  14.142  21.826  0.00  0.00    +0.000 OA
ATOM     17  C   UNL     1       3.348  15.381  21.595  0.00  0.00    +0.000 C 
ATOM     18  C   UNL     1       4.523  15.168  20.655  0.00  0.00    +0.000 C 
ATOM     19  O   UNL     1       4.075  14.744  19.363  0.00  0.00    +0.000 OA
ENDBRANCH   5  10
ENDBRANCH   3   5
BRANCH   2  20
ATOM     20  C   UNL     1       2.000   8.508  18.504  0.00  0.00    +0.000 C 
BRANCH  20  21
ATOM     21  C   UNL     1       2.760   7.252  18.146  0.00  0.00    +0.000 A 
ATOM     22  C   UNL     1       2.220   5.969  18.336  0.00  0.00    +0.000 A 
ATOM     23  C   UNL     1       2.850   4.848  17.782  0.00  0.00    +0.000 A 
ATOM     24  C   UNL     1       4.037   4.995  17.066  0.00  0.00    +0.000 A 
ATOM     25  C   UNL     1       4.616   6.259  16.930  0.00  0.00    +0.000 A 
ATOM     26  C   UNL     1       4.014   7.371  17.517  0.00  0.00    +0.000 A 
ATOM     27  O   UNL     1       5.738   6.498  16.176  0.00  0.00    +0.000 OA
ATOM     28  C   UNL     1       6.012   5.403  15.292  0.00  0.00    +0.000 C 
ATOM     29  C   UNL     1       5.899   4.084  16.037  0.00  0.00    +0.000 C 
ATOM     30  O   UNL     1       4.555   3.867  16.484  0.00  0.00    +0.000 OA
ENDBRANCH  20  21
ENDBRANCH   2  20
TORSDOF 4
ENDMDL
MODEL 7
REMARK VINA RESULT:      -8.3      3.419      6.578
REMARK  Name = 
REMARK  5 active torsions:
REMARK  status: ('A' for Active; 'I' for Inactive)
REMARK    1  A    between atoms: C_1  and  N_2
REMARK    2  A    between atoms: N_2  and  C_3
REMARK    3  A    between atoms: C_3  and  C_4
REMARK    4  A    between atoms: C_14  and  C_16
REMARK    5  A    between atoms: C_16  and  C_17
REMARK                            x       y       z     vdW  Elec       q    Type
REMARK                         _______ _______ _______ _____ _____    ______ ____
ROOT
ATOM      1  C   UNL     1       7.022   5.269  19.145  0.00  0.00    +0.000 C 
ATOM      2  N   UNL     1       5.658   5.249  18.621  0.00  0.00    +0.000 N 
ATOM      3  C   UNL     1       4.688   4.765  19.498  0.00  0.00    +0.000 C 
ATOM      4  O   UNL     1       5.056   4.288  20.584  0.00  0.00    +0.000 OA
ENDROOT
BRANCH   3   5
ATOM      5  C   UNL     1       3.148   4.788  19.175  0.00  0.00    +0.000 C 
ATOM      6  C   UNL     1       2.400   3.756  20.089  0.00  0.00    +0.000 C 
ATOM      7  C   UNL     1       1.131   3.342  19.344  0.00  0.00    +0.000 C 
ATOM      8  C   UNL     1       1.410   3.601  17.879  0.00  0.00    +0.000 C 
ATOM      9  C   UNL     1       2.842   4.110  17.827  0.00  0.00    +0.000 C 
BRANCH   5  10
ATOM     10  C   UNL     1       2.555   6.186  19.414  0.00  0.00    +0.000 A 
ATOM     11  C   UNL     1       1.994   6.583  20.639  0.00  0.00    +0.000 A 
ATOM     12  C   UNL     1       1.407   7.841  20.799  0.00  0.00    +0.000 A 
ATOM     13  C   UNL     1       1.413   8.748  19.748  0.00  0.00    +0.000 A 
ATOM     14  C   UNL     1       2.012   8.400  18.537  0.00  0.00    +0.000 A 
ATOM     15  C   UNL     1       2.547   7.123  18.360  0.00  0.00    +0.000 A 
ATOM     16  O   UNL     1       2.107   9.264  17.477  0.00  0.00    +0.000 OA
ATOM     17  C   UNL     1       1.915  10.617  17.907  0.00  0.00    +0.000 C 
ATOM     18  C   UNL     1       0.673  10.720  18.776  0.00  0.00    +0.000 C 
ATOM     19  O   UNL     1       0.829   9.966  19.983  0.00  0.00    +0.000 OA
ENDBRANCH   5  10
ENDBRANCH   3   5
BRANCH   2  20
ATOM     20  C   UNL     1       5.462   5.965  17.357  0.00  0.00    +0.000 C 
BRANCH  20  21
ATOM     21  C   UNL     1       5.765   5.182  16.100  0.00  0.00    +0.000 A 
ATOM     22  C   UNL     1       4.934   4.147  15.642  0.00  0.00    +0.000 A 
ATOM     23  C   UNL     1       5.116   3.607  14.364  0.00  0.00    +0.000 A 
ATOM     24  C   UNL     1       6.146   4.072  13.548  0.00  0.00    +0.000 A 
ATOM     25  C   UNL     1       7.020   5.054  14.021  0.00  0.00    +0.000 A 
ATOM     26  C   UNL     1       6.868   5.563  15.311  0.00  0.00    +0.000 A 
ATOM     27  O   UNL     1       8.009   5.617  13.254  0.00  0.00    +0.000 OA
ATOM     28  C   UNL     1       7.803   5.347  11.861  0.00  0.00    +0.000 C 
ATOM     29  C   UNL     1       7.464   3.880  11.654  0.00  0.00    +0.000 C 
ATOM     30  O   UNL     1       6.216   3.555  12.280  0.00  0.00    +0.000 OA
ENDBRANCH  20  21
ENDBRANCH   2  20
TORSDOF 4
ENDMDL
MODEL 8
REMARK VINA RESULT:      -8.3      1.990      4.365
REMARK  Name = 
REMARK  5 active torsions:
REMARK  status: ('A' for Active; 'I' for Inactive)
REMARK    1  A    between atoms: C_1  and  N_2
REMARK    2  A    between atoms: N_2  and  C_3
REMARK    3  A    between atoms: C_3  and  C_4
REMARK    4  A    between atoms: C_14  and  C_16
REMARK    5  A    between atoms: C_16  and  C_17
REMARK                            x       y       z     vdW  Elec       q    Type
REMARK                         _______ _______ _______ _____ _____    ______ ____
ROOT
ATOM      1  C   UNL     1       1.826   7.526  20.845  0.00  0.00    +0.000 C 
ATOM      2  N   UNL     1       1.348   8.518  19.883  0.00  0.00    +0.000 N 
ATOM      3  C   UNL     1       0.506   9.498  20.406  0.00  0.00    +0.000 C 
ATOM      4  O   UNL     1       0.137   9.395  21.587  0.00  0.00    +0.000 OA
ENDROOT
BRANCH   3   5
ATOM      5  C   UNL     1      -0.005  10.729  19.567  0.00  0.00    +0.000 C 
ATOM      6  C   UNL     1      -1.297  11.320  20.230  0.00  0.00    +0.000 C 
ATOM      7  C   UNL     1      -2.089  12.011  19.120  0.00  0.00    +0.000 C 
ATOM      8  C   UNL     1      -1.647  11.356  17.829  0.00  0.00    +0.000 C 
ATOM      9  C   UNL     1      -0.653  10.281  18.244  0.00  0.00    +0.000 C 
BRANCH   5  10
ATOM     10  C   UNL     1       1.066  11.829  19.494  0.00  0.00    +0.000 A 
ATOM     11  C   UNL     1       1.722  12.182  18.302  0.00  0.00    +0.000 A 
ATOM     12  C   UNL     1       2.737  13.143  18.286  0.00  0.00    +0.000 A 
ATOM     13  C   UNL     1       3.083  13.805  19.456  0.00  0.00    +0.000 A 
ATOM     14  C   UNL     1       2.411  13.513  20.643  0.00  0.00    +0.000 A 
ATOM     15  C   UNL     1       1.437  12.512  20.670  0.00  0.00    +0.000 A 
ATOM     16  O   UNL     1       2.659  14.167  21.822  0.00  0.00    +0.000 OA
ATOM     17  C   UNL     1       3.340  15.404  21.581  0.00  0.00    +0.000 C 
ATOM     18  C   UNL     1       4.520  15.180  20.650  0.00  0.00    +0.000 C 
ATOM     19  O   UNL     1       4.079  14.743  19.360  0.00  0.00    +0.000 OA
ENDBRANCH   5  10
ENDBRANCH   3   5
BRANCH   2  20
ATOM     20  C   UNL     1       2.010   8.492  18.576  0.00  0.00    +0.000 C 
BRANCH  20  21
ATOM     21  C   UNL     1       2.535   7.148  18.126  0.00  0.00    +0.000 A 
ATOM     22  C   UNL     1       3.879   6.948  17.773  0.00  0.00    +0.000 A 
ATOM     23  C   UNL     1       4.377   5.652  17.589  0.00  0.00    +0.000 A 
ATOM     24  C   UNL     1       3.530   4.553  17.722  0.00  0.00    +0.000 A 
ATOM     25  C   UNL     1       2.176   4.746  18.005  0.00  0.00    +0.000 A 
ATOM     26  C   UNL     1       1.669   6.038  18.147  0.00  0.00    +0.000 A 
ATOM     27  O   UNL     1       1.297   3.716  18.228  0.00  0.00    +0.000 OA
ATOM     28  C   UNL     1       1.990   2.487  18.483  0.00  0.00    +0.000 C 
ATOM     29  C   UNL     1       3.105   2.291  17.469  0.00  0.00    +0.000 C 
ATOM     30  O   UNL     1       4.102   3.311  17.607  0.00  0.00    +0.000 OA
ENDBRANCH  20  21
ENDBRANCH   2  20
TORSDOF 4
ENDMDL
MODEL 9
REMARK VINA RESULT:      -8.3      4.320      6.658
REMARK  Name = 
REMARK  5 active torsions:
REMARK  status: ('A' for Active; 'I' for Inactive)
REMARK    1  A    between atoms: C_1  and  N_2
REMARK    2  A    between atoms: N_2  and  C_3
REMARK    3  A    between atoms: C_3  and  C_4
REMARK    4  A    between atoms: C_14  and  C_16
REMARK    5  A    between atoms: C_16  and  C_17
REMARK                            x       y       z     vdW  Elec       q    Type
REMARK                         _______ _______ _______ _____ _____    ______ ____
ROOT
ATOM      1  C   UNL     1       5.213   3.636  14.169  0.00  0.00    +0.000 C 
ATOM      2  N   UNL     1       5.583   4.041  15.523  0.00  0.00    +0.000 N 
ATOM      3  C   UNL     1       5.847   5.401  15.688  0.00  0.00    +0.000 C 
ATOM      4  O   UNL     1       5.867   6.127  14.681  0.00  0.00    +0.000 OA
ENDROOT
BRANCH   3   5
ATOM      5  C   UNL     1       6.129   6.058  17.090  0.00  0.00    +0.000 C 
ATOM      6  C   UNL     1       7.183   7.208  16.933  0.00  0.00    +0.000 C 
ATOM      7  C   UNL     1       7.887   7.352  18.282  0.00  0.00    +0.000 C 
ATOM      8  C   UNL     1       7.726   6.017  18.977  0.00  0.00    +0.000 C 
ATOM      9  C   UNL     1       6.978   5.137  17.986  0.00  0.00    +0.000 C 
BRANCH   5  10
ATOM     10  C   UNL     1       4.842   6.641  17.695  0.00  0.00    +0.000 A 
ATOM     11  C   UNL     1       4.117   7.685  17.094  0.00  0.00    +0.000 A 
ATOM     12  C   UNL     1       2.986   8.233  17.706  0.00  0.00    +0.000 A 
ATOM     13  C   UNL     1       2.529   7.715  18.910  0.00  0.00    +0.000 A 
ATOM     14  C   UNL     1       3.198   6.643  19.501  0.00  0.00    +0.000 A 
ATOM     15  C   UNL     1       4.361   6.134  18.919  0.00  0.00    +0.000 A 
ATOM     16  O   UNL     1       2.772   6.043  20.658  0.00  0.00    +0.000 OA
ATOM     17  C   UNL     1       1.398   6.359  20.915  0.00  0.00    +0.000 C 
ATOM     18  C   UNL     1       1.171   7.856  20.786  0.00  0.00    +0.000 C 
ATOM     19  O   UNL     1       1.408   8.295  19.443  0.00  0.00    +0.000 OA
ENDBRANCH   5  10
ENDBRANCH   3   5
BRANCH   2  20
ATOM     20  C   UNL     1       5.383   3.023  16.558  0.00  0.00    +0.000 C 
BRANCH  20  21
ATOM     21  C   UNL     1       4.175   3.210  17.447  0.00  0.00    +0.000 A 
ATOM     22  C   UNL     1       2.904   3.512  16.930  0.00  0.00    +0.000 A 
ATOM     23  C   UNL     1       1.773   3.447  17.753  0.00  0.00    +0.000 A 
ATOM     24  C   UNL     1       1.907   3.115  19.101  0.00  0.00    +0.000 A 
ATOM     25  C   UNL     1       3.175   2.880  19.638  0.00  0.00    +0.000 A 
ATOM     26  C   UNL     1       4.307   2.986  18.830  0.00  0.00    +0.000 A 
ATOM     27  O   UNL     1       3.383   2.473  20.932  0.00  0.00    +0.000 OA
ATOM     28  C   UNL     1       2.171   1.989  21.525  0.00  0.00    +0.000 C 
ATOM     29  C   UNL     1       1.024   2.942  21.233  0.00  0.00    +0.000 C 
ATOM     30  O   UNL     1       0.750   2.992  19.828  0.00  0.00    +0.000 OA
ENDBRANCH  20  21
ENDBRANCH   2  20
TORSDOF 4
ENDMDL
