MODEL 1
REMARK VINA RESULT:      -8.6      0.000      0.000
REMARK  Name = 
REMARK  5 active torsions:
REMARK  status: ('A' for Active; 'I' for Inactive)
REMARK    1  A    between atoms: C_1  and  C_2
REMARK    2  A    between atoms: C_2  and  C_3
REMARK    3  A    between atoms: C_9  and  S_10
REMARK    4  A    between atoms: S_10  and  N_13
REMARK    5  A    between atoms: N_13  and  C_14
REMARK                            x       y       z     vdW  Elec       q    Type
REMARK                         _______ _______ _______ _____ _____    ______ ____
ROOT
ATOM      1  N   UNL     1       2.718   6.485  20.177  0.00  0.00    +0.000 N 
ATOM      2  H   UNL     1       3.322   6.404  19.354  0.00  0.00    +0.000 HD
ENDROOT
BRANCH   1   3
ATOM      3  C   UNL     1       1.899   7.656  20.227  0.00  0.00    +0.000 A 
ATOM      4  C   UNL     1       1.221   7.986  21.402  0.00  0.00    +0.000 A 
ATOM      5  C   UNL     1       0.422   9.140  21.454  0.00  0.00    +0.000 A 
ATOM      6  C   UNL     1       0.252   9.913  20.298  0.00  0.00    +0.000 A 
ATOM      7  C   UNL     1       0.916   9.584  19.121  0.00  0.00    +0.000 A 
ATOM      8  C   UNL     1       1.745   8.466  19.100  0.00  0.00    +0.000 A 
ATOM      9  F   UNL     1       2.409   8.185  17.973  0.00  0.00    +0.000 F 
ATOM     10  N   UNL     1      -0.635  10.993  20.307  0.00  0.00    +0.000 N 
ATOM     11  C   UNL     1      -1.276  11.449  21.428  0.00  0.00    +0.000 C 
ATOM     12  O   UNL     1      -2.169  12.289  21.349  0.00  0.00    +0.000 OA
ATOM     13  C   UNL     1      -0.722  10.969  22.747  0.00  0.00    +0.000 C 
ATOM     14  C   UNL     1      -0.335   9.497  22.707  0.00  0.00    +0.000 C 
ATOM     15  H   UNL     1      -0.905  11.438  19.439  0.00  0.00    +0.000 HD
ENDBRANCH   1   3
BRANCH   1  16
ATOM     16  S   UNL     1       1.996   4.979  20.482  0.00  0.00    +0.000 S 
ATOM     17  O   UNL     1       0.574   5.112  20.223  0.00  0.00    +0.000 OA
ATOM     18  O   UNL     1       2.465   4.541  21.777  0.00  0.00    +0.000 OA
BRANCH  16  27
ATOM     19  C   UNL     1       6.554   5.686  18.004  0.00  0.00    +0.000 C 
ATOM     20  C   UNL     1       5.215   5.475  17.287  0.00  0.00    +0.000 C 
ATOM     21  C   UNL     1       4.978   6.602  16.281  0.00  0.00    +0.000 C 
ATOM     22  C   UNL     1       5.161   4.095  16.596  0.00  0.00    +0.000 C 
ATOM     23  C   UNL     1       4.181   3.401  17.462  0.00  0.00    +0.000 A 
ATOM     24  C   UNL     1       3.771   2.079  17.405  0.00  0.00    +0.000 A 
ATOM     25  C   UNL     1       2.797   1.645  18.305  0.00  0.00    +0.000 A 
ATOM     26  C   UNL     1       2.243   2.537  19.235  0.00  0.00    +0.000 A 
ATOM     27  C   UNL     1       2.662   3.874  19.272  0.00  0.00    +0.000 A 
ATOM     28  C   UNL     1       3.643   4.285  18.387  0.00  0.00    +0.000 A 
ATOM     29  O   UNL     1       4.154   5.552  18.287  0.00  0.00    +0.000 OA
ENDBRANCH  16  27
ENDBRANCH   1  16
TORSDOF 3
ENDMDL
MODEL 2
REMARK VINA RESULT:      -8.5      1.097      1.263
REMARK  Name = 
REMARK  5 active torsions:
REMARK  status: ('A' for Active; 'I' for Inactive)
REMARK    1  A    between atoms: C_1  and  C_2
REMARK    2  A    between atoms: C_2  and  C_3
REMARK    3  A    between atoms: C_9  and  S_10
REMARK    4  A    between atoms: S_10  and  N_13
REMARK    5  A    between atoms: N_13  and  C_14
REMARK                            x       y       z     vdW  Elec       q    Type
REMARK                         _______ _______ _______ _____ _____    ______ ____
ROOT
ATOM      1  N   UNL     1       2.811   6.658  20.289  0.00  0.00    +0.000 N 
ATOM      2  H   UNL     1       3.738   6.541  19.871  0.00  0.00    +0.000 HD
ENDROOT
BRANCH   1   3
ATOM      3  C   UNL     1       2.045   7.759  19.792  0.00  0.00    +0.000 A 
ATOM      4  C   UNL     1       1.230   8.492  20.657  0.00  0.00    +0.000 A 
ATOM      5  C   UNL     1       0.483   9.577  20.171  0.00  0.00    +0.000 A 
ATOM      6  C   UNL     1       0.503   9.869  18.801  0.00  0.00    +0.000 A 
ATOM      7  C   UNL     1       1.304   9.136  17.932  0.00  0.00    +0.000 A 
ATOM      8  C   UNL     1       2.079   8.096  18.438  0.00  0.00    +0.000 A 
ATOM      9  F   UNL     1       2.875   7.426  17.597  0.00  0.00    +0.000 F 
ATOM     10  N   UNL     1      -0.328  10.869  18.290  0.00  0.00    +0.000 N 
ATOM     11  C   UNL     1      -1.093  11.700  19.065  0.00  0.00    +0.000 C 
ATOM     12  O   UNL     1      -1.930  12.443  18.560  0.00  0.00    +0.000 OA
ATOM     13  C   UNL     1      -0.743  11.743  20.532  0.00  0.00    +0.000 C 
ATOM     14  C   UNL     1      -0.420  10.363  21.087  0.00  0.00    +0.000 C 
ATOM     15  H   UNL     1      -0.460  10.961  17.291  0.00  0.00    +0.000 HD
ENDBRANCH   1   3
BRANCH   1  16
ATOM     16  S   UNL     1       2.063   5.138  20.405  0.00  0.00    +0.000 S 
ATOM     17  O   UNL     1       0.644   5.326  20.166  0.00  0.00    +0.000 OA
ATOM     18  O   UNL     1       2.524   4.535  21.636  0.00  0.00    +0.000 OA
BRANCH  16  27
ATOM     19  C   UNL     1       7.070   5.186  18.874  0.00  0.00    +0.000 C 
ATOM     20  C   UNL     1       5.888   5.472  17.940  0.00  0.00    +0.000 C 
ATOM     21  C   UNL     1       6.098   6.808  17.226  0.00  0.00    +0.000 C 
ATOM     22  C   UNL     1       5.686   4.326  16.926  0.00  0.00    +0.000 C 
ATOM     23  C   UNL     1       4.430   3.733  17.438  0.00  0.00    +0.000 A 
ATOM     24  C   UNL     1       3.773   2.599  16.992  0.00  0.00    +0.000 A 
ATOM     25  C   UNL     1       2.569   2.243  17.603  0.00  0.00    +0.000 A 
ATOM     26  C   UNL     1       2.039   3.030  18.636  0.00  0.00    +0.000 A 
ATOM     27  C   UNL     1       2.712   4.182  19.068  0.00  0.00    +0.000 A 
ATOM     28  C   UNL     1       3.914   4.510  18.466  0.00  0.00    +0.000 A 
ATOM     29  O   UNL     1       4.688   5.600  18.762  0.00  0.00    +0.000 OA
ENDBRANCH  16  27
ENDBRANCH   1  16
TORSDOF 3
ENDMDL
MODEL 3
REMARK VINA RESULT:      -8.4      1.575      2.064
REMARK  Name = 
REMARK  5 active torsions:
REMARK  status: ('A' for Active; 'I' for Inactive)
REMARK    1  A    between atoms: C_1  and  C_2
REMARK    2  A    between atoms: C_2  and  C_3
REMARK    3  A    between atoms: C_9  and  S_10
REMARK    4  A    between atoms: S_10  and  N_13
REMARK    5  A    between atoms: N_13  and  C_14
REMARK                            x       y       z     vdW  Elec       q    Type
REMARK                         _______ _______ _______ _____ _____    ______ ____
ROOT
ATOM      1  N   UNL     1       3.369   6.526  19.757  0.00  0.00    +0.000 N 
ATOM      2  H   UNL     1       4.362   6.655  19.544  0.00  0.00    +0.000 HD
ENDROOT
BRANCH   1   3
ATOM      3  C   UNL     1       2.511   7.606  19.378  0.00  0.00    +0.000 A 
ATOM      4  C   UNL     1       1.602   8.134  20.296  0.00  0.00    +0.000 A 
ATOM      5  C   UNL     1       0.765   9.199  19.926  0.00  0.00    +0.000 A 
ATOM      6  C   UNL     1       0.797   9.675  18.610  0.00  0.00    +0.000 A 
ATOM      7  C   UNL     1       1.693   9.147  17.686  0.00  0.00    +0.000 A 
ATOM      8  C   UNL     1       2.552   8.126  18.083  0.00  0.00    +0.000 A 
ATOM      9  F   UNL     1       3.437   7.656  17.196  0.00  0.00    +0.000 F 
ATOM     10  N   UNL     1      -0.115  10.652  18.199  0.00  0.00    +0.000 N 
ATOM     11  C   UNL     1      -0.982  11.293  19.044  0.00  0.00    +0.000 C 
ATOM     12  O   UNL     1      -1.873  12.016  18.606  0.00  0.00    +0.000 OA
ATOM     13  C   UNL     1      -0.683  11.169  20.517  0.00  0.00    +0.000 C 
ATOM     14  C   UNL     1      -0.239   9.764  20.898  0.00  0.00    +0.000 C 
ATOM     15  H   UNL     1      -0.224  10.866  17.216  0.00  0.00    +0.000 HD
ENDBRANCH   1   3
BRANCH   1  16
ATOM     16  S   UNL     1       2.915   4.945  19.334  0.00  0.00    +0.000 S 
ATOM     17  O   UNL     1       1.544   4.993  18.860  0.00  0.00    +0.000 OA
ATOM     18  O   UNL     1       3.276   4.092  20.444  0.00  0.00    +0.000 OA
BRANCH  16  27
ATOM     19  C   UNL     1       8.092   5.704  19.136  0.00  0.00    +0.000 C 
ATOM     20  C   UNL     1       7.111   6.225  18.079  0.00  0.00    +0.000 C 
ATOM     21  C   UNL     1       7.310   7.728  17.879  0.00  0.00    +0.000 C 
ATOM     22  C   UNL     1       7.266   5.462  16.746  0.00  0.00    +0.000 C 
ATOM     23  C   UNL     1       6.008   4.682  16.736  0.00  0.00    +0.000 A 
ATOM     24  C   UNL     1       5.599   3.726  15.822  0.00  0.00    +0.000 A 
ATOM     25  C   UNL     1       4.343   3.140  15.988  0.00  0.00    +0.000 A 
ATOM     26  C   UNL     1       3.517   3.526  17.054  0.00  0.00    +0.000 A 
ATOM     27  C   UNL     1       3.942   4.503  17.964  0.00  0.00    +0.000 A 
ATOM     28  C   UNL     1       5.197   5.061  17.798  0.00  0.00    +0.000 A 
ATOM     29  O   UNL     1       5.757   6.028  18.589  0.00  0.00    +0.000 OA
ENDBRANCH  16  27
ENDBRANCH   1  16
TORSDOF 3
ENDMDL
MODEL 4
REMARK VINA RESULT:      -8.4      2.777      7.590
REMARK  Name = 
REMARK  5 active torsions:
REMARK  status: ('A' for Active; 'I' for Inactive)
REMARK    1  A    between atoms: C_1  and  C_2
REMARK    2  A    between atoms: C_2  and  C_3
REMARK    3  A    between atoms: C_9  and  S_10
REMARK    4  A    between atoms: S_10  and  N_13
REMARK    5  A    between atoms: N_13  and  C_14
REMARK                            x       y       z     vdW  Elec       q    Type
REMARK                         _______ _______ _______ _____ _____    ______ ____
ROOT
ATOM      1  N   UNL     1       1.770   8.644  21.402  0.00  0.00    +0.000 N 
ATOM      2  H   UNL     1       2.309   8.526  22.264  0.00  0.00    +0.000 HD
ENDROOT
BRANCH   1   3
ATOM      3  C   UNL     1       1.835   7.553  20.479  0.00  0.00    +0.000 A 
ATOM      4  C   UNL     1       1.608   6.248  20.920  0.00  0.00    +0.000 A 
ATOM      5  C   UNL     1       1.665   5.178  20.013  0.00  0.00    +0.000 A 
ATOM      6  C   UNL     1       2.026   5.421  18.682  0.00  0.00    +0.000 A 
ATOM      7  C   UNL     1       2.265   6.718  18.238  0.00  0.00    +0.000 A 
ATOM      8  C   UNL     1       2.154   7.774  19.138  0.00  0.00    +0.000 A 
ATOM      9  F   UNL     1       2.346   9.019  18.687  0.00  0.00    +0.000 F 
ATOM     10  N   UNL     1       2.203   4.351  17.801  0.00  0.00    +0.000 N 
ATOM     11  C   UNL     1       1.918   3.048  18.112  0.00  0.00    +0.000 C 
ATOM     12  O   UNL     1       2.251   2.132  17.365  0.00  0.00    +0.000 OA
ATOM     13  C   UNL     1       1.061   2.833  19.335  0.00  0.00    +0.000 C 
ATOM     14  C   UNL     1       1.445   3.761  20.478  0.00  0.00    +0.000 C 
ATOM     15  H   UNL     1       2.640   4.498  16.900  0.00  0.00    +0.000 HD
ENDBRANCH   1   3
BRANCH   1  16
ATOM     16  S   UNL     1       0.245   9.286  21.789  0.00  0.00    +0.000 S 
ATOM     17  O   UNL     1       0.397  10.089  22.988  0.00  0.00    +0.000 OA
ATOM     18  O   UNL     1      -0.694   8.187  21.758  0.00  0.00    +0.000 OA
BRANCH  16  27
ATOM     19  C   UNL     1       2.823  13.702  20.662  0.00  0.00    +0.000 C 
ATOM     20  C   UNL     1       1.313  13.636  20.919  0.00  0.00    +0.000 C 
ATOM     21  C   UNL     1       0.923  14.640  22.004  0.00  0.00    +0.000 C 
ATOM     22  C   UNL     1       0.514  13.882  19.621  0.00  0.00    +0.000 C 
ATOM     23  C   UNL     1      -0.023  12.524  19.376  0.00  0.00    +0.000 A 
ATOM     24  C   UNL     1      -0.763  12.077  18.294  0.00  0.00    +0.000 A 
ATOM     25  C   UNL     1      -1.202  10.753  18.289  0.00  0.00    +0.000 A 
ATOM     26  C   UNL     1      -0.907   9.905  19.367  0.00  0.00    +0.000 A 
ATOM     27  C   UNL     1      -0.166  10.376  20.459  0.00  0.00    +0.000 A 
ATOM     28  C   UNL     1       0.280  11.686  20.440  0.00  0.00    +0.000 A 
ATOM     29  O   UNL     1       1.003  12.302  21.426  0.00  0.00    +0.000 OA
ENDBRANCH  16  27
ENDBRANCH   1  16
TORSDOF 3
ENDMDL
MODEL 5
REMARK VINA RESULT:      -8.1      3.240      4.945
REMARK  Name = 
REMARK  5 active torsions:
REMARK  status: ('A' for Active; 'I' for Inactive)
REMARK    1  A    between atoms: C_1  and  C_2
REMARK    2  A    between atoms: C_2  and  C_3
REMARK    3  A    between atoms: C_9  and  S_10
REMARK    4  A    between atoms: S_10  and  N_13
REMARK    5  A    between atoms: N_13  and  C_14
REMARK                            x       y       z     vdW  Elec       q    Type
REMARK                         _______ _______ _______ _____ _____    ______ ____
ROOT
ATOM      1  N   UNL     1       0.804  10.399  20.357  0.00  0.00    +0.000 N 
ATOM      2  H   UNL     1       1.599  10.582  19.738  0.00  0.00    +0.000 HD
ENDROOT
BRANCH   1   3
ATOM      3  C   UNL     1      -0.468  10.838  19.872  0.00  0.00    +0.000 A 
ATOM      4  C   UNL     1      -0.906  10.448  18.605  0.00  0.00    +0.000 A 
ATOM      5  C   UNL     1      -2.158  10.872  18.131  0.00  0.00    +0.000 A 
ATOM      6  C   UNL     1      -2.928  11.748  18.907  0.00  0.00    +0.000 A 
ATOM      7  C   UNL     1      -2.493  12.149  20.166  0.00  0.00    +0.000 A 
ATOM      8  C   UNL     1      -1.272  11.679  20.643  0.00  0.00    +0.000 A 
ATOM      9  F   UNL     1      -0.885  12.040  21.872  0.00  0.00    +0.000 F 
ATOM     10  N   UNL     1      -4.118  12.271  18.395  0.00  0.00    +0.000 N 
ATOM     11  C   UNL     1      -4.676  11.882  17.205  0.00  0.00    +0.000 C 
ATOM     12  O   UNL     1      -5.627  12.491  16.723  0.00  0.00    +0.000 OA
ATOM     13  C   UNL     1      -4.147  10.598  16.616  0.00  0.00    +0.000 C 
ATOM     14  C   UNL     1      -2.636  10.479  16.757  0.00  0.00    +0.000 C 
ATOM     15  H   UNL     1      -4.581  13.039  18.862  0.00  0.00    +0.000 HD
ENDBRANCH   1   3
BRANCH   1  16
ATOM     16  S   UNL     1       0.936   8.822  20.972  0.00  0.00    +0.000 S 
ATOM     17  O   UNL     1      -0.400   8.257  21.026  0.00  0.00    +0.000 OA
ATOM     18  O   UNL     1       1.746   8.902  22.167  0.00  0.00    +0.000 OA
BRANCH  16  27
ATOM     19  C   UNL     1       0.561   3.652  20.225  0.00  0.00    +0.000 C 
ATOM     20  C   UNL     1       1.880   4.382  20.508  0.00  0.00    +0.000 C 
ATOM     21  C   UNL     1       2.592   3.732  21.694  0.00  0.00    +0.000 C 
ATOM     22  C   UNL     1       2.787   4.402  19.258  0.00  0.00    +0.000 C 
ATOM     23  C   UNL     1       2.708   5.834  18.894  0.00  0.00    +0.000 A 
ATOM     24  C   UNL     1       3.252   6.469  17.790  0.00  0.00    +0.000 A 
ATOM     25  C   UNL     1       3.085   7.849  17.665  0.00  0.00    +0.000 A 
ATOM     26  C   UNL     1       2.390   8.570  18.648  0.00  0.00    +0.000 A 
ATOM     27  C   UNL     1       1.855   7.913  19.765  0.00  0.00    +0.000 A 
ATOM     28  C   UNL     1       2.011   6.542  19.864  0.00  0.00    +0.000 A 
ATOM     29  O   UNL     1       1.560   5.754  20.889  0.00  0.00    +0.000 OA
ENDBRANCH  16  27
ENDBRANCH   1  16
TORSDOF 3
ENDMDL
MODEL 6
REMARK VINA RESULT:      -8.1      2.571      8.242
REMARK  Name = 
REMARK  5 active torsions:
REMARK  status: ('A' for Active; 'I' for Inactive)
REMARK    1  A    between atoms: C_1  and  C_2
REMARK    2  A    between atoms: C_2  and  C_3
REMARK    3  A    between atoms: C_9  and  S_10
REMARK    4  A    between atoms: S_10  and  N_13
REMARK    5  A    between atoms: N_13  and  C_14
REMARK                            x       y       z     vdW  Elec       q    Type
REMARK                         _______ _______ _______ _____ _____    ______ ____
ROOT
ATOM      1  N   UNL     1       1.796   8.650  21.201  0.00  0.00    +0.000 N 
ATOM      2  H   UNL     1       2.502   8.715  21.940  0.00  0.00    +0.000 HD
ENDROOT
BRANCH   1   3
ATOM      3  C   UNL     1       1.888   7.497  20.360  0.00  0.00    +0.000 A 
ATOM      4  C   UNL     1       1.603   6.231  20.874  0.00  0.00    +0.000 A 
ATOM      5  C   UNL     1       1.687   5.100  20.047  0.00  0.00    +0.000 A 
ATOM      6  C   UNL     1       2.130   5.243  18.725  0.00  0.00    +0.000 A 
ATOM      7  C   UNL     1       2.425   6.501  18.209  0.00  0.00    +0.000 A 
ATOM      8  C   UNL     1       2.288   7.618  19.028  0.00  0.00    +0.000 A 
ATOM      9  F   UNL     1       2.536   8.825  18.506  0.00  0.00    +0.000 F 
ATOM     10  N   UNL     1       2.331   4.111  17.931  0.00  0.00    +0.000 N 
ATOM     11  C   UNL     1       1.997   2.838  18.312  0.00  0.00    +0.000 C 
ATOM     12  O   UNL     1       2.350   1.867  17.650  0.00  0.00    +0.000 OA
ATOM     13  C   UNL     1       1.066   2.726  19.494  0.00  0.00    +0.000 C 
ATOM     14  C   UNL     1       1.406   3.723  20.593  0.00  0.00    +0.000 C 
ATOM     15  H   UNL     1       2.823   4.187  17.050  0.00  0.00    +0.000 HD
ENDBRANCH   1   3
BRANCH   1  16
ATOM     16  S   UNL     1       0.280   9.060  21.849  0.00  0.00    +0.000 S 
ATOM     17  O   UNL     1       0.504   9.640  23.160  0.00  0.00    +0.000 OA
ATOM     18  O   UNL     1      -0.570   7.900  21.697  0.00  0.00    +0.000 OA
BRANCH  16  27
ATOM     19  C   UNL     1      -1.327  13.756  23.516  0.00  0.00    +0.000 C 
ATOM     20  C   UNL     1      -2.194  12.800  22.689  0.00  0.00    +0.000 C 
ATOM     21  C   UNL     1      -3.529  12.563  23.395  0.00  0.00    +0.000 C 
ATOM     22  C   UNL     1      -2.411  13.338  21.258  0.00  0.00    +0.000 C 
ATOM     23  C   UNL     1      -1.586  12.382  20.485  0.00  0.00    +0.000 A 
ATOM     24  C   UNL     1      -1.306  12.393  19.129  0.00  0.00    +0.000 A 
ATOM     25  C   UNL     1      -0.529  11.360  18.601  0.00  0.00    +0.000 A 
ATOM     26  C   UNL     1      -0.059  10.332  19.432  0.00  0.00    +0.000 A 
ATOM     27  C   UNL     1      -0.361  10.331  20.801  0.00  0.00    +0.000 A 
ATOM     28  C   UNL     1      -1.114  11.372  21.313  0.00  0.00    +0.000 A 
ATOM     29  O   UNL     1      -1.503  11.516  22.618  0.00  0.00    +0.000 OA
ENDBRANCH  16  27
ENDBRANCH   1  16
TORSDOF 3
ENDMDL
MODEL 7
REMARK VINA RESULT:      -8.0      3.025      8.401
REMARK  Name = 
REMARK  5 active torsions:
REMARK  status: ('A' for Active; 'I' for Inactive)
REMARK    1  A    between atoms: C_1  and  C_2
REMARK    2  A    between atoms: C_2  and  C_3
REMARK    3  A    between atoms: C_9  and  S_10
REMARK    4  A    between atoms: S_10  and  N_13
REMARK    5  A    between atoms: N_13  and  C_14
REMARK                            x       y       z     vdW  Elec       q    Type
REMARK                         _______ _______ _______ _____ _____    ______ ____
ROOT
ATOM      1  N   UNL     1       1.402   8.054  18.069  0.00  0.00    +0.000 N 
ATOM      2  H   UNL     1       1.104   8.136  17.093  0.00  0.00    +0.000 HD
ENDROOT
BRANCH   1   3
ATOM      3  C   UNL     1       2.592   7.291  18.288  0.00  0.00    +0.000 A 
ATOM      4  C   UNL     1       3.694   7.457  17.447  0.00  0.00    +0.000 A 
ATOM      5  C   UNL     1       4.865   6.714  17.666  0.00  0.00    +0.000 A 
ATOM      6  C   UNL     1       4.892   5.754  18.685  0.00  0.00    +0.000 A 
ATOM      7  C   UNL     1       3.794   5.576  19.520  0.00  0.00    +0.000 A 
ATOM      8  C   UNL     1       2.658   6.356  19.322  0.00  0.00    +0.000 A 
ATOM      9  F   UNL     1       1.625   6.203  20.159  0.00  0.00    +0.000 F 
ATOM     10  N   UNL     1       6.008   4.926  18.834  0.00  0.00    +0.000 N 
ATOM     11  C   UNL     1       7.169   5.070  18.121  0.00  0.00    +0.000 C 
ATOM     12  O   UNL     1       8.050   4.216  18.169  0.00  0.00    +0.000 OA
ATOM     13  C   UNL     1       7.345   6.385  17.404  0.00  0.00    +0.000 C 
ATOM     14  C   UNL     1       6.055   6.864  16.753  0.00  0.00    +0.000 C 
ATOM     15  H   UNL     1       5.965   4.115  19.437  0.00  0.00    +0.000 HD
ENDBRANCH   1   3
BRANCH   1  16
ATOM     16  S   UNL     1       1.265   9.572  18.817  0.00  0.00    +0.000 S 
ATOM     17  O   UNL     1       2.183  10.477  18.150  0.00  0.00    +0.000 OA
ATOM     18  O   UNL     1       1.364   9.349  20.242  0.00  0.00    +0.000 OA
BRANCH  16  27
ATOM     19  C   UNL     1      -0.755  14.097  20.510  0.00  0.00    +0.000 C 
ATOM     20  C   UNL     1      -1.395  12.728  20.763  0.00  0.00    +0.000 C 
ATOM     21  C   UNL     1      -1.654  12.541  22.258  0.00  0.00    +0.000 C 
ATOM     22  C   UNL     1      -2.696  12.559  19.949  0.00  0.00    +0.000 C 
ATOM     23  C   UNL     1      -2.259  11.558  18.950  0.00  0.00    +0.000 A 
ATOM     24  C   UNL     1      -2.969  11.057  17.872  0.00  0.00    +0.000 A 
ATOM     25  C   UNL     1      -2.369  10.080  17.076  0.00  0.00    +0.000 A 
ATOM     26  C   UNL     1      -1.080   9.615  17.376  0.00  0.00    +0.000 A 
ATOM     27  C   UNL     1      -0.379  10.127  18.477  0.00  0.00    +0.000 A 
ATOM     28  C   UNL     1      -0.980  11.108  19.245  0.00  0.00    +0.000 A 
ATOM     29  O   UNL     1      -0.439  11.703  20.354  0.00  0.00    +0.000 OA
ENDBRANCH  16  27
ENDBRANCH   1  16
TORSDOF 3
ENDMDL
MODEL 8
REMARK VINA RESULT:      -7.9      2.862      7.636
REMARK  Name = 
REMARK  5 active torsions:
REMARK  status: ('A' for Active; 'I' for Inactive)
REMARK    1  A    between atoms: C_1  and  C_2
REMARK    2  A    between atoms: C_2  and  C_3
REMARK    3  A    between atoms: C_9  and  S_10
REMARK    4  A    between atoms: S_10  and  N_13
REMARK    5  A    between atoms: N_13  and  C_14
REMARK                            x       y       z     vdW  Elec       q    Type
REMARK                         _______ _______ _______ _____ _____    ______ ____
ROOT
ATOM      1  N   UNL     1       1.834   8.669  21.466  0.00  0.00    +0.000 N 
ATOM      2  H   UNL     1       2.230   8.472  22.389  0.00  0.00    +0.000 HD
ENDROOT
BRANCH   1   3
ATOM      3  C   UNL     1       1.866   7.583  20.537  0.00  0.00    +0.000 A 
ATOM      4  C   UNL     1       1.631   6.278  20.976  0.00  0.00    +0.000 A 
ATOM      5  C   UNL     1       1.655   5.212  20.062  0.00  0.00    +0.000 A 
ATOM      6  C   UNL     1       1.990   5.458  18.725  0.00  0.00    +0.000 A 
ATOM      7  C   UNL     1       2.236   6.754  18.282  0.00  0.00    +0.000 A 
ATOM      8  C   UNL     1       2.158   7.807  19.190  0.00  0.00    +0.000 A 
ATOM      9  F   UNL     1       2.356   9.052  18.742  0.00  0.00    +0.000 F 
ATOM     10  N   UNL     1       2.135   4.391  17.835  0.00  0.00    +0.000 N 
ATOM     11  C   UNL     1       1.840   3.089  18.145  0.00  0.00    +0.000 C 
ATOM     12  O   UNL     1       2.145   2.173  17.386  0.00  0.00    +0.000 OA
ATOM     13  C   UNL     1       1.007   2.878  19.385  0.00  0.00    +0.000 C 
ATOM     14  C   UNL     1       1.427   3.796  20.525  0.00  0.00    +0.000 C 
ATOM     15  H   UNL     1       2.554   4.538  16.926  0.00  0.00    +0.000 HD
ENDBRANCH   1   3
BRANCH   1  16
ATOM     16  S   UNL     1       0.379   9.524  21.662  0.00  0.00    +0.000 S 
ATOM     17  O   UNL     1       0.334  10.009  23.029  0.00  0.00    +0.000 OA
ATOM     18  O   UNL     1      -0.677   8.680  21.149  0.00  0.00    +0.000 OA
BRANCH  16  27
ATOM     19  C   UNL     1      -3.465  11.241  18.548  0.00  0.00    +0.000 C 
ATOM     20  C   UNL     1      -2.057  10.889  18.053  0.00  0.00    +0.000 C 
ATOM     21  C   UNL     1      -2.143   9.890  16.899  0.00  0.00    +0.000 C 
ATOM     22  C   UNL     1      -1.279  12.155  17.634  0.00  0.00    +0.000 C 
ATOM     23  C   UNL     1      -0.282  12.230  18.725  0.00  0.00    +0.000 A 
ATOM     24  C   UNL     1       0.663  13.216  18.957  0.00  0.00    +0.000 A 
ATOM     25  C   UNL     1       1.536  13.061  20.035  0.00  0.00    +0.000 A 
ATOM     26  C   UNL     1       1.458  11.923  20.852  0.00  0.00    +0.000 A 
ATOM     27  C   UNL     1       0.503  10.930  20.596  0.00  0.00    +0.000 A 
ATOM     28  C   UNL     1      -0.368  11.107  19.537  0.00  0.00    +0.000 A 
ATOM     29  O   UNL     1      -1.348  10.233  19.148  0.00  0.00    +0.000 OA
ENDBRANCH  16  27
ENDBRANCH   1  16
TORSDOF 3
ENDMDL
MODEL 9
REMARK VINA RESULT:      -7.9      3.529      9.323
REMARK  Name = 
REMARK  5 active torsions:
REMARK  status: ('A' for Active; 'I' for Inactive)
REMARK    1  A    between atoms: C_1  and  C_2
REMARK    2  A    between atoms: C_2  and  C_3
REMARK    3  A    between atoms: C_9  and  S_10
REMARK    4  A    between atoms: S_10  and  N_13
REMARK    5  A    between atoms: N_13  and  C_14
REMARK                            x       y       z     vdW  Elec       q    Type
REMARK                         _______ _______ _______ _____ _____    ______ ____
ROOT
ATOM      1  N   UNL     1       0.059  11.383  19.436  0.00  0.00    +0.000 N 
ATOM      2  H   UNL     1       0.017  11.997  20.254  0.00  0.00    +0.000 HD
ENDROOT
BRANCH   1   3
ATOM      3  C   UNL     1       0.707  10.125  19.642  0.00  0.00    +0.000 A 
ATOM      4  C   UNL     1       1.422   9.527  18.601  0.00  0.00    +0.000 A 
ATOM      5  C   UNL     1       2.065   8.295  18.805  0.00  0.00    +0.000 A 
ATOM      6  C   UNL     1       1.920   7.637  20.034  0.00  0.00    +0.000 A 
ATOM      7  C   UNL     1       1.201   8.222  21.071  0.00  0.00    +0.000 A 
ATOM      8  C   UNL     1       0.612   9.467  20.870  0.00  0.00    +0.000 A 
ATOM      9  F   UNL     1      -0.041  10.036  21.889  0.00  0.00    +0.000 F 
ATOM     10  N   UNL     1       2.455   6.358  20.206  0.00  0.00    +0.000 N 
ATOM     11  C   UNL     1       3.245   5.727  19.281  0.00  0.00    +0.000 C 
ATOM     12  O   UNL     1       3.546   4.543  19.409  0.00  0.00    +0.000 OA
ATOM     13  C   UNL     1       3.824   6.604  18.199  0.00  0.00    +0.000 C 
ATOM     14  C   UNL     1       2.820   7.625  17.686  0.00  0.00    +0.000 C 
ATOM     15  H   UNL     1       2.200   5.803  21.012  0.00  0.00    +0.000 HD
ENDBRANCH   1   3
BRANCH   1  16
ATOM     16  S   UNL     1      -1.451  11.397  18.658  0.00  0.00    +0.000 S 
ATOM     17  O   UNL     1      -1.842  10.018  18.431  0.00  0.00    +0.000 OA
ATOM     18  O   UNL     1      -1.344  12.319  17.550  0.00  0.00    +0.000 OA
BRANCH  16  27
ATOM     19  C   UNL     1      -6.650  10.806  18.468  0.00  0.00    +0.000 C 
ATOM     20  C   UNL     1      -5.946  12.167  18.517  0.00  0.00    +0.000 C 
ATOM     21  C   UNL     1      -6.428  13.047  17.364  0.00  0.00    +0.000 C 
ATOM     22  C   UNL     1      -6.169  12.863  19.877  0.00  0.00    +0.000 C 
ATOM     23  C   UNL     1      -4.812  12.756  20.459  0.00  0.00    +0.000 A 
ATOM     24  C   UNL     1      -4.389  13.129  21.723  0.00  0.00    +0.000 A 
ATOM     25  C   UNL     1      -3.040  12.971  22.048  0.00  0.00    +0.000 A 
ATOM     26  C   UNL     1      -2.140  12.456  21.103  0.00  0.00    +0.000 A 
ATOM     27  C   UNL     1      -2.583  12.093  19.824  0.00  0.00    +0.000 A 
ATOM     28  C   UNL     1      -3.926  12.237  19.524  0.00  0.00    +0.000 A 
ATOM     29  O   UNL     1      -4.517  11.939  18.325  0.00  0.00    +0.000 OA
ENDBRANCH  16  27
ENDBRANCH   1  16
TORSDOF 3
ENDMDL
