MODEL 1
REMARK VINA RESULT:      -8.7      0.000      0.000
REMARK  Name = 
REMARK  5 active torsions:
REMARK  status: ('A' for Active; 'I' for Inactive)
REMARK    1  A    between atoms: C_6  and  N_7
REMARK    2  A    between atoms: C_8  and  C_10
REMARK    3  A    between atoms: C_15  and  O_16
REMARK    4  A    between atoms: O_16  and  C_17
REMARK    5  A    between atoms: C_17  and  C_18
REMARK                            x       y       z     vdW  Elec       q    Type
REMARK                         _______ _______ _______ _____ _____    ______ ____
ROOT
ATOM      1  N   UNL     1       3.110   6.578  17.684  0.00  0.00    +0.000 N 
ATOM      2  C   UNL     1       4.461   6.702  17.355  0.00  0.00    +0.000 C 
ATOM      3  O   UNL     1       5.186   7.596  17.775  0.00  0.00    +0.000 OA
ATOM      4  H   UNL     1       2.629   5.713  17.498  0.00  0.00    +0.000 HD
ENDROOT
BRANCH   1  10
ATOM      5  O   UNL     1      -0.021  10.353  22.980  0.00  0.00    +0.000 OA
ATOM      6  C   UNL     1       0.458   9.822  21.994  0.00  0.00    +0.000 C 
ATOM      7  C   UNL     1       1.290   8.534  21.953  0.00  0.00    +0.000 C 
ATOM      8  C   UNL     1       1.552   8.378  20.487  0.00  0.00    +0.000 A 
ATOM      9  C   UNL     1       2.220   7.374  19.811  0.00  0.00    +0.000 A 
ATOM     10  C   UNL     1       2.379   7.516  18.429  0.00  0.00    +0.000 A 
ATOM     11  C   UNL     1       1.879   8.651  17.756  0.00  0.00    +0.000 A 
ATOM     12  C   UNL     1       1.147   9.626  18.440  0.00  0.00    +0.000 A 
ATOM     13  C   UNL     1       1.009   9.464  19.802  0.00  0.00    +0.000 A 
ATOM     14  N   UNL     1       0.357  10.295  20.691  0.00  0.00    +0.000 N 
ATOM     15  H   UNL     1      -0.148  11.139  20.455  0.00  0.00    +0.000 HD
ENDBRANCH   1  10
BRANCH   2  16
ATOM     16  C   UNL     1       4.994   5.624  16.451  0.00  0.00    +0.000 A 
ATOM     17  C   UNL     1       5.249   5.928  15.095  0.00  0.00    +0.000 A 
ATOM     18  C   UNL     1       5.928   5.035  14.268  0.00  0.00    +0.000 A 
ATOM     19  C   UNL     1       6.359   3.822  14.779  0.00  0.00    +0.000 A 
ATOM     20  C   UNL     1       6.044   3.473  16.091  0.00  0.00    +0.000 A 
ATOM     21  C   UNL     1       5.305   4.334  16.924  0.00  0.00    +0.000 A 
BRANCH  21  22
ATOM     22  O   UNL     1       4.893   3.942  18.180  0.00  0.00    +0.000 OA
BRANCH  22  23
ATOM     23  C   UNL     1       3.802   3.006  18.188  0.00  0.00    +0.000 C 
BRANCH  23  24
ATOM     24  C   UNL     1       2.912   3.063  19.402  0.00  0.00    +0.000 A 
ATOM     25  C   UNL     1       1.599   3.525  19.394  0.00  0.00    +0.000 A 
ATOM     26  C   UNL     1       0.855   3.497  20.572  0.00  0.00    +0.000 A 
ATOM     27  C   UNL     1       1.449   3.002  21.723  0.00  0.00    +0.000 A 
ATOM     28  N   UNL     1       2.718   2.549  21.776  0.00  0.00    +0.000 NA
ATOM     29  C   UNL     1       3.414   2.590  20.616  0.00  0.00    +0.000 A 
ENDBRANCH  23  24
ENDBRANCH  22  23
ENDBRANCH  21  22
ENDBRANCH   2  16
TORSDOF 5
ENDMDL
MODEL 2
REMARK VINA RESULT:      -8.4      1.226      1.333
REMARK  Name = 
REMARK  5 active torsions:
REMARK  status: ('A' for Active; 'I' for Inactive)
REMARK    1  A    between atoms: C_6  and  N_7
REMARK    2  A    between atoms: C_8  and  C_10
REMARK    3  A    between atoms: C_15  and  O_16
REMARK    4  A    between atoms: O_16  and  C_17
REMARK    5  A    between atoms: C_17  and  C_18
REMARK                            x       y       z     vdW  Elec       q    Type
REMARK                         _______ _______ _______ _____ _____    ______ ____
ROOT
ATOM      1  N   UNL     1       2.876   7.555  18.034  0.00  0.00    +0.000 N 
ATOM      2  C   UNL     1       3.575   6.453  18.529  0.00  0.00    +0.000 C 
ATOM      3  O   UNL     1       3.400   5.979  19.644  0.00  0.00    +0.000 OA
ATOM      4  H   UNL     1       2.897   7.757  17.047  0.00  0.00    +0.000 HD
ENDROOT
BRANCH   1  10
ATOM      5  O   UNL     1      -0.933  10.637  23.334  0.00  0.00    +0.000 OA
ATOM      6  C   UNL     1      -0.359  10.213  22.348  0.00  0.00    +0.000 C 
ATOM      7  C   UNL     1       0.700   9.104  22.304  0.00  0.00    +0.000 C 
ATOM      8  C   UNL     1       0.994   9.011  20.839  0.00  0.00    +0.000 A 
ATOM      9  C   UNL     1       1.842   8.154  20.161  0.00  0.00    +0.000 A 
ATOM     10  C   UNL     1       1.979   8.334  18.781  0.00  0.00    +0.000 A 
ATOM     11  C   UNL     1       1.278   9.361  18.112  0.00  0.00    +0.000 A 
ATOM     12  C   UNL     1       0.373  10.176  18.798  0.00  0.00    +0.000 A 
ATOM     13  C   UNL     1       0.261   9.981  20.157  0.00  0.00    +0.000 A 
ATOM     14  N   UNL     1      -0.540  10.669  21.048  0.00  0.00    +0.000 N 
ATOM     15  H   UNL     1      -1.192  11.405  20.814  0.00  0.00    +0.000 HD
ENDBRANCH   1  10
BRANCH   2  16
ATOM     16  C   UNL     1       4.566   5.849  17.571  0.00  0.00    +0.000 A 
ATOM     17  C   UNL     1       5.782   6.524  17.324  0.00  0.00    +0.000 A 
ATOM     18  C   UNL     1       6.814   5.918  16.609  0.00  0.00    +0.000 A 
ATOM     19  C   UNL     1       6.647   4.631  16.126  0.00  0.00    +0.000 A 
ATOM     20  C   UNL     1       5.425   3.983  16.290  0.00  0.00    +0.000 A 
ATOM     21  C   UNL     1       4.348   4.602  16.954  0.00  0.00    +0.000 A 
BRANCH  21  22
ATOM     22  O   UNL     1       3.103   4.010  17.015  0.00  0.00    +0.000 OA
BRANCH  22  23
ATOM     23  C   UNL     1       3.078   2.737  17.682  0.00  0.00    +0.000 C 
BRANCH  23  24
ATOM     24  C   UNL     1       2.629   2.772  19.119  0.00  0.00    +0.000 A 
ATOM     25  C   UNL     1       1.333   3.068  19.533  0.00  0.00    +0.000 A 
ATOM     26  C   UNL     1       1.021   3.034  20.890  0.00  0.00    +0.000 A 
ATOM     27  C   UNL     1       2.018   2.699  21.794  0.00  0.00    +0.000 A 
ATOM     28  N   UNL     1       3.286   2.410  21.437  0.00  0.00    +0.000 NA
ATOM     29  C   UNL     1       3.557   2.453  20.113  0.00  0.00    +0.000 A 
ENDBRANCH  23  24
ENDBRANCH  22  23
ENDBRANCH  21  22
ENDBRANCH   2  16
TORSDOF 5
ENDMDL
MODEL 3
REMARK VINA RESULT:      -8.2      1.368      1.555
REMARK  Name = 
REMARK  5 active torsions:
REMARK  status: ('A' for Active; 'I' for Inactive)
REMARK    1  A    between atoms: C_6  and  N_7
REMARK    2  A    between atoms: C_8  and  C_10
REMARK    3  A    between atoms: C_15  and  O_16
REMARK    4  A    between atoms: O_16  and  C_17
REMARK    5  A    between atoms: C_17  and  C_18
REMARK                            x       y       z     vdW  Elec       q    Type
REMARK                         _______ _______ _______ _____ _____    ______ ____
ROOT
ATOM      1  N   UNL     1       3.457   7.324  18.103  0.00  0.00    +0.000 N 
ATOM      2  C   UNL     1       3.315   6.017  17.635  0.00  0.00    +0.000 C 
ATOM      3  O   UNL     1       2.247   5.420  17.593  0.00  0.00    +0.000 OA
ATOM      4  H   UNL     1       4.301   7.837  17.905  0.00  0.00    +0.000 HD
ENDROOT
BRANCH   1  10
ATOM      5  O   UNL     1      -1.143  10.382  22.751  0.00  0.00    +0.000 OA
ATOM      6  C   UNL     1      -0.429   9.954  21.863  0.00  0.00    +0.000 C 
ATOM      7  C   UNL     1       0.689   8.912  22.000  0.00  0.00    +0.000 C 
ATOM      8  C   UNL     1       1.165   8.776  20.587  0.00  0.00    +0.000 A 
ATOM      9  C   UNL     1       2.137   7.947  20.059  0.00  0.00    +0.000 A 
ATOM     10  C   UNL     1       2.431   8.076  18.698  0.00  0.00    +0.000 A 
ATOM     11  C   UNL     1       1.761   9.028  17.900  0.00  0.00    +0.000 A 
ATOM     12  C   UNL     1       0.734   9.814  18.432  0.00  0.00    +0.000 A 
ATOM     13  C   UNL     1       0.468   9.669  19.776  0.00  0.00    +0.000 A 
ATOM     14  N   UNL     1      -0.475  10.342  20.529  0.00  0.00    +0.000 N 
ATOM     15  H   UNL     1      -1.134  11.026  20.183  0.00  0.00    +0.000 HD
ENDBRANCH   1  10
BRANCH   2  16
ATOM     16  C   UNL     1       4.586   5.380  17.142  0.00  0.00    +0.000 A 
ATOM     17  C   UNL     1       4.887   5.424  15.763  0.00  0.00    +0.000 A 
ATOM     18  C   UNL     1       6.135   5.034  15.281  0.00  0.00    +0.000 A 
ATOM     19  C   UNL     1       7.101   4.589  16.168  0.00  0.00    +0.000 A 
ATOM     20  C   UNL     1       6.793   4.461  17.520  0.00  0.00    +0.000 A 
ATOM     21  C   UNL     1       5.518   4.791  18.018  0.00  0.00    +0.000 A 
BRANCH  21  22
ATOM     22  O   UNL     1       5.175   4.555  19.333  0.00  0.00    +0.000 OA
BRANCH  22  23
ATOM     23  C   UNL     1       4.743   3.212  19.608  0.00  0.00    +0.000 C 
BRANCH  23  24
ATOM     24  C   UNL     1       3.253   2.994  19.564  0.00  0.00    +0.000 A 
ATOM     25  C   UNL     1       2.358   3.472  20.517  0.00  0.00    +0.000 A 
ATOM     26  C   UNL     1       0.994   3.241  20.354  0.00  0.00    +0.000 A 
ATOM     27  C   UNL     1       0.566   2.540  19.237  0.00  0.00    +0.000 A 
ATOM     28  N   UNL     1       1.398   2.056  18.292  0.00  0.00    +0.000 NA
ATOM     29  C   UNL     1       2.716   2.296  18.480  0.00  0.00    +0.000 A 
ENDBRANCH  23  24
ENDBRANCH  22  23
ENDBRANCH  21  22
ENDBRANCH   2  16
TORSDOF 5
ENDMDL
MODEL 4
REMARK VINA RESULT:      -8.1      1.602      2.154
REMARK  Name = 
REMARK  5 active torsions:
REMARK  status: ('A' for Active; 'I' for Inactive)
REMARK    1  A    between atoms: C_6  and  N_7
REMARK    2  A    between atoms: C_8  and  C_10
REMARK    3  A    between atoms: C_15  and  O_16
REMARK    4  A    between atoms: O_16  and  C_17
REMARK    5  A    between atoms: C_17  and  C_18
REMARK                            x       y       z     vdW  Elec       q    Type
REMARK                         _______ _______ _______ _____ _____    ______ ____
ROOT
ATOM      1  N   UNL     1       3.523   7.194  18.181  0.00  0.00    +0.000 N 
ATOM      2  C   UNL     1       3.362   5.925  17.623  0.00  0.00    +0.000 C 
ATOM      3  O   UNL     1       2.282   5.356  17.520  0.00  0.00    +0.000 OA
ATOM      4  H   UNL     1       4.382   7.699  18.035  0.00  0.00    +0.000 HD
ENDROOT
BRANCH   1  10
ATOM      5  O   UNL     1      -1.933  11.690  19.641  0.00  0.00    +0.000 OA
ATOM      6  C   UNL     1      -1.028  10.882  19.535  0.00  0.00    +0.000 C 
ATOM      7  C   UNL     1      -0.184  10.601  18.284  0.00  0.00    +0.000 C 
ATOM      8  C   UNL     1       0.766   9.555  18.777  0.00  0.00    +0.000 A 
ATOM      9  C   UNL     1       1.809   8.929  18.119  0.00  0.00    +0.000 A 
ATOM     10  C   UNL     1       2.502   7.927  18.806  0.00  0.00    +0.000 A 
ATOM     11  C   UNL     1       2.139   7.568  20.122  0.00  0.00    +0.000 A 
ATOM     12  C   UNL     1       1.127   8.255  20.799  0.00  0.00    +0.000 A 
ATOM     13  C   UNL     1       0.458   9.234  20.098  0.00  0.00    +0.000 A 
ATOM     14  N   UNL     1      -0.585  10.028  20.537  0.00  0.00    +0.000 N 
ATOM     15  H   UNL     1      -0.987  10.020  21.465  0.00  0.00    +0.000 HD
ENDBRANCH   1  10
BRANCH   2  16
ATOM     16  C   UNL     1       4.629   5.293  17.112  0.00  0.00    +0.000 A 
ATOM     17  C   UNL     1       4.881   5.284  15.723  0.00  0.00    +0.000 A 
ATOM     18  C   UNL     1       6.120   4.898  15.215  0.00  0.00    +0.000 A 
ATOM     19  C   UNL     1       7.125   4.511  16.084  0.00  0.00    +0.000 A 
ATOM     20  C   UNL     1       6.867   4.435  17.451  0.00  0.00    +0.000 A 
ATOM     21  C   UNL     1       5.602   4.760  17.979  0.00  0.00    +0.000 A 
BRANCH  21  22
ATOM     22  O   UNL     1       5.311   4.574  19.314  0.00  0.00    +0.000 OA
BRANCH  22  23
ATOM     23  C   UNL     1       4.832   3.259  19.645  0.00  0.00    +0.000 C 
BRANCH  23  24
ATOM     24  C   UNL     1       3.337   3.132  19.774  0.00  0.00    +0.000 A 
ATOM     25  C   UNL     1       2.557   3.870  20.660  0.00  0.00    +0.000 A 
ATOM     26  C   UNL     1       1.175   3.696  20.666  0.00  0.00    +0.000 A 
ATOM     27  C   UNL     1       0.614   2.788  19.780  0.00  0.00    +0.000 A 
ATOM     28  N   UNL     1       1.332   2.050  18.910  0.00  0.00    +0.000 NA
ATOM     29  C   UNL     1       2.671   2.241  18.929  0.00  0.00    +0.000 A 
ENDBRANCH  23  24
ENDBRANCH  22  23
ENDBRANCH  21  22
ENDBRANCH   2  16
TORSDOF 5
ENDMDL
MODEL 5
REMARK VINA RESULT:      -8.0      1.385      1.981
REMARK  Name = 
REMARK  5 active torsions:
REMARK  status: ('A' for Active; 'I' for Inactive)
REMARK    1  A    between atoms: C_6  and  N_7
REMARK    2  A    between atoms: C_8  and  C_10
REMARK    3  A    between atoms: C_15  and  O_16
REMARK    4  A    between atoms: O_16  and  C_17
REMARK    5  A    between atoms: C_17  and  C_18
REMARK                            x       y       z     vdW  Elec       q    Type
REMARK                         _______ _______ _______ _____ _____    ______ ____
ROOT
ATOM      1  N   UNL     1       3.157   7.026  17.928  0.00  0.00    +0.000 N 
ATOM      2  C   UNL     1       4.144   6.138  18.357  0.00  0.00    +0.000 C 
ATOM      3  O   UNL     1       4.327   5.836  19.530  0.00  0.00    +0.000 OA
ATOM      4  H   UNL     1       2.906   7.061  16.953  0.00  0.00    +0.000 HD
ENDROOT
BRANCH   1  10
ATOM      5  O   UNL     1      -1.344  11.927  20.726  0.00  0.00    +0.000 OA
ATOM      6  C   UNL     1      -0.594  11.031  20.386  0.00  0.00    +0.000 C 
ATOM      7  C   UNL     1       0.061  10.849  19.010  0.00  0.00    +0.000 C 
ATOM      8  C   UNL     1       0.882   9.614  19.216  0.00  0.00    +0.000 A 
ATOM      9  C   UNL     1       1.740   8.968  18.345  0.00  0.00    +0.000 A 
ATOM     10  C   UNL     1       2.335   7.780  18.780  0.00  0.00    +0.000 A 
ATOM     11  C   UNL     1       2.058   7.260  20.063  0.00  0.00    +0.000 A 
ATOM     12  C   UNL     1       1.242   7.958  20.959  0.00  0.00    +0.000 A 
ATOM     13  C   UNL     1       0.666   9.123  20.502  0.00  0.00    +0.000 A 
ATOM     14  N   UNL     1      -0.188   9.969  21.185  0.00  0.00    +0.000 N 
ATOM     15  H   UNL     1      -0.488   9.862  22.145  0.00  0.00    +0.000 HD
ENDBRANCH   1  10
BRANCH   2  16
ATOM     16  C   UNL     1       4.972   5.533  17.257  0.00  0.00    +0.000 A 
ATOM     17  C   UNL     1       6.195   6.144  16.902  0.00  0.00    +0.000 A 
ATOM     18  C   UNL     1       7.093   5.520  16.038  0.00  0.00    +0.000 A 
ATOM     19  C   UNL     1       6.783   4.277  15.511  0.00  0.00    +0.000 A 
ATOM     20  C   UNL     1       5.547   3.698  15.786  0.00  0.00    +0.000 A 
ATOM     21  C   UNL     1       4.599   4.341  16.606  0.00  0.00    +0.000 A 
BRANCH  21  22
ATOM     22  O   UNL     1       3.333   3.824  16.783  0.00  0.00    +0.000 OA
BRANCH  22  23
ATOM     23  C   UNL     1       3.274   2.654  17.617  0.00  0.00    +0.000 C 
BRANCH  23  24
ATOM     24  C   UNL     1       2.669   2.864  18.980  0.00  0.00    +0.000 A 
ATOM     25  C   UNL     1       3.265   2.471  20.175  0.00  0.00    +0.000 A 
ATOM     26  C   UNL     1       2.630   2.751  21.383  0.00  0.00    +0.000 A 
ATOM     27  C   UNL     1       1.416   3.420  21.358  0.00  0.00    +0.000 A 
ATOM     28  N   UNL     1       0.802   3.815  20.224  0.00  0.00    +0.000 NA
ATOM     29  C   UNL     1       1.443   3.528  19.068  0.00  0.00    +0.000 A 
ENDBRANCH  23  24
ENDBRANCH  22  23
ENDBRANCH  21  22
ENDBRANCH   2  16
TORSDOF 5
ENDMDL
MODEL 6
REMARK VINA RESULT:      -8.0      0.907      1.442
REMARK  Name = 
REMARK  5 active torsions:
REMARK  status: ('A' for Active; 'I' for Inactive)
REMARK    1  A    between atoms: C_6  and  N_7
REMARK    2  A    between atoms: C_8  and  C_10
REMARK    3  A    between atoms: C_15  and  O_16
REMARK    4  A    between atoms: O_16  and  C_17
REMARK    5  A    between atoms: C_17  and  C_18
REMARK                            x       y       z     vdW  Elec       q    Type
REMARK                         _______ _______ _______ _____ _____    ______ ____
ROOT
ATOM      1  N   UNL     1       3.091   6.567  17.767  0.00  0.00    +0.000 N 
ATOM      2  C   UNL     1       4.360   6.009  17.932  0.00  0.00    +0.000 C 
ATOM      3  O   UNL     1       4.988   6.041  18.983  0.00  0.00    +0.000 OA
ATOM      4  H   UNL     1       2.535   6.316  16.965  0.00  0.00    +0.000 HD
ENDROOT
BRANCH   1  10
ATOM      5  O   UNL     1      -0.520  11.741  21.273  0.00  0.00    +0.000 OA
ATOM      6  C   UNL     1       0.076  10.788  20.806  0.00  0.00    +0.000 C 
ATOM      7  C   UNL     1       0.638  10.657  19.385  0.00  0.00    +0.000 C 
ATOM      8  C   UNL     1       1.277   9.304  19.424  0.00  0.00    +0.000 A 
ATOM      9  C   UNL     1       1.993   8.636  18.448  0.00  0.00    +0.000 A 
ATOM     10  C   UNL     1       2.425   7.337  18.733  0.00  0.00    +0.000 A 
ATOM     11  C   UNL     1       2.130   6.733  19.974  0.00  0.00    +0.000 A 
ATOM     12  C   UNL     1       1.464   7.443  20.977  0.00  0.00    +0.000 A 
ATOM     13  C   UNL     1       1.046   8.719  20.668  0.00  0.00    +0.000 A 
ATOM     14  N   UNL     1       0.355   9.602  21.475  0.00  0.00    +0.000 N 
ATOM     15  H   UNL     1       0.084   9.441  22.436  0.00  0.00    +0.000 HD
ENDBRANCH   1  10
BRANCH   2  16
ATOM     16  C   UNL     1       4.911   5.320  16.713  0.00  0.00    +0.000 A 
ATOM     17  C   UNL     1       5.230   6.091  15.574  0.00  0.00    +0.000 A 
ATOM     18  C   UNL     1       5.927   5.542  14.499  0.00  0.00    +0.000 A 
ATOM     19  C   UNL     1       6.314   4.213  14.543  0.00  0.00    +0.000 A 
ATOM     20  C   UNL     1       5.936   3.417  15.623  0.00  0.00    +0.000 A 
ATOM     21  C   UNL     1       5.177   3.938  16.689  0.00  0.00    +0.000 A 
BRANCH  21  22
ATOM     22  O   UNL     1       4.704   3.126  17.699  0.00  0.00    +0.000 OA
BRANCH  22  23
ATOM     23  C   UNL     1       3.292   2.860  17.642  0.00  0.00    +0.000 C 
BRANCH  23  24
ATOM     24  C   UNL     1       2.566   2.953  18.957  0.00  0.00    +0.000 A 
ATOM     25  C   UNL     1       1.211   3.250  19.090  0.00  0.00    +0.000 A 
ATOM     26  C   UNL     1       0.635   3.273  20.358  0.00  0.00    +0.000 A 
ATOM     27  C   UNL     1       1.433   2.993  21.457  0.00  0.00    +0.000 A 
ATOM     28  N   UNL     1       2.748   2.706  21.375  0.00  0.00    +0.000 NA
ATOM     29  C   UNL     1       3.277   2.692  20.130  0.00  0.00    +0.000 A 
ENDBRANCH  23  24
ENDBRANCH  22  23
ENDBRANCH  21  22
ENDBRANCH   2  16
TORSDOF 5
ENDMDL
MODEL 7
REMARK VINA RESULT:      -8.0      0.717      1.028
REMARK  Name = 
REMARK  5 active torsions:
REMARK  status: ('A' for Active; 'I' for Inactive)
REMARK    1  A    between atoms: C_6  and  N_7
REMARK    2  A    between atoms: C_8  and  C_10
REMARK    3  A    between atoms: C_15  and  O_16
REMARK    4  A    between atoms: O_16  and  C_17
REMARK    5  A    between atoms: C_17  and  C_18
REMARK                            x       y       z     vdW  Elec       q    Type
REMARK                         _______ _______ _______ _____ _____    ______ ____
ROOT
ATOM      1  N   UNL     1       3.142   6.642  17.488  0.00  0.00    +0.000 N 
ATOM      2  C   UNL     1       4.516   6.691  17.249  0.00  0.00    +0.000 C 
ATOM      3  O   UNL     1       5.276   7.481  17.796  0.00  0.00    +0.000 OA
ATOM      4  H   UNL     1       2.611   5.839  17.190  0.00  0.00    +0.000 HD
ENDROOT
BRANCH   1  10
ATOM      5  O   UNL     1       0.108  10.220  22.974  0.00  0.00    +0.000 OA
ATOM      6  C   UNL     1       0.573   9.729  21.962  0.00  0.00    +0.000 C 
ATOM      7  C   UNL     1       1.370   8.422  21.853  0.00  0.00    +0.000 C 
ATOM      8  C   UNL     1       1.630   8.336  20.382  0.00  0.00    +0.000 A 
ATOM      9  C   UNL     1       2.271   7.351  19.654  0.00  0.00    +0.000 A 
ATOM     10  C   UNL     1       2.436   7.560  18.281  0.00  0.00    +0.000 A 
ATOM     11  C   UNL     1       1.967   8.741  17.668  0.00  0.00    +0.000 A 
ATOM     12  C   UNL     1       1.261   9.699  18.403  0.00  0.00    +0.000 A 
ATOM     13  C   UNL     1       1.117   9.470  19.754  0.00  0.00    +0.000 A 
ATOM     14  N   UNL     1       0.486  10.271  20.686  0.00  0.00    +0.000 N 
ATOM     15  H   UNL     1       0.005  11.140  20.494  0.00  0.00    +0.000 HD
ENDBRANCH   1  10
BRANCH   2  16
ATOM     16  C   UNL     1       5.026   5.665  16.273  0.00  0.00    +0.000 A 
ATOM     17  C   UNL     1       5.926   6.067  15.261  0.00  0.00    +0.000 A 
ATOM     18  C   UNL     1       6.581   5.132  14.463  0.00  0.00    +0.000 A 
ATOM     19  C   UNL     1       6.347   3.781  14.659  0.00  0.00    +0.000 A 
ATOM     20  C   UNL     1       5.402   3.371  15.596  0.00  0.00    +0.000 A 
ATOM     21  C   UNL     1       4.682   4.303  16.369  0.00  0.00    +0.000 A 
BRANCH  21  22
ATOM     22  O   UNL     1       3.665   3.906  17.212  0.00  0.00    +0.000 OA
BRANCH  22  23
ATOM     23  C   UNL     1       4.097   3.155  18.360  0.00  0.00    +0.000 C 
BRANCH  23  24
ATOM     24  C   UNL     1       3.094   3.056  19.479  0.00  0.00    +0.000 A 
ATOM     25  C   UNL     1       3.384   2.583  20.757  0.00  0.00    +0.000 A 
ATOM     26  C   UNL     1       2.384   2.571  21.727  0.00  0.00    +0.000 A 
ATOM     27  C   UNL     1       1.123   3.038  21.389  0.00  0.00    +0.000 A 
ATOM     28  N   UNL     1       0.798   3.500  20.164  0.00  0.00    +0.000 NA
ATOM     29  C   UNL     1       1.790   3.498  19.245  0.00  0.00    +0.000 A 
ENDBRANCH  23  24
ENDBRANCH  22  23
ENDBRANCH  21  22
ENDBRANCH   2  16
TORSDOF 5
ENDMDL
MODEL 8
REMARK VINA RESULT:      -7.9      1.999      4.778
REMARK  Name = 
REMARK  5 active torsions:
REMARK  status: ('A' for Active; 'I' for Inactive)
REMARK    1  A    between atoms: C_6  and  N_7
REMARK    2  A    between atoms: C_8  and  C_10
REMARK    3  A    between atoms: C_15  and  O_16
REMARK    4  A    between atoms: O_16  and  C_17
REMARK    5  A    between atoms: C_17  and  C_18
REMARK                            x       y       z     vdW  Elec       q    Type
REMARK                         _______ _______ _______ _____ _____    ______ ____
ROOT
ATOM      1  N   UNL     1       2.233   6.735  20.474  0.00  0.00    +0.000 N 
ATOM      2  C   UNL     1       1.702   5.445  20.458  0.00  0.00    +0.000 C 
ATOM      3  O   UNL     1       0.502   5.201  20.481  0.00  0.00    +0.000 OA
ATOM      4  H   UNL     1       3.199   6.880  20.227  0.00  0.00    +0.000 HD
ENDROOT
BRANCH   1  10
ATOM      5  O   UNL     1      -1.680  12.181  23.143  0.00  0.00    +0.000 OA
ATOM      6  C   UNL     1      -1.020  11.338  22.564  0.00  0.00    +0.000 C 
ATOM      7  C   UNL     1      -0.450  10.044  23.160  0.00  0.00    +0.000 C 
ATOM      8  C   UNL     1       0.221   9.423  21.974  0.00  0.00    +0.000 A 
ATOM      9  C   UNL     1       0.882   8.213  21.866  0.00  0.00    +0.000 A 
ATOM     10  C   UNL     1       1.481   7.908  20.640  0.00  0.00    +0.000 A 
ATOM     11  C   UNL     1       1.415   8.811  19.557  0.00  0.00    +0.000 A 
ATOM     12  C   UNL     1       0.687  10.000  19.659  0.00  0.00    +0.000 A 
ATOM     13  C   UNL     1       0.110  10.279  20.879  0.00  0.00    +0.000 A 
ATOM     14  N   UNL     1      -0.631  11.390  21.231  0.00  0.00    +0.000 N 
ATOM     15  H   UNL     1      -0.886  12.153  20.618  0.00  0.00    +0.000 HD
ENDBRANCH   1  10
BRANCH   2  16
ATOM     16  C   UNL     1       2.722   4.341  20.381  0.00  0.00    +0.000 A 
ATOM     17  C   UNL     1       2.701   3.316  21.353  0.00  0.00    +0.000 A 
ATOM     18  C   UNL     1       3.484   2.172  21.215  0.00  0.00    +0.000 A 
ATOM     19  C   UNL     1       4.304   2.033  20.108  0.00  0.00    +0.000 A 
ATOM     20  C   UNL     1       4.398   3.070  19.182  0.00  0.00    +0.000 A 
ATOM     21  C   UNL     1       3.663   4.261  19.336  0.00  0.00    +0.000 A 
BRANCH  21  22
ATOM     22  O   UNL     1       3.842   5.333  18.486  0.00  0.00    +0.000 OA
BRANCH  22  23
ATOM     23  C   UNL     1       5.216   5.679  18.241  0.00  0.00    +0.000 C 
BRANCH  23  24
ATOM     24  C   UNL     1       5.741   5.309  16.879  0.00  0.00    +0.000 A 
ATOM     25  C   UNL     1       5.024   4.585  15.929  0.00  0.00    +0.000 A 
ATOM     26  C   UNL     1       5.597   4.332  14.684  0.00  0.00    +0.000 A 
ATOM     27  C   UNL     1       6.871   4.816  14.426  0.00  0.00    +0.000 A 
ATOM     28  N   UNL     1       7.600   5.516  15.318  0.00  0.00    +0.000 NA
ATOM     29  C   UNL     1       7.017   5.745  16.517  0.00  0.00    +0.000 A 
ENDBRANCH  23  24
ENDBRANCH  22  23
ENDBRANCH  21  22
ENDBRANCH   2  16
TORSDOF 5
ENDMDL
MODEL 9
REMARK VINA RESULT:      -7.9      2.131      6.668
REMARK  Name = 
REMARK  5 active torsions:
REMARK  status: ('A' for Active; 'I' for Inactive)
REMARK    1  A    between atoms: C_6  and  N_7
REMARK    2  A    between atoms: C_8  and  C_10
REMARK    3  A    between atoms: C_15  and  O_16
REMARK    4  A    between atoms: O_16  and  C_17
REMARK    5  A    between atoms: C_17  and  C_18
REMARK                            x       y       z     vdW  Elec       q    Type
REMARK                         _______ _______ _______ _____ _____    ______ ____
ROOT
ATOM      1  N   UNL     1       3.718   6.808  18.558  0.00  0.00    +0.000 N 
ATOM      2  C   UNL     1       2.735   7.757  18.276  0.00  0.00    +0.000 C 
ATOM      3  O   UNL     1       2.535   8.223  17.161  0.00  0.00    +0.000 OA
ATOM      4  H   UNL     1       3.687   6.300  19.428  0.00  0.00    +0.000 HD
ENDROOT
BRANCH   1  10
ATOM      5  O   UNL     1       7.133   3.747  12.984  0.00  0.00    +0.000 OA
ATOM      6  C   UNL     1       6.689   4.322  13.961  0.00  0.00    +0.000 C 
ATOM      7  C   UNL     1       5.230   4.342  14.435  0.00  0.00    +0.000 C 
ATOM      8  C   UNL     1       5.318   5.167  15.681  0.00  0.00    +0.000 A 
ATOM      9  C   UNL     1       4.330   5.507  16.587  0.00  0.00    +0.000 A 
ATOM     10  C   UNL     1       4.680   6.357  17.641  0.00  0.00    +0.000 A 
ATOM     11  C   UNL     1       5.996   6.853  17.765  0.00  0.00    +0.000 A 
ATOM     12  C   UNL     1       7.000   6.448  16.881  0.00  0.00    +0.000 A 
ATOM     13  C   UNL     1       6.628   5.614  15.849  0.00  0.00    +0.000 A 
ATOM     14  N   UNL     1       7.426   5.100  14.845  0.00  0.00    +0.000 N 
ATOM     15  H   UNL     1       8.422   5.244  14.746  0.00  0.00    +0.000 HD
ENDBRANCH   1  10
BRANCH   2  16
ATOM     16  C   UNL     1       1.891   8.163  19.454  0.00  0.00    +0.000 A 
ATOM     17  C   UNL     1       1.318   9.454  19.476  0.00  0.00    +0.000 A 
ATOM     18  C   UNL     1       0.371   9.809  20.435  0.00  0.00    +0.000 A 
ATOM     19  C   UNL     1      -0.017   8.883  21.389  0.00  0.00    +0.000 A 
ATOM     20  C   UNL     1       0.598   7.634  21.431  0.00  0.00    +0.000 A 
ATOM     21  C   UNL     1       1.602   7.278  20.511  0.00  0.00    +0.000 A 
BRANCH  21  22
ATOM     22  O   UNL     1       2.293   6.089  20.623  0.00  0.00    +0.000 OA
BRANCH  22  23
ATOM     23  C   UNL     1       1.489   4.911  20.443  0.00  0.00    +0.000 C 
BRANCH  23  24
ATOM     24  C   UNL     1       2.117   3.825  19.609  0.00  0.00    +0.000 A 
ATOM     25  C   UNL     1       1.677   3.452  18.341  0.00  0.00    +0.000 A 
ATOM     26  C   UNL     1       2.359   2.457  17.644  0.00  0.00    +0.000 A 
ATOM     27  C   UNL     1       3.464   1.867  18.236  0.00  0.00    +0.000 A 
ATOM     28  N   UNL     1       3.921   2.194  19.462  0.00  0.00    +0.000 NA
ATOM     29  C   UNL     1       3.238   3.162  20.114  0.00  0.00    +0.000 A 
ENDBRANCH  23  24
ENDBRANCH  22  23
ENDBRANCH  21  22
ENDBRANCH   2  16
TORSDOF 5
ENDMDL
