MODEL 1
REMARK VINA RESULT:      -9.3      0.000      0.000
REMARK  Name = 
REMARK  4 active torsions:
REMARK  status: ('A' for Active; 'I' for Inactive)
REMARK    1  A    between atoms: C_1  and  C_2
REMARK    2  A    between atoms: C_8  and  C_9
REMARK    3  A    between atoms: N_11  and  C_12
REMARK    4  A    between atoms: C_15  and  C_16
REMARK                            x       y       z     vdW  Elec       q    Type
REMARK                         _______ _______ _______ _____ _____    ______ ____
ROOT
ATOM      1  C   UNL     1       7.885   7.227  18.292  0.00  0.00    +0.000 A 
ATOM      2  C   UNL     1       6.975   7.268  17.231  0.00  0.00    +0.000 A 
ATOM      3  C   UNL     1       6.140   6.180  16.956  0.00  0.00    +0.000 A 
ATOM      4  C   UNL     1       6.229   5.011  17.716  0.00  0.00    +0.000 A 
ATOM      5  C   UNL     1       7.254   4.918  18.662  0.00  0.00    +0.000 A 
ATOM      6  C   UNL     1       8.041   6.029  18.986  0.00  0.00    +0.000 A 
ENDROOT
BRANCH   4   7
ATOM      7  C   UNL     1       5.236   3.922  17.454  0.00  0.00    +0.000 C 
ATOM      8  O   UNL     1       5.259   3.404  16.334  0.00  0.00    +0.000 OA
ATOM      9  N   UNL     1       4.298   3.540  18.434  0.00  0.00    +0.000 N 
ATOM     10  C   UNL     1       3.435   2.395  18.137  0.00  0.00    +0.000 C 
ATOM     11  C   UNL     1       2.042   2.810  17.662  0.00  0.00    +0.000 C 
ATOM     12  C   UNL     1       1.100   3.268  18.775  0.00  0.00    +0.000 C 
ATOM     13  C   UNL     1       1.603   4.455  19.588  0.00  0.00    +0.000 C 
ATOM     14  C   UNL     1       2.803   4.086  20.447  0.00  0.00    +0.000 C 
ATOM     15  C   UNL     1       4.132   4.218  19.717  0.00  0.00    +0.000 C 
ENDBRANCH   4   7
BRANCH   1  18
ATOM     16  C   UNL     1       8.517   9.619  18.217  0.00  0.00    +0.000 C 
ATOM     17  O   UNL     1       7.744   9.979  17.337  0.00  0.00    +0.000 OA
ATOM     18  N   UNL     1       8.650   8.338  18.717  0.00  0.00    +0.000 N 
ATOM     19  H   UNL     1       9.205   8.201  19.552  0.00  0.00    +0.000 HD
BRANCH  16  27
ATOM     20  C   UNL     1      11.934  13.961  16.725  0.00  0.00    +0.000 C 
ATOM     21  C   UNL     1      11.692  13.538  18.125  0.00  0.00    +0.000 A 
ATOM     22  N   UNL     1      12.321  14.129  19.149  0.00  0.00    +0.000 NA
ATOM     23  O   UNL     1      11.867  13.477  20.294  0.00  0.00    +0.000 OA
ATOM     24  C   UNL     1      10.975  12.505  19.947  0.00  0.00    +0.000 A 
ATOM     25  N   UNL     1      10.357  11.680  20.823  0.00  0.00    +0.000 NA
ATOM     26  C   UNL     1       9.554  10.768  20.215  0.00  0.00    +0.000 A 
ATOM     27  C   UNL     1       9.327  10.680  18.846  0.00  0.00    +0.000 A 
ATOM     28  C   UNL     1       9.970  11.580  17.988  0.00  0.00    +0.000 A 
ATOM     29  C   UNL     1      10.833  12.511  18.570  0.00  0.00    +0.000 A 
ENDBRANCH  16  27
ENDBRANCH   1  18
TORSDOF 3
ENDMDL
MODEL 2
REMARK VINA RESULT:      -9.2      1.716      2.194
REMARK  Name = 
REMARK  4 active torsions:
REMARK  status: ('A' for Active; 'I' for Inactive)
REMARK    1  A    between atoms: C_1  and  C_2
REMARK    2  A    between atoms: C_8  and  C_9
REMARK    3  A    between atoms: N_11  and  C_12
REMARK    4  A    between atoms: C_15  and  C_16
REMARK                            x       y       z     vdW  Elec       q    Type
REMARK                         _______ _______ _______ _____ _____    ______ ____
ROOT
ATOM      1  C   UNL     1       7.836   8.447  17.825  0.00  0.00    +0.000 A 
ATOM      2  C   UNL     1       8.297   7.363  18.578  0.00  0.00    +0.000 A 
ATOM      3  C   UNL     1       7.622   6.138  18.564  0.00  0.00    +0.000 A 
ATOM      4  C   UNL     1       6.446   5.987  17.824  0.00  0.00    +0.000 A 
ATOM      5  C   UNL     1       5.904   7.121  17.213  0.00  0.00    +0.000 A 
ATOM      6  C   UNL     1       6.614   8.327  17.166  0.00  0.00    +0.000 A 
ENDROOT
BRANCH   4   7
ATOM      7  C   UNL     1       5.827   4.626  17.752  0.00  0.00    +0.000 C 
ATOM      8  O   UNL     1       6.284   3.849  16.909  0.00  0.00    +0.000 OA
ATOM      9  N   UNL     1       4.748   4.272  18.587  0.00  0.00    +0.000 N 
ATOM     10  C   UNL     1       4.273   2.888  18.530  0.00  0.00    +0.000 C 
ATOM     11  C   UNL     1       3.024   2.726  17.663  0.00  0.00    +0.000 C 
ATOM     12  C   UNL     1       1.724   3.175  18.330  0.00  0.00    +0.000 C 
ATOM     13  C   UNL     1       1.704   4.635  18.771  0.00  0.00    +0.000 C 
ATOM     14  C   UNL     1       2.652   4.888  19.933  0.00  0.00    +0.000 C 
ATOM     15  C   UNL     1       4.076   5.198  19.494  0.00  0.00    +0.000 C 
ENDBRANCH   4   7
BRANCH   1  18
ATOM     16  C   UNL     1       9.108  10.374  18.718  0.00  0.00    +0.000 C 
ATOM     17  O   UNL     1       9.065  10.080  19.907  0.00  0.00    +0.000 OA
ATOM     18  N   UNL     1       8.546   9.661  17.676  0.00  0.00    +0.000 N 
ATOM     19  H   UNL     1       8.789   9.920  16.728  0.00  0.00    +0.000 HD
BRANCH  16  27
ATOM     20  C   UNL     1       8.406  16.003  17.950  0.00  0.00    +0.000 C 
ATOM     21  C   UNL     1       9.682  15.286  17.719  0.00  0.00    +0.000 A 
ATOM     22  N   UNL     1      10.763  15.922  17.248  0.00  0.00    +0.000 NA
ATOM     23  O   UNL     1      11.755  14.950  17.144  0.00  0.00    +0.000 OA
ATOM     24  C   UNL     1      11.263  13.744  17.551  0.00  0.00    +0.000 A 
ATOM     25  N   UNL     1      11.968  12.590  17.562  0.00  0.00    +0.000 NA
ATOM     26  C   UNL     1      11.229  11.522  17.965  0.00  0.00    +0.000 A 
ATOM     27  C   UNL     1       9.901  11.570  18.372  0.00  0.00    +0.000 A 
ATOM     28  C   UNL     1       9.229  12.798  18.369  0.00  0.00    +0.000 A 
ATOM     29  C   UNL     1       9.942  13.915  17.928  0.00  0.00    +0.000 A 
ENDBRANCH  16  27
ENDBRANCH   1  18
TORSDOF 3
ENDMDL
MODEL 3
REMARK VINA RESULT:      -8.9      7.813     10.056
REMARK  Name = 
REMARK  4 active torsions:
REMARK  status: ('A' for Active; 'I' for Inactive)
REMARK    1  A    between atoms: C_1  and  C_2
REMARK    2  A    between atoms: C_8  and  C_9
REMARK    3  A    between atoms: N_11  and  C_12
REMARK    4  A    between atoms: C_15  and  C_16
REMARK                            x       y       z     vdW  Elec       q    Type
REMARK                         _______ _______ _______ _____ _____    ______ ____
ROOT
ATOM      1  C   UNL     1       0.495   9.679  19.967  0.00  0.00    +0.000 A 
ATOM      2  C   UNL     1       1.032   9.660  18.676  0.00  0.00    +0.000 A 
ATOM      3  C   UNL     1       1.879   8.625  18.264  0.00  0.00    +0.000 A 
ATOM      4  C   UNL     1       2.237   7.608  19.153  0.00  0.00    +0.000 A 
ATOM      5  C   UNL     1       1.833   7.727  20.486  0.00  0.00    +0.000 A 
ATOM      6  C   UNL     1       0.929   8.720  20.881  0.00  0.00    +0.000 A 
ENDROOT
BRANCH   4   7
ATOM      7  C   UNL     1       3.052   6.467  18.628  0.00  0.00    +0.000 C 
ATOM      8  O   UNL     1       3.870   6.727  17.741  0.00  0.00    +0.000 OA
ATOM      9  N   UNL     1       2.859   5.155  19.104  0.00  0.00    +0.000 N 
ATOM     10  C   UNL     1       3.770   4.117  18.618  0.00  0.00    +0.000 C 
ATOM     11  C   UNL     1       3.165   3.278  17.493  0.00  0.00    +0.000 C 
ATOM     12  C   UNL     1       2.161   2.221  17.954  0.00  0.00    +0.000 C 
ATOM     13  C   UNL     1       0.961   2.772  18.716  0.00  0.00    +0.000 C 
ATOM     14  C   UNL     1       1.357   3.317  20.080  0.00  0.00    +0.000 C 
ATOM     15  C   UNL     1       1.807   4.770  20.042  0.00  0.00    +0.000 C 
ENDBRANCH   4   7
BRANCH   1  18
ATOM     16  C   UNL     1      -0.205  11.746  21.136  0.00  0.00    +0.000 C 
ATOM     17  O   UNL     1       0.897  12.109  21.529  0.00  0.00    +0.000 OA
ATOM     18  N   UNL     1      -0.479  10.607  20.401  0.00  0.00    +0.000 N 
ATOM     19  H   UNL     1      -1.402  10.503  20.000  0.00  0.00    +0.000 HD
BRANCH  16  27
ATOM     20  C   UNL     1      -4.537  12.312  24.834  0.00  0.00    +0.000 C 
ATOM     21  C   UNL     1      -4.316  13.204  23.671  0.00  0.00    +0.000 A 
ATOM     22  N   UNL     1      -5.174  14.189  23.376  0.00  0.00    +0.000 NA
ATOM     23  O   UNL     1      -4.665  14.800  22.233  0.00  0.00    +0.000 OA
ATOM     24  C   UNL     1      -3.511  14.178  21.853  0.00  0.00    +0.000 A 
ATOM     25  N   UNL     1      -2.773  14.521  20.773  0.00  0.00    +0.000 NA
ATOM     26  C   UNL     1      -1.697  13.711  20.589  0.00  0.00    +0.000 A 
ATOM     27  C   UNL     1      -1.330  12.657  21.419  0.00  0.00    +0.000 A 
ATOM     28  C   UNL     1      -2.116  12.366  22.540  0.00  0.00    +0.000 A 
ATOM     29  C   UNL     1      -3.252  13.153  22.746  0.00  0.00    +0.000 A 
ENDBRANCH  16  27
ENDBRANCH   1  18
TORSDOF 3
ENDMDL
MODEL 4
REMARK VINA RESULT:      -8.9      1.015      1.015
REMARK  Name = 
REMARK  4 active torsions:
REMARK  status: ('A' for Active; 'I' for Inactive)
REMARK    1  A    between atoms: C_1  and  C_2
REMARK    2  A    between atoms: C_8  and  C_9
REMARK    3  A    between atoms: N_11  and  C_12
REMARK    4  A    between atoms: C_15  and  C_16
REMARK                            x       y       z     vdW  Elec       q    Type
REMARK                         _______ _______ _______ _____ _____    ______ ____
ROOT
ATOM      1  C   UNL     1       8.175   7.750  18.376  0.00  0.00    +0.000 A 
ATOM      2  C   UNL     1       7.382   7.727  17.225  0.00  0.00    +0.000 A 
ATOM      3  C   UNL     1       6.601   6.610  16.910  0.00  0.00    +0.000 A 
ATOM      4  C   UNL     1       6.631   5.474  17.724  0.00  0.00    +0.000 A 
ATOM      5  C   UNL     1       7.552   5.443  18.775  0.00  0.00    +0.000 A 
ATOM      6  C   UNL     1       8.279   6.584  19.133  0.00  0.00    +0.000 A 
ENDROOT
BRANCH   4   7
ATOM      7  C   UNL     1       5.692   4.353  17.405  0.00  0.00    +0.000 C 
ATOM      8  O   UNL     1       5.865   3.769  16.331  0.00  0.00    +0.000 OA
ATOM      9  N   UNL     1       4.640   4.013  18.279  0.00  0.00    +0.000 N 
ATOM     10  C   UNL     1       3.835   2.836  17.945  0.00  0.00    +0.000 C 
ATOM     11  C   UNL     1       2.511   3.195  17.271  0.00  0.00    +0.000 C 
ATOM     12  C   UNL     1       1.428   3.702  18.224  0.00  0.00    +0.000 C 
ATOM     13  C   UNL     1       1.809   4.946  19.019  0.00  0.00    +0.000 C 
ATOM     14  C   UNL     1       2.892   4.652  20.046  0.00  0.00    +0.000 C 
ATOM     15  C   UNL     1       4.302   4.765  19.485  0.00  0.00    +0.000 C 
ENDBRANCH   4   7
BRANCH   1  18
ATOM     16  C   UNL     1       8.676  10.174  18.347  0.00  0.00    +0.000 C 
ATOM     17  O   UNL     1       7.902  10.504  17.456  0.00  0.00    +0.000 OA
ATOM     18  N   UNL     1       8.870   8.894  18.832  0.00  0.00    +0.000 N 
ATOM     19  H   UNL     1       9.415   8.775  19.676  0.00  0.00    +0.000 HD
BRANCH  16  27
ATOM     20  C   UNL     1       9.828  15.730  17.600  0.00  0.00    +0.000 C 
ATOM     21  C   UNL     1      10.396  14.904  18.692  0.00  0.00    +0.000 A 
ATOM     22  N   UNL     1      11.281  15.410  19.559  0.00  0.00    +0.000 NA
ATOM     23  O   UNL     1      11.602  14.364  20.421  0.00  0.00    +0.000 OA
ATOM     24  C   UNL     1      10.909  13.243  20.064  0.00  0.00    +0.000 A 
ATOM     25  N   UNL     1      11.002  12.050  20.691  0.00  0.00    +0.000 NA
ATOM     26  C   UNL     1      10.245  11.084  20.106  0.00  0.00    +0.000 A 
ATOM     27  C   UNL     1       9.414  11.268  19.006  0.00  0.00    +0.000 A 
ATOM     28  C   UNL     1       9.334  12.534  18.415  0.00  0.00    +0.000 A 
ATOM     29  C   UNL     1      10.125  13.546  18.964  0.00  0.00    +0.000 A 
ENDBRANCH  16  27
ENDBRANCH   1  18
TORSDOF 3
ENDMDL
MODEL 5
REMARK VINA RESULT:      -8.7      7.548     11.370
REMARK  Name = 
REMARK  4 active torsions:
REMARK  status: ('A' for Active; 'I' for Inactive)
REMARK    1  A    between atoms: C_1  and  C_2
REMARK    2  A    between atoms: C_8  and  C_9
REMARK    3  A    between atoms: N_11  and  C_12
REMARK    4  A    between atoms: C_15  and  C_16
REMARK                            x       y       z     vdW  Elec       q    Type
REMARK                         _______ _______ _______ _____ _____    ______ ____
ROOT
ATOM      1  C   UNL     1       0.414   9.263  21.325  0.00  0.00    +0.000 A 
ATOM      2  C   UNL     1       0.366  10.416  20.535  0.00  0.00    +0.000 A 
ATOM      3  C   UNL     1      -0.190  11.602  21.026  0.00  0.00    +0.000 A 
ATOM      4  C   UNL     1      -0.747  11.645  22.307  0.00  0.00    +0.000 A 
ATOM      5  C   UNL     1      -0.846  10.447  23.022  0.00  0.00    +0.000 A 
ATOM      6  C   UNL     1      -0.227   9.279  22.563  0.00  0.00    +0.000 A 
ENDROOT
BRANCH   4   7
ATOM      7  C   UNL     1      -1.225  12.966  22.825  0.00  0.00    +0.000 C 
ATOM      8  O   UNL     1      -0.464  13.578  23.580  0.00  0.00    +0.000 OA
ATOM      9  N   UNL     1      -2.502  13.460  22.491  0.00  0.00    +0.000 N 
ATOM     10  C   UNL     1      -2.849  14.806  22.950  0.00  0.00    +0.000 C 
ATOM     11  C   UNL     1      -3.716  14.799  24.209  0.00  0.00    +0.000 C 
ATOM     12  C   UNL     1      -5.189  14.470  23.966  0.00  0.00    +0.000 C 
ATOM     13  C   UNL     1      -5.441  13.116  23.312  0.00  0.00    +0.000 C 
ATOM     14  C   UNL     1      -4.964  13.087  21.868  0.00  0.00    +0.000 C 
ATOM     15  C   UNL     1      -3.496  12.711  21.725  0.00  0.00    +0.000 C 
ENDBRANCH   4   7
BRANCH   1  18
ATOM     16  C   UNL     1       1.755   7.901  19.752  0.00  0.00    +0.000 C 
ATOM     17  O   UNL     1       1.843   8.718  18.842  0.00  0.00    +0.000 OA
ATOM     18  N   UNL     1       1.091   8.079  20.951  0.00  0.00    +0.000 N 
ATOM     19  H   UNL     1       1.227   7.395  21.684  0.00  0.00    +0.000 HD
BRANCH  16  27
ATOM     20  C   UNL     1       1.807   2.543  21.763  0.00  0.00    +0.000 C 
ATOM     21  C   UNL     1       2.794   3.077  20.795  0.00  0.00    +0.000 A 
ATOM     22  N   UNL     1       3.820   2.330  20.365  0.00  0.00    +0.000 NA
ATOM     23  O   UNL     1       4.536   3.146  19.492  0.00  0.00    +0.000 OA
ATOM     24  C   UNL     1       3.937   4.369  19.407  0.00  0.00    +0.000 A 
ATOM     25  N   UNL     1       4.389   5.396  18.653  0.00  0.00    +0.000 NA
ATOM     26  C   UNL     1       3.637   6.521  18.784  0.00  0.00    +0.000 A 
ATOM     27  C   UNL     1       2.493   6.638  19.566  0.00  0.00    +0.000 A 
ATOM     28  C   UNL     1       2.054   5.532  20.303  0.00  0.00    +0.000 A 
ATOM     29  C   UNL     1       2.819   4.366  20.224  0.00  0.00    +0.000 A 
ENDBRANCH  16  27
ENDBRANCH   1  18
TORSDOF 3
ENDMDL
MODEL 6
REMARK VINA RESULT:      -8.7      8.065      9.876
REMARK  Name = 
REMARK  4 active torsions:
REMARK  status: ('A' for Active; 'I' for Inactive)
REMARK    1  A    between atoms: C_1  and  C_2
REMARK    2  A    between atoms: C_8  and  C_9
REMARK    3  A    between atoms: N_11  and  C_12
REMARK    4  A    between atoms: C_15  and  C_16
REMARK                            x       y       z     vdW  Elec       q    Type
REMARK                         _______ _______ _______ _____ _____    ______ ____
ROOT
ATOM      1  C   UNL     1       0.388   9.676  20.369  0.00  0.00    +0.000 A 
ATOM      2  C   UNL     1       0.810   9.738  19.037  0.00  0.00    +0.000 A 
ATOM      3  C   UNL     1       1.642   8.750  18.499  0.00  0.00    +0.000 A 
ATOM      4  C   UNL     1       2.101   7.700  19.298  0.00  0.00    +0.000 A 
ATOM      5  C   UNL     1       1.812   7.739  20.665  0.00  0.00    +0.000 A 
ATOM      6  C   UNL     1       0.923   8.685  21.189  0.00  0.00    +0.000 A 
ENDROOT
BRANCH   4   7
ATOM      7  C   UNL     1       2.893   6.610  18.645  0.00  0.00    +0.000 C 
ATOM      8  O   UNL     1       3.594   6.932  17.681  0.00  0.00    +0.000 OA
ATOM      9  N   UNL     1       2.805   5.277  19.093  0.00  0.00    +0.000 N 
ATOM     10  C   UNL     1       3.693   4.293  18.471  0.00  0.00    +0.000 C 
ATOM     11  C   UNL     1       2.997   3.465  17.391  0.00  0.00    +0.000 C 
ATOM     12  C   UNL     1       2.092   2.354  17.925  0.00  0.00    +0.000 C 
ATOM     13  C   UNL     1       0.967   2.830  18.836  0.00  0.00    +0.000 C 
ATOM     14  C   UNL     1       1.494   3.349  20.165  0.00  0.00    +0.000 C 
ATOM     15  C   UNL     1       1.882   4.820  20.128  0.00  0.00    +0.000 C 
ENDBRANCH   4   7
BRANCH   1  18
ATOM     16  C   UNL     1      -0.266  11.775  21.507  0.00  0.00    +0.000 C 
ATOM     17  O   UNL     1       0.850  12.268  21.625  0.00  0.00    +0.000 OA
ATOM     18  N   UNL     1      -0.566  10.553  20.935  0.00  0.00    +0.000 N 
ATOM     19  H   UNL     1      -1.536  10.332  20.751  0.00  0.00    +0.000 HD
BRANCH  16  27
ATOM     20  C   UNL     1      -1.581  15.438  25.704  0.00  0.00    +0.000 C 
ATOM     21  C   UNL     1      -2.540  14.979  24.672  0.00  0.00    +0.000 A 
ATOM     22  N   UNL     1      -3.823  15.362  24.694  0.00  0.00    +0.000 NA
ATOM     23  O   UNL     1      -4.420  14.738  23.601  0.00  0.00    +0.000 OA
ATOM     24  C   UNL     1      -3.494  13.988  22.936  0.00  0.00    +0.000 A 
ATOM     25  N   UNL     1      -3.751  13.247  21.835  0.00  0.00    +0.000 NA
ATOM     26  C   UNL     1      -2.666  12.556  21.396  0.00  0.00    +0.000 A 
ATOM     27  C   UNL     1      -1.396  12.608  21.959  0.00  0.00    +0.000 A 
ATOM     28  C   UNL     1      -1.180  13.417  23.081  0.00  0.00    +0.000 A 
ATOM     29  C   UNL     1      -2.278  14.116  23.586  0.00  0.00    +0.000 A 
ENDBRANCH  16  27
ENDBRANCH   1  18
TORSDOF 3
ENDMDL
MODEL 7
REMARK VINA RESULT:      -8.6      7.209      9.437
REMARK  Name = 
REMARK  4 active torsions:
REMARK  status: ('A' for Active; 'I' for Inactive)
REMARK    1  A    between atoms: C_1  and  C_2
REMARK    2  A    between atoms: C_8  and  C_9
REMARK    3  A    between atoms: N_11  and  C_12
REMARK    4  A    between atoms: C_15  and  C_16
REMARK                            x       y       z     vdW  Elec       q    Type
REMARK                         _______ _______ _______ _____ _____    ______ ____
ROOT
ATOM      1  C   UNL     1       1.449   9.101  20.017  0.00  0.00    +0.000 A 
ATOM      2  C   UNL     1       1.685   7.841  20.576  0.00  0.00    +0.000 A 
ATOM      3  C   UNL     1       2.228   6.804  19.809  0.00  0.00    +0.000 A 
ATOM      4  C   UNL     1       2.508   6.999  18.454  0.00  0.00    +0.000 A 
ATOM      5  C   UNL     1       2.113   8.204  17.867  0.00  0.00    +0.000 A 
ATOM      6  C   UNL     1       1.637   9.265  18.646  0.00  0.00    +0.000 A 
ENDROOT
BRANCH   4   7
ATOM      7  C   UNL     1       3.193   5.895  17.710  0.00  0.00    +0.000 C 
ATOM      8  O   UNL     1       2.578   4.831  17.599  0.00  0.00    +0.000 OA
ATOM      9  N   UNL     1       4.497   6.060  17.199  0.00  0.00    +0.000 N 
ATOM     10  C   UNL     1       5.051   4.972  16.392  0.00  0.00    +0.000 C 
ATOM     11  C   UNL     1       5.999   4.071  17.183  0.00  0.00    +0.000 C 
ATOM     12  C   UNL     1       7.394   4.655  17.406  0.00  0.00    +0.000 C 
ATOM     13  C   UNL     1       7.417   5.987  18.146  0.00  0.00    +0.000 C 
ATOM     14  C   UNL     1       6.835   7.112  17.304  0.00  0.00    +0.000 C 
ATOM     15  C   UNL     1       5.324   7.242  17.431  0.00  0.00    +0.000 C 
ENDBRANCH   4   7
BRANCH   1  18
ATOM     16  C   UNL     1      -0.203  10.822  20.679  0.00  0.00    +0.000 C 
ATOM     17  O   UNL     1      -1.123  10.475  19.947  0.00  0.00    +0.000 OA
ATOM     18  N   UNL     1       1.043  10.231  20.764  0.00  0.00    +0.000 N 
ATOM     19  H   UNL     1       1.657  10.507  21.520  0.00  0.00    +0.000 HD
BRANCH  16  27
ATOM     20  C   UNL     1      -4.210  12.449  24.429  0.00  0.00    +0.000 C 
ATOM     21  C   UNL     1      -3.036  13.274  24.057  0.00  0.00    +0.000 A 
ATOM     22  N   UNL     1      -2.869  14.508  24.549  0.00  0.00    +0.000 NA
ATOM     23  O   UNL     1      -1.688  14.981  23.982  0.00  0.00    +0.000 OA
ATOM     24  C   UNL     1      -1.159  14.031  23.158  0.00  0.00    +0.000 A 
ATOM     25  N   UNL     1      -0.021  14.179  22.445  0.00  0.00    +0.000 NA
ATOM     26  C   UNL     1       0.259  13.102  21.665  0.00  0.00    +0.000 A 
ATOM     27  C   UNL     1      -0.492  11.933  21.605  0.00  0.00    +0.000 A 
ATOM     28  C   UNL     1      -1.646  11.824  22.389  0.00  0.00    +0.000 A 
ATOM     29  C   UNL     1      -1.990  12.923  23.179  0.00  0.00    +0.000 A 
ENDBRANCH  16  27
ENDBRANCH   1  18
TORSDOF 3
ENDMDL
MODEL 8
REMARK VINA RESULT:      -8.6      7.136     10.902
REMARK  Name = 
REMARK  4 active torsions:
REMARK  status: ('A' for Active; 'I' for Inactive)
REMARK    1  A    between atoms: C_1  and  C_2
REMARK    2  A    between atoms: C_8  and  C_9
REMARK    3  A    between atoms: N_11  and  C_12
REMARK    4  A    between atoms: C_15  and  C_16
REMARK                            x       y       z     vdW  Elec       q    Type
REMARK                         _______ _______ _______ _____ _____    ______ ____
ROOT
ATOM      1  C   UNL     1       1.047   9.460  20.051  0.00  0.00    +0.000 A 
ATOM      2  C   UNL     1       0.980  10.673  19.358  0.00  0.00    +0.000 A 
ATOM      3  C   UNL     1       0.527  11.837  19.987  0.00  0.00    +0.000 A 
ATOM      4  C   UNL     1       0.094  11.801  21.315  0.00  0.00    +0.000 A 
ATOM      5  C   UNL     1       0.006  10.556  21.944  0.00  0.00    +0.000 A 
ATOM      6  C   UNL     1       0.525   9.404  21.342  0.00  0.00    +0.000 A 
ENDROOT
BRANCH   4   7
ATOM      7  C   UNL     1      -0.272  13.095  21.973  0.00  0.00    +0.000 C 
ATOM      8  O   UNL     1       0.659  13.829  22.317  0.00  0.00    +0.000 OA
ATOM      9  N   UNL     1      -1.618  13.431  22.220  0.00  0.00    +0.000 N 
ATOM     10  C   UNL     1      -1.895  14.760  22.768  0.00  0.00    +0.000 C 
ATOM     11  C   UNL     1      -2.130  14.741  24.279  0.00  0.00    +0.000 C 
ATOM     12  C   UNL     1      -3.513  14.247  24.702  0.00  0.00    +0.000 C 
ATOM     13  C   UNL     1      -3.856  12.835  24.237  0.00  0.00    +0.000 C 
ATOM     14  C   UNL     1      -4.044  12.765  22.730  0.00  0.00    +0.000 C 
ATOM     15  C   UNL     1      -2.746  12.536  21.969  0.00  0.00    +0.000 C 
ENDBRANCH   4   7
BRANCH   1  18
ATOM     16  C   UNL     1       2.171   8.175  18.258  0.00  0.00    +0.000 C 
ATOM     17  O   UNL     1       2.212   9.056  17.408  0.00  0.00    +0.000 OA
ATOM     18  N   UNL     1       1.630   8.284  19.526  0.00  0.00    +0.000 N 
ATOM     19  H   UNL     1       1.802   7.539  20.189  0.00  0.00    +0.000 HD
BRANCH  16  27
ATOM     20  C   UNL     1       1.238   2.539  18.617  0.00  0.00    +0.000 C 
ATOM     21  C   UNL     1       2.495   3.143  18.113  0.00  0.00    +0.000 A 
ATOM     22  N   UNL     1       3.537   2.382  17.753  0.00  0.00    +0.000 NA
ATOM     23  O   UNL     1       4.530   3.273  17.351  0.00  0.00    +0.000 OA
ATOM     24  C   UNL     1       4.076   4.554  17.473  0.00  0.00    +0.000 A 
ATOM     25  N   UNL     1       4.799   5.657  17.175  0.00  0.00    +0.000 NA
ATOM     26  C   UNL     1       4.132   6.813  17.432  0.00  0.00    +0.000 A 
ATOM     27  C   UNL     1       2.829   6.902  17.909  0.00  0.00    +0.000 A 
ATOM     28  C   UNL     1       2.117   5.726  18.171  0.00  0.00    +0.000 A 
ATOM     29  C   UNL     1       2.779   4.515  17.955  0.00  0.00    +0.000 A 
ENDBRANCH  16  27
ENDBRANCH   1  18
TORSDOF 3
ENDMDL
MODEL 9
REMARK VINA RESULT:      -8.6      7.382     11.255
REMARK  Name = 
REMARK  4 active torsions:
REMARK  status: ('A' for Active; 'I' for Inactive)
REMARK    1  A    between atoms: C_1  and  C_2
REMARK    2  A    between atoms: C_8  and  C_9
REMARK    3  A    between atoms: N_11  and  C_12
REMARK    4  A    between atoms: C_15  and  C_16
REMARK                            x       y       z     vdW  Elec       q    Type
REMARK                         _______ _______ _______ _____ _____    ______ ____
ROOT
ATOM      1  C   UNL     1       0.673   9.283  21.693  0.00  0.00    +0.000 A 
ATOM      2  C   UNL     1      -0.207   9.323  22.779  0.00  0.00    +0.000 A 
ATOM      3  C   UNL     1      -0.885  10.501  23.113  0.00  0.00    +0.000 A 
ATOM      4  C   UNL     1      -0.663  11.674  22.387  0.00  0.00    +0.000 A 
ATOM      5  C   UNL     1       0.340  11.666  21.414  0.00  0.00    +0.000 A 
ATOM      6  C   UNL     1       0.966  10.474  21.031  0.00  0.00    +0.000 A 
ENDROOT
BRANCH   4   7
ATOM      7  C   UNL     1      -1.498  12.873  22.713  0.00  0.00    +0.000 C 
ATOM      8  O   UNL     1      -1.241  13.462  23.766  0.00  0.00    +0.000 OA
ATOM      9  N   UNL     1      -2.551  13.279  21.868  0.00  0.00    +0.000 N 
ATOM     10  C   UNL     1      -3.247  14.523  22.203  0.00  0.00    +0.000 C 
ATOM     11  C   UNL     1      -4.570  14.285  22.930  0.00  0.00    +0.000 C 
ATOM     12  C   UNL     1      -5.724  13.849  22.026  0.00  0.00    +0.000 C 
ATOM     13  C   UNL     1      -5.472  12.563  21.246  0.00  0.00    +0.000 C 
ATOM     14  C   UNL     1      -4.407  12.749  20.177  0.00  0.00    +0.000 C 
ATOM     15  C   UNL     1      -2.991  12.534  20.691  0.00  0.00    +0.000 C 
ENDBRANCH   4   7
BRANCH   1  18
ATOM     16  C   UNL     1       1.732   7.920  19.918  0.00  0.00    +0.000 C 
ATOM     17  O   UNL     1       1.674   8.739  19.008  0.00  0.00    +0.000 OA
ATOM     18  N   UNL     1       1.274   8.097  21.210  0.00  0.00    +0.000 N 
ATOM     19  H   UNL     1       1.526   7.410  21.910  0.00  0.00    +0.000 HD
BRANCH  16  27
ATOM     20  C   UNL     1       1.912   2.495  21.733  0.00  0.00    +0.000 C 
ATOM     21  C   UNL     1       2.798   3.049  20.682  0.00  0.00    +0.000 A 
ATOM     22  N   UNL     1       3.758   2.305  20.118  0.00  0.00    +0.000 NA
ATOM     23  O   UNL     1       4.390   3.141  19.200  0.00  0.00    +0.000 OA
ATOM     24  C   UNL     1       3.806   4.374  19.222  0.00  0.00    +0.000 A 
ATOM     25  N   UNL     1       4.190   5.421  18.457  0.00  0.00    +0.000 NA
ATOM     26  C   UNL     1       3.476   6.550  18.707  0.00  0.00    +0.000 A 
ATOM     27  C   UNL     1       2.425   6.654  19.612  0.00  0.00    +0.000 A 
ATOM     28  C   UNL     1       2.050   5.529  20.355  0.00  0.00    +0.000 A 
ATOM     29  C   UNL     1       2.782   4.357  20.154  0.00  0.00    +0.000 A 
ENDBRANCH  16  27
ENDBRANCH   1  18
TORSDOF 3
ENDMDL
