MODEL 1
REMARK VINA RESULT:      -9.0      0.000      0.000
REMARK  Name = 
REMARK  5 active torsions:
REMARK  status: ('A' for Active; 'I' for Inactive)
REMARK    1  A    between atoms: C_1  and  N_2
REMARK    2  A    between atoms: C_3  and  S_4
REMARK    3  A    between atoms: S_4  and  C_5
REMARK    4  A    between atoms: C_5  and  C_6
REMARK    5  A    between atoms: N_8  and  C_9
REMARK                            x       y       z     vdW  Elec       q    Type
REMARK                         _______ _______ _______ _____ _____    ______ ____
ROOT
ATOM      1  C   UNL     1       1.877   4.664  20.728  0.00  0.00    +0.000 C 
ATOM      2  O   UNL     1       0.817   4.477  20.134  0.00  0.00    +0.000 OA
ATOM      3  N   UNL     1       2.659   5.800  20.582  0.00  0.00    +0.000 N 
ATOM      4  H   UNL     1       3.644   5.697  20.797  0.00  0.00    +0.000 HD
ENDROOT
BRANCH   3   5
ATOM      5  C   UNL     1       2.267   6.949  19.873  0.00  0.00    +0.000 A 
ATOM      6  C   UNL     1       2.707   7.068  18.536  0.00  0.00    +0.000 A 
ATOM      7  C   UNL     1       2.370   8.169  17.751  0.00  0.00    +0.000 A 
ATOM      8  C   UNL     1       1.664   9.173  18.371  0.00  0.00    +0.000 A 
ATOM      9  N   UNL     1       1.263  10.409  17.874  0.00  0.00    +0.000 N 
ATOM     10  C   UNL     1       0.697  11.149  18.922  0.00  0.00    +0.000 A 
ATOM     11  O   UNL     1       0.305  12.301  18.865  0.00  0.00    +0.000 OA
ATOM     12  N   UNL     1       0.699  10.314  20.051  0.00  0.00    +0.000 N 
ATOM     13  C   UNL     1       1.281   9.095  19.709  0.00  0.00    +0.000 A 
ATOM     14  C   UNL     1       1.526   7.977  20.481  0.00  0.00    +0.000 A 
ATOM     15  H   UNL     1       1.390  10.767  16.942  0.00  0.00    +0.000 HD
ATOM     16  H   UNL     1       0.386  10.606  20.962  0.00  0.00    +0.000 HD
ENDBRANCH   3   5
BRANCH   1  17
ATOM     17  C   UNL     1       2.507   3.568  21.588  0.00  0.00    +0.000 C 
BRANCH  17  18
ATOM     18  S   UNL     1       3.339   2.341  20.540  0.00  0.00    +0.000 S 
BRANCH  18  21
ATOM     19  C   UNL     1       2.741   2.454  17.538  0.00  0.00    +0.000 C 
ATOM     20  N   UNL     1       3.801   3.304  18.071  0.00  0.00    +0.000 N 
ATOM     21  C   UNL     1       4.210   3.346  19.397  0.00  0.00    +0.000 A 
ATOM     22  N   UNL     1       5.187   4.071  19.832  0.00  0.00    +0.000 NA
ATOM     23  C   UNL     1       5.890   4.866  18.916  0.00  0.00    +0.000 A 
ATOM     24  C   UNL     1       6.982   5.619  19.357  0.00  0.00    +0.000 A 
ATOM     25  C   UNL     1       7.717   6.405  18.463  0.00  0.00    +0.000 A 
ATOM     26  C   UNL     1       7.361   6.457  17.117  0.00  0.00    +0.000 A 
ATOM     27  C   UNL     1       6.270   5.718  16.663  0.00  0.00    +0.000 A 
ATOM     28  C   UNL     1       5.549   4.927  17.568  0.00  0.00    +0.000 A 
ATOM     29  C   UNL     1       4.420   4.104  17.115  0.00  0.00    +0.000 A 
ATOM     30  O   UNL     1       4.090   4.139  15.933  0.00  0.00    +0.000 OA
ENDBRANCH  18  21
ENDBRANCH  17  18
ENDBRANCH   1  17
TORSDOF 4
ENDMDL
MODEL 2
REMARK VINA RESULT:      -7.8      5.065      7.040
REMARK  Name = 
REMARK  5 active torsions:
REMARK  status: ('A' for Active; 'I' for Inactive)
REMARK    1  A    between atoms: C_1  and  N_2
REMARK    2  A    between atoms: C_3  and  S_4
REMARK    3  A    between atoms: S_4  and  C_5
REMARK    4  A    between atoms: C_5  and  C_6
REMARK    5  A    between atoms: N_8  and  C_9
REMARK                            x       y       z     vdW  Elec       q    Type
REMARK                         _______ _______ _______ _____ _____    ______ ____
ROOT
ATOM      1  C   UNL     1       8.048   7.625  18.130  0.00  0.00    +0.000 C 
ATOM      2  O   UNL     1       7.848   7.784  16.927  0.00  0.00    +0.000 OA
ATOM      3  N   UNL     1       8.635   8.577  18.951  0.00  0.00    +0.000 N 
ATOM      4  H   UNL     1       9.088   8.229  19.788  0.00  0.00    +0.000 HD
ENDROOT
BRANCH   3   5
ATOM      5  C   UNL     1       8.921   9.897  18.559  0.00  0.00    +0.000 A 
ATOM      6  C   UNL     1       7.894  10.618  17.911  0.00  0.00    +0.000 A 
ATOM      7  C   UNL     1       8.080  11.932  17.486  0.00  0.00    +0.000 A 
ATOM      8  C   UNL     1       9.341  12.458  17.648  0.00  0.00    +0.000 A 
ATOM      9  N   UNL     1       9.842  13.694  17.251  0.00  0.00    +0.000 N 
ATOM     10  C   UNL     1      11.220  13.720  17.505  0.00  0.00    +0.000 A 
ATOM     11  O   UNL     1      11.992  14.617  17.217  0.00  0.00    +0.000 OA
ATOM     12  N   UNL     1      11.537  12.501  18.127  0.00  0.00    +0.000 N 
ATOM     13  C   UNL     1      10.380  11.731  18.226  0.00  0.00    +0.000 A 
ATOM     14  C   UNL     1      10.196  10.461  18.736  0.00  0.00    +0.000 A 
ATOM     15  H   UNL     1       9.340  14.445  16.805  0.00  0.00    +0.000 HD
ATOM     16  H   UNL     1      12.473  12.232  18.382  0.00  0.00    +0.000 HD
ENDBRANCH   3   5
BRANCH   1  17
ATOM     17  C   UNL     1       7.793   6.278  18.804  0.00  0.00    +0.000 C 
BRANCH  17  18
ATOM     18  S   UNL     1       7.036   5.117  17.633  0.00  0.00    +0.000 S 
BRANCH  18  21
ATOM     19  C   UNL     1       4.626   6.892  16.983  0.00  0.00    +0.000 C 
ATOM     20  N   UNL     1       4.438   5.764  17.890  0.00  0.00    +0.000 N 
ATOM     21  C   UNL     1       5.432   4.889  18.304  0.00  0.00    +0.000 A 
ATOM     22  N   UNL     1       5.248   3.929  19.150  0.00  0.00    +0.000 NA
ATOM     23  C   UNL     1       3.968   3.753  19.694  0.00  0.00    +0.000 A 
ATOM     24  C   UNL     1       3.760   2.753  20.648  0.00  0.00    +0.000 A 
ATOM     25  C   UNL     1       2.500   2.568  21.227  0.00  0.00    +0.000 A 
ATOM     26  C   UNL     1       1.427   3.374  20.849  0.00  0.00    +0.000 A 
ATOM     27  C   UNL     1       1.618   4.371  19.893  0.00  0.00    +0.000 A 
ATOM     28  C   UNL     1       2.888   4.552  19.330  0.00  0.00    +0.000 A 
ATOM     29  C   UNL     1       3.132   5.619  18.350  0.00  0.00    +0.000 A 
ATOM     30  O   UNL     1       2.199   6.338  18.003  0.00  0.00    +0.000 OA
ENDBRANCH  18  21
ENDBRANCH  17  18
ENDBRANCH   1  17
TORSDOF 4
ENDMDL
MODEL 3
REMARK VINA RESULT:      -7.8      2.411      3.522
REMARK  Name = 
REMARK  5 active torsions:
REMARK  status: ('A' for Active; 'I' for Inactive)
REMARK    1  A    between atoms: C_1  and  N_2
REMARK    2  A    between atoms: C_3  and  S_4
REMARK    3  A    between atoms: S_4  and  C_5
REMARK    4  A    between atoms: C_5  and  C_6
REMARK    5  A    between atoms: N_8  and  C_9
REMARK                            x       y       z     vdW  Elec       q    Type
REMARK                         _______ _______ _______ _____ _____    ______ ____
ROOT
ATOM      1  C   UNL     1       2.146   4.500  17.754  0.00  0.00    +0.000 C 
ATOM      2  O   UNL     1       0.955   4.628  17.476  0.00  0.00    +0.000 OA
ATOM      3  N   UNL     1       2.929   5.507  18.298  0.00  0.00    +0.000 N 
ATOM      4  H   UNL     1       3.927   5.436  18.136  0.00  0.00    +0.000 HD
ENDROOT
BRANCH   3   5
ATOM      5  C   UNL     1       2.433   6.741  18.755  0.00  0.00    +0.000 A 
ATOM      6  C   UNL     1       1.986   6.804  20.094  0.00  0.00    +0.000 A 
ATOM      7  C   UNL     1       1.479   7.981  20.640  0.00  0.00    +0.000 A 
ATOM      8  C   UNL     1       1.350   9.050  19.784  0.00  0.00    +0.000 A 
ATOM      9  N   UNL     1       0.807  10.309  20.018  0.00  0.00    +0.000 N 
ATOM     10  C   UNL     1       0.764  11.009  18.804  0.00  0.00    +0.000 A 
ATOM     11  O   UNL     1       0.283  12.114  18.622  0.00  0.00    +0.000 OA
ATOM     12  N   UNL     1       1.354  10.177  17.839  0.00  0.00    +0.000 N 
ATOM     13  C   UNL     1       1.726   8.978  18.444  0.00  0.00    +0.000 A 
ATOM     14  C   UNL     1       2.314   7.852  17.904  0.00  0.00    +0.000 A 
ATOM     15  H   UNL     1       0.447  10.671  20.886  0.00  0.00    +0.000 HD
ATOM     16  H   UNL     1       1.418  10.413  16.862  0.00  0.00    +0.000 HD
ENDBRANCH   3   5
BRANCH   1  17
ATOM     17  C   UNL     1       2.914   3.233  17.378  0.00  0.00    +0.000 C 
BRANCH  17  18
ATOM     18  S   UNL     1       4.593   3.285  18.066  0.00  0.00    +0.000 S 
BRANCH  18  21
ATOM     19  C   UNL     1       6.402   5.746  18.299  0.00  0.00    +0.000 C 
ATOM     20  N   UNL     1       6.321   5.058  17.013  0.00  0.00    +0.000 N 
ATOM     21  C   UNL     1       5.528   3.952  16.741  0.00  0.00    +0.000 A 
ATOM     22  N   UNL     1       5.436   3.394  15.579  0.00  0.00    +0.000 NA
ATOM     23  C   UNL     1       6.175   3.934  14.517  0.00  0.00    +0.000 A 
ATOM     24  C   UNL     1       6.051   3.376  13.241  0.00  0.00    +0.000 A 
ATOM     25  C   UNL     1       6.757   3.907  12.157  0.00  0.00    +0.000 A 
ATOM     26  C   UNL     1       7.608   4.996  12.337  0.00  0.00    +0.000 A 
ATOM     27  C   UNL     1       7.749   5.558  13.605  0.00  0.00    +0.000 A 
ATOM     28  C   UNL     1       7.026   5.023  14.680  0.00  0.00    +0.000 A 
ATOM     29  C   UNL     1       7.120   5.617  16.021  0.00  0.00    +0.000 A 
ATOM     30  O   UNL     1       7.866   6.575  16.199  0.00  0.00    +0.000 OA
ENDBRANCH  18  21
ENDBRANCH  17  18
ENDBRANCH   1  17
TORSDOF 4
ENDMDL
MODEL 4
REMARK VINA RESULT:      -7.6      5.104      6.952
REMARK  Name = 
REMARK  5 active torsions:
REMARK  status: ('A' for Active; 'I' for Inactive)
REMARK    1  A    between atoms: C_1  and  N_2
REMARK    2  A    between atoms: C_3  and  S_4
REMARK    3  A    between atoms: S_4  and  C_5
REMARK    4  A    between atoms: C_5  and  C_6
REMARK    5  A    between atoms: N_8  and  C_9
REMARK                            x       y       z     vdW  Elec       q    Type
REMARK                         _______ _______ _______ _____ _____    ______ ____
ROOT
ATOM      1  C   UNL     1       7.973   8.300  18.154  0.00  0.00    +0.000 C 
ATOM      2  O   UNL     1       7.431   8.957  17.267  0.00  0.00    +0.000 OA
ATOM      3  N   UNL     1       8.929   8.808  19.023  0.00  0.00    +0.000 N 
ATOM      4  H   UNL     1       9.563   8.134  19.436  0.00  0.00    +0.000 HD
ENDROOT
BRANCH   3   5
ATOM      5  C   UNL     1       9.277  10.167  19.114  0.00  0.00    +0.000 A 
ATOM      6  C   UNL     1       9.317  10.741  20.404  0.00  0.00    +0.000 A 
ATOM      7  C   UNL     1       9.653  12.079  20.598  0.00  0.00    +0.000 A 
ATOM      8  C   UNL     1       9.854  12.833  19.465  0.00  0.00    +0.000 A 
ATOM      9  N   UNL     1      10.115  14.194  19.343  0.00  0.00    +0.000 N 
ATOM     10  C   UNL     1      10.098  14.532  17.982  0.00  0.00    +0.000 A 
ATOM     11  O   UNL     1      10.217  15.650  17.513  0.00  0.00    +0.000 OA
ATOM     12  N   UNL     1       9.888  13.338  17.274  0.00  0.00    +0.000 N 
ATOM     13  C   UNL     1       9.751  12.292  18.185  0.00  0.00    +0.000 A 
ATOM     14  C   UNL     1       9.509  10.950  17.970  0.00  0.00    +0.000 A 
ATOM     15  H   UNL     1      10.246  14.863  20.084  0.00  0.00    +0.000 HD
ATOM     16  H   UNL     1       9.789  13.293  16.273  0.00  0.00    +0.000 HD
ENDBRANCH   3   5
BRANCH   1  17
ATOM     17  C   UNL     1       7.739   6.795  18.281  0.00  0.00    +0.000 C 
BRANCH  17  18
ATOM     18  S   UNL     1       6.856   6.167  16.824  0.00  0.00    +0.000 S 
BRANCH  18  21
ATOM     19  C   UNL     1       5.765   3.430  15.985  0.00  0.00    +0.000 C 
ATOM     20  N   UNL     1       5.091   4.152  17.062  0.00  0.00    +0.000 N 
ATOM     21  C   UNL     1       5.443   5.408  17.533  0.00  0.00    +0.000 A 
ATOM     22  N   UNL     1       4.796   6.046  18.453  0.00  0.00    +0.000 NA
ATOM     23  C   UNL     1       3.661   5.443  19.012  0.00  0.00    +0.000 A 
ATOM     24  C   UNL     1       2.919   6.137  19.972  0.00  0.00    +0.000 A 
ATOM     25  C   UNL     1       1.768   5.572  20.532  0.00  0.00    +0.000 A 
ATOM     26  C   UNL     1       1.352   4.298  20.149  0.00  0.00    +0.000 A 
ATOM     27  C   UNL     1       2.087   3.591  19.199  0.00  0.00    +0.000 A 
ATOM     28  C   UNL     1       3.231   4.173  18.638  0.00  0.00    +0.000 A 
ATOM     29  C   UNL     1       4.005   3.471  17.605  0.00  0.00    +0.000 A 
ATOM     30  O   UNL     1       3.656   2.347  17.257  0.00  0.00    +0.000 OA
ENDBRANCH  18  21
ENDBRANCH  17  18
ENDBRANCH   1  17
TORSDOF 4
ENDMDL
MODEL 5
REMARK VINA RESULT:      -7.6      3.835      5.241
REMARK  Name = 
REMARK  5 active torsions:
REMARK  status: ('A' for Active; 'I' for Inactive)
REMARK    1  A    between atoms: C_1  and  N_2
REMARK    2  A    between atoms: C_3  and  S_4
REMARK    3  A    between atoms: S_4  and  C_5
REMARK    4  A    between atoms: C_5  and  C_6
REMARK    5  A    between atoms: N_8  and  C_9
REMARK                            x       y       z     vdW  Elec       q    Type
REMARK                         _______ _______ _______ _____ _____    ______ ____
ROOT
ATOM      1  C   UNL     1      -0.020   9.767  18.726  0.00  0.00    +0.000 C 
ATOM      2  O   UNL     1      -0.627   9.714  19.794  0.00  0.00    +0.000 OA
ATOM      3  N   UNL     1      -0.616  10.062  17.508  0.00  0.00    +0.000 N 
ATOM      4  H   UNL     1      -0.140   9.719  16.681  0.00  0.00    +0.000 HD
ENDROOT
BRANCH   3   5
ATOM      5  C   UNL     1      -1.944  10.499  17.358  0.00  0.00    +0.000 A 
ATOM      6  C   UNL     1      -2.577  10.239  16.122  0.00  0.00    +0.000 A 
ATOM      7  C   UNL     1      -3.891  10.631  15.878  0.00  0.00    +0.000 A 
ATOM      8  C   UNL     1      -4.508  11.364  16.866  0.00  0.00    +0.000 A 
ATOM      9  N   UNL     1      -5.767  11.955  16.873  0.00  0.00    +0.000 N 
ATOM     10  C   UNL     1      -5.896  12.718  18.042  0.00  0.00    +0.000 A 
ATOM     11  O   UNL     1      -6.838  13.429  18.343  0.00  0.00    +0.000 OA
ATOM     12  N   UNL     1      -4.716  12.526  18.779  0.00  0.00    +0.000 N 
ATOM     13  C   UNL     1      -3.868  11.683  18.062  0.00  0.00    +0.000 A 
ATOM     14  C   UNL     1      -2.600  11.230  18.364  0.00  0.00    +0.000 A 
ATOM     15  H   UNL     1      -6.472  11.909  16.155  0.00  0.00    +0.000 HD
ATOM     16  H   UNL     1      -4.519  12.993  19.649  0.00  0.00    +0.000 HD
ENDBRANCH   3   5
BRANCH   1  17
ATOM     17  C   UNL     1       1.450   9.360  18.629  0.00  0.00    +0.000 C 
BRANCH  17  18
ATOM     18  S   UNL     1       1.855   8.142  19.913  0.00  0.00    +0.000 S 
BRANCH  18  21
ATOM     19  C   UNL     1       1.666   5.154  20.560  0.00  0.00    +0.000 C 
ATOM     20  N   UNL     1       2.455   5.570  19.404  0.00  0.00    +0.000 N 
ATOM     21  C   UNL     1       2.661   6.881  18.999  0.00  0.00    +0.000 A 
ATOM     22  N   UNL     1       3.408   7.223  18.001  0.00  0.00    +0.000 NA
ATOM     23  C   UNL     1       4.060   6.215  17.277  0.00  0.00    +0.000 A 
ATOM     24  C   UNL     1       4.912   6.567  16.226  0.00  0.00    +0.000 A 
ATOM     25  C   UNL     1       5.595   5.586  15.500  0.00  0.00    +0.000 A 
ATOM     26  C   UNL     1       5.424   4.237  15.807  0.00  0.00    +0.000 A 
ATOM     27  C   UNL     1       4.572   3.871  16.848  0.00  0.00    +0.000 A 
ATOM     28  C   UNL     1       3.903   4.864  17.574  0.00  0.00    +0.000 A 
ATOM     29  C   UNL     1       3.030   4.514  18.703  0.00  0.00    +0.000 A 
ATOM     30  O   UNL     1       2.866   3.331  18.987  0.00  0.00    +0.000 OA
ENDBRANCH  18  21
ENDBRANCH  17  18
ENDBRANCH   1  17
TORSDOF 4
ENDMDL
MODEL 6
REMARK VINA RESULT:      -7.5      3.707      5.495
REMARK  Name = 
REMARK  5 active torsions:
REMARK  status: ('A' for Active; 'I' for Inactive)
REMARK    1  A    between atoms: C_1  and  N_2
REMARK    2  A    between atoms: C_3  and  S_4
REMARK    3  A    between atoms: S_4  and  C_5
REMARK    4  A    between atoms: C_5  and  C_6
REMARK    5  A    between atoms: N_8  and  C_9
REMARK                            x       y       z     vdW  Elec       q    Type
REMARK                         _______ _______ _______ _____ _____    ______ ____
ROOT
ATOM      1  C   UNL     1       0.192   9.703  19.276  0.00  0.00    +0.000 C 
ATOM      2  O   UNL     1      -0.531   9.629  20.268  0.00  0.00    +0.000 OA
ATOM      3  N   UNL     1      -0.273   9.943  17.991  0.00  0.00    +0.000 N 
ATOM      4  H   UNL     1       0.314   9.616  17.233  0.00  0.00    +0.000 HD
ENDROOT
BRANCH   3   5
ATOM      5  C   UNL     1      -1.598  10.298  17.680  0.00  0.00    +0.000 A 
ATOM      6  C   UNL     1      -2.121   9.838  16.451  0.00  0.00    +0.000 A 
ATOM      7  C   UNL     1      -3.423  10.136  16.054  0.00  0.00    +0.000 A 
ATOM      8  C   UNL     1      -4.140  10.974  16.876  0.00  0.00    +0.000 A 
ATOM      9  N   UNL     1      -5.413  11.506  16.702  0.00  0.00    +0.000 N 
ATOM     10  C   UNL     1      -5.660  12.421  17.735  0.00  0.00    +0.000 A 
ATOM     11  O   UNL     1      -6.645  13.126  17.858  0.00  0.00    +0.000 OA
ATOM     12  N   UNL     1      -4.538  12.386  18.579  0.00  0.00    +0.000 N 
ATOM     13  C   UNL     1      -3.609  11.487  18.058  0.00  0.00    +0.000 A 
ATOM     14  C   UNL     1      -2.356  11.135  18.516  0.00  0.00    +0.000 A 
ATOM     15  H   UNL     1      -6.056  11.328  15.947  0.00  0.00    +0.000 HD
ATOM     16  H   UNL     1      -4.427  12.980  19.385  0.00  0.00    +0.000 HD
ENDBRANCH   3   5
BRANCH   1  17
ATOM     17  C   UNL     1       1.685   9.383  19.358  0.00  0.00    +0.000 C 
BRANCH  17  18
ATOM     18  S   UNL     1       2.228   8.507  17.864  0.00  0.00    +0.000 S 
BRANCH  18  21
ATOM     19  C   UNL     1       4.660   6.905  16.913  0.00  0.00    +0.000 C 
ATOM     20  N   UNL     1       3.824   6.345  17.973  0.00  0.00    +0.000 N 
ATOM     21  C   UNL     1       2.678   6.932  18.489  0.00  0.00    +0.000 A 
ATOM     22  N   UNL     1       1.928   6.389  19.391  0.00  0.00    +0.000 NA
ATOM     23  C   UNL     1       2.283   5.125  19.883  0.00  0.00    +0.000 A 
ATOM     24  C   UNL     1       1.458   4.499  20.823  0.00  0.00    +0.000 A 
ATOM     25  C   UNL     1       1.772   3.228  21.315  0.00  0.00    +0.000 A 
ATOM     26  C   UNL     1       2.924   2.572  20.884  0.00  0.00    +0.000 A 
ATOM     27  C   UNL     1       3.760   3.187  19.954  0.00  0.00    +0.000 A 
ATOM     28  C   UNL     1       3.427   4.455  19.461  0.00  0.00    +0.000 A 
ATOM     29  C   UNL     1       4.265   5.114  18.449  0.00  0.00    +0.000 A 
ATOM     30  O   UNL     1       5.285   4.552  18.060  0.00  0.00    +0.000 OA
ENDBRANCH  18  21
ENDBRANCH  17  18
ENDBRANCH   1  17
TORSDOF 4
ENDMDL
MODEL 7
REMARK VINA RESULT:      -7.5      2.387      3.309
REMARK  Name = 
REMARK  5 active torsions:
REMARK  status: ('A' for Active; 'I' for Inactive)
REMARK    1  A    between atoms: C_1  and  N_2
REMARK    2  A    between atoms: C_3  and  S_4
REMARK    3  A    between atoms: S_4  and  C_5
REMARK    4  A    between atoms: C_5  and  C_6
REMARK    5  A    between atoms: N_8  and  C_9
REMARK                            x       y       z     vdW  Elec       q    Type
REMARK                         _______ _______ _______ _____ _____    ______ ____
ROOT
ATOM      1  C   UNL     1       2.284   4.569  18.270  0.00  0.00    +0.000 C 
ATOM      2  O   UNL     1       1.201   4.653  17.693  0.00  0.00    +0.000 OA
ATOM      3  N   UNL     1       2.906   5.630  18.913  0.00  0.00    +0.000 N 
ATOM      4  H   UNL     1       3.912   5.566  19.013  0.00  0.00    +0.000 HD
ENDROOT
BRANCH   3   5
ATOM      5  C   UNL     1       2.310   6.884  19.133  0.00  0.00    +0.000 A 
ATOM      6  C   UNL     1       2.261   7.779  18.041  0.00  0.00    +0.000 A 
ATOM      7  C   UNL     1       1.689   9.045  18.159  0.00  0.00    +0.000 A 
ATOM      8  C   UNL     1       1.260   9.411  19.413  0.00  0.00    +0.000 A 
ATOM      9  N   UNL     1       0.733  10.622  19.849  0.00  0.00    +0.000 N 
ATOM     10  C   UNL     1       0.578  10.567  21.242  0.00  0.00    +0.000 A 
ATOM     11  O   UNL     1       0.211  11.475  21.966  0.00  0.00    +0.000 OA
ATOM     12  N   UNL     1       0.959   9.274  21.637  0.00  0.00    +0.000 N 
ATOM     13  C   UNL     1       1.365   8.560  20.512  0.00  0.00    +0.000 A 
ATOM     14  C   UNL     1       1.844   7.270  20.401  0.00  0.00    +0.000 A 
ATOM     15  H   UNL     1       0.533  11.440  19.296  0.00  0.00    +0.000 HD
ATOM     16  H   UNL     1       0.987   8.970  22.597  0.00  0.00    +0.000 HD
ENDBRANCH   3   5
BRANCH   1  17
ATOM     17  C   UNL     1       3.122   3.293  18.200  0.00  0.00    +0.000 C 
BRANCH  17  18
ATOM     18  S   UNL     1       4.817   3.617  18.763  0.00  0.00    +0.000 S 
BRANCH  18  21
ATOM     19  C   UNL     1       6.676   6.045  18.580  0.00  0.00    +0.000 C 
ATOM     20  N   UNL     1       6.447   5.248  17.378  0.00  0.00    +0.000 N 
ATOM     21  C   UNL     1       5.613   4.142  17.291  0.00  0.00    +0.000 A 
ATOM     22  N   UNL     1       5.389   3.485  16.201  0.00  0.00    +0.000 NA
ATOM     23  C   UNL     1       6.018   3.911  15.022  0.00  0.00    +0.000 A 
ATOM     24  C   UNL     1       5.749   3.246  13.823  0.00  0.00    +0.000 A 
ATOM     25  C   UNL     1       6.343   3.662  12.626  0.00  0.00    +0.000 A 
ATOM     26  C   UNL     1       7.225   4.741  12.617  0.00  0.00    +0.000 A 
ATOM     27  C   UNL     1       7.509   5.409  13.807  0.00  0.00    +0.000 A 
ATOM     28  C   UNL     1       6.898   4.989  14.996  0.00  0.00    +0.000 A 
ATOM     29  C   UNL     1       7.143   5.697  16.260  0.00  0.00    +0.000 A 
ATOM     30  O   UNL     1       7.919   6.649  16.271  0.00  0.00    +0.000 OA
ENDBRANCH  18  21
ENDBRANCH  17  18
ENDBRANCH   1  17
TORSDOF 4
ENDMDL
MODEL 8
REMARK VINA RESULT:      -7.5      5.036      6.960
REMARK  Name = 
REMARK  5 active torsions:
REMARK  status: ('A' for Active; 'I' for Inactive)
REMARK    1  A    between atoms: C_1  and  N_2
REMARK    2  A    between atoms: C_3  and  S_4
REMARK    3  A    between atoms: S_4  and  C_5
REMARK    4  A    between atoms: C_5  and  C_6
REMARK    5  A    between atoms: N_8  and  C_9
REMARK                            x       y       z     vdW  Elec       q    Type
REMARK                         _______ _______ _______ _____ _____    ______ ____
ROOT
ATOM      1  C   UNL     1       8.137   8.143  18.260  0.00  0.00    +0.000 C 
ATOM      2  O   UNL     1       7.691   8.713  17.265  0.00  0.00    +0.000 OA
ATOM      3  N   UNL     1       8.954   8.751  19.202  0.00  0.00    +0.000 N 
ATOM      4  H   UNL     1       9.552   8.136  19.740  0.00  0.00    +0.000 HD
ENDROOT
BRANCH   3   5
ATOM      5  C   UNL     1       9.240  10.128  19.235  0.00  0.00    +0.000 A 
ATOM      6  C   UNL     1       9.288  10.749  20.503  0.00  0.00    +0.000 A 
ATOM      7  C   UNL     1       9.565  12.108  20.640  0.00  0.00    +0.000 A 
ATOM      8  C   UNL     1       9.698  12.829  19.476  0.00  0.00    +0.000 A 
ATOM      9  N   UNL     1       9.891  14.195  19.299  0.00  0.00    +0.000 N 
ATOM     10  C   UNL     1       9.821  14.482  17.928  0.00  0.00    +0.000 A 
ATOM     11  O   UNL     1       9.874  15.586  17.417  0.00  0.00    +0.000 OA
ATOM     12  N   UNL     1       9.649  13.254  17.269  0.00  0.00    +0.000 N 
ATOM     13  C   UNL     1       9.586  12.237  18.219  0.00  0.00    +0.000 A 
ATOM     14  C   UNL     1       9.402  10.879  18.058  0.00  0.00    +0.000 A 
ATOM     15  H   UNL     1      10.011  14.896  20.012  0.00  0.00    +0.000 HD
ATOM     16  H   UNL     1       9.525  13.169  16.273  0.00  0.00    +0.000 HD
ENDBRANCH   3   5
BRANCH   1  17
ATOM     17  C   UNL     1       7.940   6.642  18.467  0.00  0.00    +0.000 C 
BRANCH  17  18
ATOM     18  S   UNL     1       6.977   5.934  17.101  0.00  0.00    +0.000 S 
BRANCH  18  21
ATOM     19  C   UNL     1       4.381   7.558  17.001  0.00  0.00    +0.000 C 
ATOM     20  N   UNL     1       4.387   6.292  17.730  0.00  0.00    +0.000 N 
ATOM     21  C   UNL     1       5.486   5.461  17.892  0.00  0.00    +0.000 A 
ATOM     22  N   UNL     1       5.475   4.371  18.586  0.00  0.00    +0.000 NA
ATOM     23  C   UNL     1       4.285   3.998  19.227  0.00  0.00    +0.000 A 
ATOM     24  C   UNL     1       4.266   2.850  20.024  0.00  0.00    +0.000 A 
ATOM     25  C   UNL     1       3.100   2.464  20.695  0.00  0.00    +0.000 A 
ATOM     26  C   UNL     1       1.934   3.215  20.565  0.00  0.00    +0.000 A 
ATOM     27  C   UNL     1       1.935   4.358  19.767  0.00  0.00    +0.000 A 
ATOM     28  C   UNL     1       3.112   4.739  19.110  0.00  0.00    +0.000 A 
ATOM     29  C   UNL     1       3.159   5.960  18.295  0.00  0.00    +0.000 A 
ATOM     30  O   UNL     1       2.140   6.633  18.167  0.00  0.00    +0.000 OA
ENDBRANCH  18  21
ENDBRANCH  17  18
ENDBRANCH   1  17
TORSDOF 4
ENDMDL
MODEL 9
REMARK VINA RESULT:      -7.4      3.492      8.675
REMARK  Name = 
REMARK  5 active torsions:
REMARK  status: ('A' for Active; 'I' for Inactive)
REMARK    1  A    between atoms: C_1  and  N_2
REMARK    2  A    between atoms: C_3  and  S_4
REMARK    3  A    between atoms: S_4  and  C_5
REMARK    4  A    between atoms: C_5  and  C_6
REMARK    5  A    between atoms: N_8  and  C_9
REMARK                            x       y       z     vdW  Elec       q    Type
REMARK                         _______ _______ _______ _____ _____    ______ ____
ROOT
ATOM      1  C   UNL     1       1.986   8.212  18.910  0.00  0.00    +0.000 C 
ATOM      2  O   UNL     1       2.097   8.842  17.860  0.00  0.00    +0.000 OA
ATOM      3  N   UNL     1       2.459   6.920  19.095  0.00  0.00    +0.000 N 
ATOM      4  H   UNL     1       2.003   6.375  19.817  0.00  0.00    +0.000 HD
ENDROOT
BRANCH   3   5
ATOM      5  C   UNL     1       3.267   6.231  18.174  0.00  0.00    +0.000 A 
ATOM      6  C   UNL     1       3.050   4.842  18.034  0.00  0.00    +0.000 A 
ATOM      7  C   UNL     1       3.799   4.072  17.147  0.00  0.00    +0.000 A 
ATOM      8  C   UNL     1       4.817   4.715  16.483  0.00  0.00    +0.000 A 
ATOM      9  N   UNL     1       5.770   4.197  15.611  0.00  0.00    +0.000 N 
ATOM     10  C   UNL     1       6.690   5.210  15.301  0.00  0.00    +0.000 A 
ATOM     11  O   UNL     1       7.695   5.092  14.624  0.00  0.00    +0.000 OA
ATOM     12  N   UNL     1       6.239   6.372  15.948  0.00  0.00    +0.000 N 
ATOM     13  C   UNL     1       5.082   6.071  16.664  0.00  0.00    +0.000 A 
ATOM     14  C   UNL     1       4.299   6.873  17.468  0.00  0.00    +0.000 A 
ATOM     15  H   UNL     1       5.849   3.249  15.279  0.00  0.00    +0.000 HD
ATOM     16  H   UNL     1       6.737   7.247  15.932  0.00  0.00    +0.000 HD
ENDBRANCH   3   5
BRANCH   1  17
ATOM     17  C   UNL     1       1.169   8.760  20.079  0.00  0.00    +0.000 C 
BRANCH  17  18
ATOM     18  S   UNL     1       1.136  10.575  20.032  0.00  0.00    +0.000 S 
BRANCH  18  21
ATOM     19  C   UNL     1      -1.044  12.235  21.402  0.00  0.00    +0.000 C 
ATOM     20  N   UNL     1      -1.308  11.700  20.069  0.00  0.00    +0.000 N 
ATOM     21  C   UNL     1      -0.438  10.908  19.333  0.00  0.00    +0.000 A 
ATOM     22  N   UNL     1      -0.718  10.405  18.175  0.00  0.00    +0.000 NA
ATOM     23  C   UNL     1      -1.979  10.664  17.621  0.00  0.00    +0.000 A 
ATOM     24  C   UNL     1      -2.320  10.087  16.394  0.00  0.00    +0.000 A 
ATOM     25  C   UNL     1      -3.580  10.308  15.826  0.00  0.00    +0.000 A 
ATOM     26  C   UNL     1      -4.510  11.119  16.473  0.00  0.00    +0.000 A 
ATOM     27  C   UNL     1      -4.182  11.706  17.693  0.00  0.00    +0.000 A 
ATOM     28  C   UNL     1      -2.921  11.468  18.256  0.00  0.00    +0.000 A 
ATOM     29  C   UNL     1      -2.558  12.039  19.560  0.00  0.00    +0.000 A 
ATOM     30  O   UNL     1      -3.364  12.758  20.143  0.00  0.00    +0.000 OA
ENDBRANCH  18  21
ENDBRANCH  17  18
ENDBRANCH   1  17
TORSDOF 4
ENDMDL
