MODEL 1
REMARK VINA RESULT:      -8.8      0.000      0.000
REMARK  Name = 
REMARK  5 active torsions:
REMARK  status: ('A' for Active; 'I' for Inactive)
REMARK    1  A    between atoms: C_1  and  C_2
REMARK    2  A    between atoms: C_3  and  C_4
REMARK    3  A    between atoms: N_6  and  C_7
REMARK    4  A    between atoms: C_9  and  C_10
REMARK    5  A    between atoms: C_16  and  N_17
REMARK                            x       y       z     vdW  Elec       q    Type
REMARK                         _______ _______ _______ _____ _____    ______ ____
ROOT
ATOM      1  C   UNL     1       3.335   5.697  18.247  0.00  0.00    +0.000 A 
ATOM      2  C   UNL     1       4.092   6.008  17.105  0.00  0.00    +0.000 A 
ATOM      3  C   UNL     1       4.900   5.051  16.469  0.00  0.00    +0.000 A 
ATOM      4  C   UNL     1       4.982   3.766  17.012  0.00  0.00    +0.000 A 
ATOM      5  C   UNL     1       4.245   3.430  18.147  0.00  0.00    +0.000 A 
ATOM      6  C   UNL     1       3.399   4.375  18.762  0.00  0.00    +0.000 A 
ENDROOT
BRANCH   6   7
ATOM      7  N   UNL     1       2.572   3.944  19.844  0.00  0.00    +0.000 N 
ATOM      8  C   UNL     1       2.940   3.539  21.108  0.00  0.00    +0.000 A 
ATOM      9  N   UNL     1       1.903   3.081  21.772  0.00  0.00    +0.000 NA
ATOM     10  C   UNL     1       0.887   3.247  20.886  0.00  0.00    +0.000 A 
ATOM     11  N   UNL     1       1.224   3.806  19.724  0.00  0.00    +0.000 NA
ENDBRANCH   6   7
BRANCH   1  14
ATOM     12  C   UNL     1       2.238   7.970  18.479  0.00  0.00    +0.000 C 
ATOM     13  O   UNL     1       2.584   8.461  17.408  0.00  0.00    +0.000 OA
ATOM     14  N   UNL     1       2.544   6.682  18.886  0.00  0.00    +0.000 N 
ATOM     15  H   UNL     1       2.056   6.377  19.734  0.00  0.00    +0.000 HD
BRANCH  12  18
ATOM     16  C   UNL     1       0.070  10.427  18.067  0.00  0.00    +0.000 C 
ATOM     17  C   UNL     1       0.513   9.740  19.309  0.00  0.00    +0.000 A 
ATOM     18  C   UNL     1       1.427   8.698  19.446  0.00  0.00    +0.000 A 
ATOM     19  O   UNL     1       1.535   8.352  20.769  0.00  0.00    +0.000 OA
ATOM     20  C   UNL     1       0.710   9.165  21.478  0.00  0.00    +0.000 A 
ATOM     21  C   UNL     1       0.540   9.131  22.859  0.00  0.00    +0.000 A 
ATOM     22  C   UNL     1      -0.362  10.056  23.397  0.00  0.00    +0.000 A 
ATOM     23  C   UNL     1      -1.043  10.958  22.578  0.00  0.00    +0.000 A 
ATOM     24  C   UNL     1      -0.845  10.968  21.192  0.00  0.00    +0.000 A 
ATOM     25  C   UNL     1       0.054  10.042  20.630  0.00  0.00    +0.000 A 
ENDBRANCH  12  18
ENDBRANCH   1  14
BRANCH   3  26
ATOM     26  C   UNL     1       5.668   5.385  15.212  0.00  0.00    +0.000 C 
ATOM     27  F   UNL     1       7.017   5.428  15.379  0.00  0.00    +0.000 F 
ATOM     28  F   UNL     1       5.441   4.485  14.215  0.00  0.00    +0.000 F 
ATOM     29  F   UNL     1       5.314   6.598  14.703  0.00  0.00    +0.000 F 
ENDBRANCH   3  26
TORSDOF 4
ENDMDL
MODEL 2
REMARK VINA RESULT:      -8.7      1.344      1.541
REMARK  Name = 
REMARK  5 active torsions:
REMARK  status: ('A' for Active; 'I' for Inactive)
REMARK    1  A    between atoms: C_1  and  C_2
REMARK    2  A    between atoms: C_3  and  C_4
REMARK    3  A    between atoms: N_6  and  C_7
REMARK    4  A    between atoms: C_9  and  C_10
REMARK    5  A    between atoms: C_16  and  N_17
REMARK                            x       y       z     vdW  Elec       q    Type
REMARK                         _______ _______ _______ _____ _____    ______ ____
ROOT
ATOM      1  C   UNL     1       3.995   5.720  19.342  0.00  0.00    +0.000 A 
ATOM      2  C   UNL     1       5.184   6.067  18.679  0.00  0.00    +0.000 A 
ATOM      3  C   UNL     1       6.116   5.097  18.275  0.00  0.00    +0.000 A 
ATOM      4  C   UNL     1       5.869   3.755  18.575  0.00  0.00    +0.000 A 
ATOM      5  C   UNL     1       4.699   3.382  19.235  0.00  0.00    +0.000 A 
ATOM      6  C   UNL     1       3.741   4.348  19.604  0.00  0.00    +0.000 A 
ENDROOT
BRANCH   6   7
ATOM      7  N   UNL     1       2.506   3.900  20.163  0.00  0.00    +0.000 N 
ATOM      8  C   UNL     1       2.274   3.289  21.376  0.00  0.00    +0.000 A 
ATOM      9  N   UNL     1       1.024   2.898  21.471  0.00  0.00    +0.000 NA
ATOM     10  C   UNL     1       0.493   3.315  20.293  0.00  0.00    +0.000 A 
ATOM     11  N   UNL     1       1.329   3.966  19.484  0.00  0.00    +0.000 NA
ENDBRANCH   6   7
BRANCH   1  14
ATOM     12  C   UNL     1       2.229   7.507  19.009  0.00  0.00    +0.000 C 
ATOM     13  O   UNL     1       2.094   7.420  17.791  0.00  0.00    +0.000 OA
ATOM     14  N   UNL     1       3.079   6.715  19.762  0.00  0.00    +0.000 N 
ATOM     15  H   UNL     1       2.964   6.812  20.776  0.00  0.00    +0.000 HD
BRANCH  12  18
ATOM     16  C   UNL     1       1.372  10.640  18.412  0.00  0.00    +0.000 C 
ATOM     17  C   UNL     1       1.100   9.783  19.595  0.00  0.00    +0.000 A 
ATOM     18  C   UNL     1       1.470   8.458  19.811  0.00  0.00    +0.000 A 
ATOM     19  O   UNL     1       1.003   8.042  21.032  0.00  0.00    +0.000 OA
ATOM     20  C   UNL     1       0.348   9.086  21.601  0.00  0.00    +0.000 A 
ATOM     21  C   UNL     1      -0.267   9.065  22.850  0.00  0.00    +0.000 A 
ATOM     22  C   UNL     1      -0.892  10.250  23.255  0.00  0.00    +0.000 A 
ATOM     23  C   UNL     1      -0.887  11.383  22.440  0.00  0.00    +0.000 A 
ATOM     24  C   UNL     1      -0.255  11.371  21.190  0.00  0.00    +0.000 A 
ATOM     25  C   UNL     1       0.376  10.187  20.762  0.00  0.00    +0.000 A 
ENDBRANCH  12  18
ENDBRANCH   1  14
BRANCH   3  26
ATOM     26  C   UNL     1       7.365   5.480  17.517  0.00  0.00    +0.000 C 
ATOM     27  F   UNL     1       8.156   6.377  18.165  0.00  0.00    +0.000 F 
ATOM     28  F   UNL     1       8.158   4.403  17.252  0.00  0.00    +0.000 F 
ATOM     29  F   UNL     1       7.080   6.036  16.307  0.00  0.00    +0.000 F 
ENDBRANCH   3  26
TORSDOF 4
ENDMDL
MODEL 3
REMARK VINA RESULT:      -8.7      0.847      1.223
REMARK  Name = 
REMARK  5 active torsions:
REMARK  status: ('A' for Active; 'I' for Inactive)
REMARK    1  A    between atoms: C_1  and  C_2
REMARK    2  A    between atoms: C_3  and  C_4
REMARK    3  A    between atoms: N_6  and  C_7
REMARK    4  A    between atoms: C_9  and  C_10
REMARK    5  A    between atoms: C_16  and  N_17
REMARK                            x       y       z     vdW  Elec       q    Type
REMARK                         _______ _______ _______ _____ _____    ______ ____
ROOT
ATOM      1  C   UNL     1       3.794   5.812  18.752  0.00  0.00    +0.000 A 
ATOM      2  C   UNL     1       4.829   6.151  17.864  0.00  0.00    +0.000 A 
ATOM      3  C   UNL     1       5.696   5.182  17.331  0.00  0.00    +0.000 A 
ATOM      4  C   UNL     1       5.546   3.850  17.727  0.00  0.00    +0.000 A 
ATOM      5  C   UNL     1       4.529   3.485  18.610  0.00  0.00    +0.000 A 
ATOM      6  C   UNL     1       3.631   4.448  19.112  0.00  0.00    +0.000 A 
ENDROOT
BRANCH   6   7
ATOM      7  N   UNL     1       2.535   4.002  19.911  0.00  0.00    +0.000 N 
ATOM      8  C   UNL     1       2.553   3.394  21.147  0.00  0.00    +0.000 A 
ATOM      9  N   UNL     1       1.348   3.004  21.493  0.00  0.00    +0.000 NA
ATOM     10  C   UNL     1       0.589   3.419  20.446  0.00  0.00    +0.000 A 
ATOM     11  N   UNL     1       1.245   4.068  19.484  0.00  0.00    +0.000 NA
ENDBRANCH   6   7
BRANCH   1  14
ATOM     12  C   UNL     1       2.267   7.832  18.658  0.00  0.00    +0.000 C 
ATOM     13  O   UNL     1       2.254   8.008  17.442  0.00  0.00    +0.000 OA
ATOM     14  N   UNL     1       2.946   6.807  19.294  0.00  0.00    +0.000 N 
ATOM     15  H   UNL     1       2.734   6.712  20.293  0.00  0.00    +0.000 HD
BRANCH  12  18
ATOM     16  C   UNL     1       1.459  11.028  18.460  0.00  0.00    +0.000 C 
ATOM     17  C   UNL     1       1.179  10.035  19.530  0.00  0.00    +0.000 A 
ATOM     18  C   UNL     1       1.529   8.688  19.577  0.00  0.00    +0.000 A 
ATOM     19  O   UNL     1       1.061   8.132  20.741  0.00  0.00    +0.000 OA
ATOM     20  C   UNL     1       0.427   9.108  21.440  0.00  0.00    +0.000 A 
ATOM     21  C   UNL     1      -0.181   8.942  22.681  0.00  0.00    +0.000 A 
ATOM     22  C   UNL     1      -0.784  10.077  23.235  0.00  0.00    +0.000 A 
ATOM     23  C   UNL     1      -0.765  11.302  22.565  0.00  0.00    +0.000 A 
ATOM     24  C   UNL     1      -0.140  11.435  21.319  0.00  0.00    +0.000 A 
ATOM     25  C   UNL     1       0.468  10.303  20.743  0.00  0.00    +0.000 A 
ENDBRANCH  12  18
ENDBRANCH   1  14
BRANCH   3  26
ATOM     26  C   UNL     1       6.771   5.554  16.339  0.00  0.00    +0.000 C 
ATOM     27  F   UNL     1       6.301   5.872  15.103  0.00  0.00    +0.000 F 
ATOM     28  F   UNL     1       7.504   6.626  16.750  0.00  0.00    +0.000 F 
ATOM     29  F   UNL     1       7.666   4.544  16.152  0.00  0.00    +0.000 F 
ENDBRANCH   3  26
TORSDOF 4
ENDMDL
MODEL 4
REMARK VINA RESULT:      -8.5      2.817      4.633
REMARK  Name = 
REMARK  5 active torsions:
REMARK  status: ('A' for Active; 'I' for Inactive)
REMARK    1  A    between atoms: C_1  and  C_2
REMARK    2  A    between atoms: C_3  and  C_4
REMARK    3  A    between atoms: N_6  and  C_7
REMARK    4  A    between atoms: C_9  and  C_10
REMARK    5  A    between atoms: C_16  and  N_17
REMARK                            x       y       z     vdW  Elec       q    Type
REMARK                         _______ _______ _______ _____ _____    ______ ____
ROOT
ATOM      1  C   UNL     1       5.342   5.192  15.653  0.00  0.00    +0.000 A 
ATOM      2  C   UNL     1       4.796   4.634  14.485  0.00  0.00    +0.000 A 
ATOM      3  C   UNL     1       5.605   4.058  13.492  0.00  0.00    +0.000 A 
ATOM      4  C   UNL     1       6.993   4.076  13.654  0.00  0.00    +0.000 A 
ATOM      5  C   UNL     1       7.563   4.626  14.802  0.00  0.00    +0.000 A 
ATOM      6  C   UNL     1       6.752   5.166  15.821  0.00  0.00    +0.000 A 
ENDROOT
BRANCH   6   7
ATOM      7  N   UNL     1       7.379   5.602  17.028  0.00  0.00    +0.000 N 
ATOM      8  C   UNL     1       7.714   4.868  18.145  0.00  0.00    +0.000 A 
ATOM      9  N   UNL     1       8.145   5.652  19.106  0.00  0.00    +0.000 NA
ATOM     10  C   UNL     1       8.092   6.882  18.533  0.00  0.00    +0.000 A 
ATOM     11  N   UNL     1       7.682   6.907  17.264  0.00  0.00    +0.000 NA
ENDBRANCH   6   7
BRANCH   1  14
ATOM     12  C   UNL     1       3.672   5.193  17.559  0.00  0.00    +0.000 C 
ATOM     13  O   UNL     1       3.558   3.980  17.716  0.00  0.00    +0.000 OA
ATOM     14  N   UNL     1       4.511   5.788  16.632  0.00  0.00    +0.000 N 
ATOM     15  H   UNL     1       4.600   6.804  16.730  0.00  0.00    +0.000 HD
BRANCH  12  18
ATOM     16  C   UNL     1       2.473   4.971  20.628  0.00  0.00    +0.000 C 
ATOM     17  C   UNL     1       2.411   6.093  19.656  0.00  0.00    +0.000 A 
ATOM     18  C   UNL     1       2.937   6.156  18.368  0.00  0.00    +0.000 A 
ATOM     19  O   UNL     1       2.666   7.385  17.820  0.00  0.00    +0.000 OA
ATOM     20  C   UNL     1       1.967   8.101  18.737  0.00  0.00    +0.000 A 
ATOM     21  C   UNL     1       1.501   9.401  18.557  0.00  0.00    +0.000 A 
ATOM     22  C   UNL     1       0.801   9.965  19.630  0.00  0.00    +0.000 A 
ATOM     23  C   UNL     1       0.589   9.247  20.808  0.00  0.00    +0.000 A 
ATOM     24  C   UNL     1       1.069   7.940  20.955  0.00  0.00    +0.000 A 
ATOM     25  C   UNL     1       1.780   7.356  19.889  0.00  0.00    +0.000 A 
ENDBRANCH  12  18
ENDBRANCH   1  14
BRANCH   3  26
ATOM     26  C   UNL     1       5.002   3.415  12.265  0.00  0.00    +0.000 C 
ATOM     27  F   UNL     1       5.514   2.191  11.969  0.00  0.00    +0.000 F 
ATOM     28  F   UNL     1       3.655   3.241  12.384  0.00  0.00    +0.000 F 
ATOM     29  F   UNL     1       5.178   4.176  11.149  0.00  0.00    +0.000 F 
ENDBRANCH   3  26
TORSDOF 4
ENDMDL
MODEL 5
REMARK VINA RESULT:      -8.4      3.574      7.738
REMARK  Name = 
REMARK  5 active torsions:
REMARK  status: ('A' for Active; 'I' for Inactive)
REMARK    1  A    between atoms: C_1  and  C_2
REMARK    2  A    between atoms: C_3  and  C_4
REMARK    3  A    between atoms: N_6  and  C_7
REMARK    4  A    between atoms: C_9  and  C_10
REMARK    5  A    between atoms: C_16  and  N_17
REMARK                            x       y       z     vdW  Elec       q    Type
REMARK                         _______ _______ _______ _____ _____    ______ ____
ROOT
ATOM      1  C   UNL     1       3.075   5.477  18.932  0.00  0.00    +0.000 A 
ATOM      2  C   UNL     1       2.616   6.756  19.287  0.00  0.00    +0.000 A 
ATOM      3  C   UNL     1       1.725   6.954  20.354  0.00  0.00    +0.000 A 
ATOM      4  C   UNL     1       1.253   5.841  21.057  0.00  0.00    +0.000 A 
ATOM      5  C   UNL     1       1.689   4.559  20.725  0.00  0.00    +0.000 A 
ATOM      6  C   UNL     1       2.617   4.361  19.683  0.00  0.00    +0.000 A 
ENDROOT
BRANCH   6   7
ATOM      7  N   UNL     1       3.125   3.044  19.467  0.00  0.00    +0.000 N 
ATOM      8  C   UNL     1       4.004   2.316  20.238  0.00  0.00    +0.000 A 
ATOM      9  N   UNL     1       4.341   1.200  19.635  0.00  0.00    +0.000 NA
ATOM     10  C   UNL     1       3.618   1.253  18.486  0.00  0.00    +0.000 A 
ATOM     11  N   UNL     1       2.831   2.321  18.353  0.00  0.00    +0.000 NA
ENDBRANCH   6   7
BRANCH   1  14
ATOM     12  C   UNL     1       5.289   4.921  17.831  0.00  0.00    +0.000 C 
ATOM     13  O   UNL     1       5.931   4.615  18.833  0.00  0.00    +0.000 OA
ATOM     14  N   UNL     1       3.956   5.296  17.839  0.00  0.00    +0.000 N 
ATOM     15  H   UNL     1       3.531   5.375  16.909  0.00  0.00    +0.000 HD
BRANCH  12  18
ATOM     16  C   UNL     1       7.689   6.743  16.480  0.00  0.00    +0.000 C 
ATOM     17  C   UNL     1       6.871   5.651  15.892  0.00  0.00    +0.000 A 
ATOM     18  C   UNL     1       5.869   4.895  16.495  0.00  0.00    +0.000 A 
ATOM     19  O   UNL     1       5.380   3.979  15.597  0.00  0.00    +0.000 OA
ATOM     20  C   UNL     1       6.050   4.148  14.429  0.00  0.00    +0.000 A 
ATOM     21  C   UNL     1       5.838   3.409  13.267  0.00  0.00    +0.000 A 
ATOM     22  C   UNL     1       6.638   3.739  12.167  0.00  0.00    +0.000 A 
ATOM     23  C   UNL     1       7.589   4.758  12.246  0.00  0.00    +0.000 A 
ATOM     24  C   UNL     1       7.773   5.484  13.430  0.00  0.00    +0.000 A 
ATOM     25  C   UNL     1       6.981   5.165  14.550  0.00  0.00    +0.000 A 
ENDBRANCH  12  18
ENDBRANCH   1  14
BRANCH   3  26
ATOM     26  C   UNL     1       1.280   8.339  20.757  0.00  0.00    +0.000 C 
ATOM     27  F   UNL     1       1.441   9.279  19.787  0.00  0.00    +0.000 F 
ATOM     28  F   UNL     1      -0.038   8.378  21.102  0.00  0.00    +0.000 F 
ATOM     29  F   UNL     1       1.960   8.800  21.843  0.00  0.00    +0.000 F 
ENDBRANCH   3  26
TORSDOF 4
ENDMDL
MODEL 6
REMARK VINA RESULT:      -8.4      0.992      1.204
REMARK  Name = 
REMARK  5 active torsions:
REMARK  status: ('A' for Active; 'I' for Inactive)
REMARK    1  A    between atoms: C_1  and  C_2
REMARK    2  A    between atoms: C_3  and  C_4
REMARK    3  A    between atoms: N_6  and  C_7
REMARK    4  A    between atoms: C_9  and  C_10
REMARK    5  A    between atoms: C_16  and  N_17
REMARK                            x       y       z     vdW  Elec       q    Type
REMARK                         _______ _______ _______ _____ _____    ______ ____
ROOT
ATOM      1  C   UNL     1       3.686   5.707  18.167  0.00  0.00    +0.000 A 
ATOM      2  C   UNL     1       4.789   6.056  17.371  0.00  0.00    +0.000 A 
ATOM      3  C   UNL     1       5.590   5.085  16.748  0.00  0.00    +0.000 A 
ATOM      4  C   UNL     1       5.301   3.733  16.958  0.00  0.00    +0.000 A 
ATOM      5  C   UNL     1       4.214   3.357  17.746  0.00  0.00    +0.000 A 
ATOM      6  C   UNL     1       3.383   4.330  18.337  0.00  0.00    +0.000 A 
ENDROOT
BRANCH   6   7
ATOM      7  N   UNL     1       2.212   3.893  19.029  0.00  0.00    +0.000 N 
ATOM      8  C   UNL     1       1.251   2.992  18.625  0.00  0.00    +0.000 A 
ATOM      9  N   UNL     1       0.253   2.960  19.478  0.00  0.00    +0.000 NA
ATOM     10  C   UNL     1       0.647   3.845  20.429  0.00  0.00    +0.000 A 
ATOM     11  N   UNL     1       1.842   4.404  20.235  0.00  0.00    +0.000 NA
ENDBRANCH   6   7
BRANCH   1  14
ATOM     12  C   UNL     1       2.438   7.908  18.313  0.00  0.00    +0.000 C 
ATOM     13  O   UNL     1       2.596   8.296  17.158  0.00  0.00    +0.000 OA
ATOM     14  N   UNL     1       2.905   6.701  18.805  0.00  0.00    +0.000 N 
ATOM     15  H   UNL     1       2.562   6.462  19.741  0.00  0.00    +0.000 HD
BRANCH  12  18
ATOM     16  C   UNL     1       1.536  11.085  18.334  0.00  0.00    +0.000 C 
ATOM     17  C   UNL     1       1.315  10.021  19.348  0.00  0.00    +0.000 A 
ATOM     18  C   UNL     1       1.703   8.685  19.303  0.00  0.00    +0.000 A 
ATOM     19  O   UNL     1       1.285   8.045  20.442  0.00  0.00    +0.000 OA
ATOM     20  C   UNL     1       0.644   8.958  21.216  0.00  0.00    +0.000 A 
ATOM     21  C   UNL     1       0.076   8.699  22.461  0.00  0.00    +0.000 A 
ATOM     22  C   UNL     1      -0.543   9.780  23.099  0.00  0.00    +0.000 A 
ATOM     23  C   UNL     1      -0.576  11.044  22.506  0.00  0.00    +0.000 A 
ATOM     24  C   UNL     1       0.009  11.270  21.254  0.00  0.00    +0.000 A 
ATOM     25  C   UNL     1       0.632  10.194  20.593  0.00  0.00    +0.000 A 
ENDBRANCH  12  18
ENDBRANCH   1  14
BRANCH   3  26
ATOM     26  C   UNL     1       6.742   5.476  15.853  0.00  0.00    +0.000 C 
ATOM     27  F   UNL     1       7.667   4.495  15.676  0.00  0.00    +0.000 F 
ATOM     28  F   UNL     1       6.328   5.831  14.604  0.00  0.00    +0.000 F 
ATOM     29  F   UNL     1       7.423   6.552  16.337  0.00  0.00    +0.000 F 
ENDBRANCH   3  26
TORSDOF 4
ENDMDL
MODEL 7
REMARK VINA RESULT:      -8.3      0.801      1.481
REMARK  Name = 
REMARK  5 active torsions:
REMARK  status: ('A' for Active; 'I' for Inactive)
REMARK    1  A    between atoms: C_1  and  C_2
REMARK    2  A    between atoms: C_3  and  C_4
REMARK    3  A    between atoms: N_6  and  C_7
REMARK    4  A    between atoms: C_9  and  C_10
REMARK    5  A    between atoms: C_16  and  N_17
REMARK                            x       y       z     vdW  Elec       q    Type
REMARK                         _______ _______ _______ _____ _____    ______ ____
ROOT
ATOM      1  C   UNL     1       3.387   5.756  18.243  0.00  0.00    +0.000 A 
ATOM      2  C   UNL     1       4.130   6.074  17.094  0.00  0.00    +0.000 A 
ATOM      3  C   UNL     1       4.890   5.109  16.413  0.00  0.00    +0.000 A 
ATOM      4  C   UNL     1       4.936   3.806  16.916  0.00  0.00    +0.000 A 
ATOM      5  C   UNL     1       4.211   3.462  18.057  0.00  0.00    +0.000 A 
ATOM      6  C   UNL     1       3.413   4.418  18.717  0.00  0.00    +0.000 A 
ENDROOT
BRANCH   6   7
ATOM      7  N   UNL     1       2.593   3.984  19.804  0.00  0.00    +0.000 N 
ATOM      8  C   UNL     1       2.969   3.571  21.063  0.00  0.00    +0.000 A 
ATOM      9  N   UNL     1       1.937   3.114  21.732  0.00  0.00    +0.000 NA
ATOM     10  C   UNL     1       0.914   3.288  20.856  0.00  0.00    +0.000 A 
ATOM     11  N   UNL     1       1.244   3.853  19.694  0.00  0.00    +0.000 NA
ENDBRANCH   6   7
BRANCH   1  14
ATOM     12  C   UNL     1       2.260   8.011  18.508  0.00  0.00    +0.000 C 
ATOM     13  O   UNL     1       2.471   8.465  17.386  0.00  0.00    +0.000 OA
ATOM     14  N   UNL     1       2.645   6.749  18.928  0.00  0.00    +0.000 N 
ATOM     15  H   UNL     1       2.264   6.470  19.837  0.00  0.00    +0.000 HD
BRANCH  12  18
ATOM     16  C   UNL     1       1.078   7.076  21.446  0.00  0.00    +0.000 C 
ATOM     17  C   UNL     1       1.024   8.399  20.770  0.00  0.00    +0.000 A 
ATOM     18  C   UNL     1       1.543   8.762  19.530  0.00  0.00    +0.000 A 
ATOM     19  O   UNL     1       1.284  10.088  19.293  0.00  0.00    +0.000 OA
ATOM     20  C   UNL     1       0.600  10.573  20.361  0.00  0.00    +0.000 A 
ATOM     21  C   UNL     1       0.149  11.882  20.500  0.00  0.00    +0.000 A 
ATOM     22  C   UNL     1      -0.537  12.182  21.682  0.00  0.00    +0.000 A 
ATOM     23  C   UNL     1      -0.751  11.206  22.658  0.00  0.00    +0.000 A 
ATOM     24  C   UNL     1      -0.287   9.896  22.484  0.00  0.00    +0.000 A 
ATOM     25  C   UNL     1       0.410   9.576  21.304  0.00  0.00    +0.000 A 
ENDBRANCH  12  18
ENDBRANCH   1  14
BRANCH   3  26
ATOM     26  C   UNL     1       5.644   5.453  15.151  0.00  0.00    +0.000 C 
ATOM     27  F   UNL     1       6.995   5.479  15.299  0.00  0.00    +0.000 F 
ATOM     28  F   UNL     1       5.393   4.570  14.144  0.00  0.00    +0.000 F 
ATOM     29  F   UNL     1       5.295   6.677  14.664  0.00  0.00    +0.000 F 
ENDBRANCH   3  26
TORSDOF 4
ENDMDL
MODEL 8
REMARK VINA RESULT:      -8.2      2.763      4.545
REMARK  Name = 
REMARK  5 active torsions:
REMARK  status: ('A' for Active; 'I' for Inactive)
REMARK    1  A    between atoms: C_1  and  C_2
REMARK    2  A    between atoms: C_3  and  C_4
REMARK    3  A    between atoms: N_6  and  C_7
REMARK    4  A    between atoms: C_9  and  C_10
REMARK    5  A    between atoms: C_16  and  N_17
REMARK                            x       y       z     vdW  Elec       q    Type
REMARK                         _______ _______ _______ _____ _____    ______ ____
ROOT
ATOM      1  C   UNL     1       5.332   5.323  15.891  0.00  0.00    +0.000 A 
ATOM      2  C   UNL     1       4.836   4.764  14.701  0.00  0.00    +0.000 A 
ATOM      3  C   UNL     1       5.687   4.184  13.745  0.00  0.00    +0.000 A 
ATOM      4  C   UNL     1       7.066   4.199  13.969  0.00  0.00    +0.000 A 
ATOM      5  C   UNL     1       7.586   4.750  15.140  0.00  0.00    +0.000 A 
ATOM      6  C   UNL     1       6.733   5.294  16.121  0.00  0.00    +0.000 A 
ENDROOT
BRANCH   6   7
ATOM      7  N   UNL     1       7.307   5.730  17.354  0.00  0.00    +0.000 N 
ATOM      8  C   UNL     1       7.698   6.996  17.728  0.00  0.00    +0.000 A 
ATOM      9  N   UNL     1       8.313   6.971  18.888  0.00  0.00    +0.000 NA
ATOM     10  C   UNL     1       8.259   5.657  19.225  0.00  0.00    +0.000 A 
ATOM     11  N   UNL     1       7.622   4.868  18.358  0.00  0.00    +0.000 NA
ENDBRANCH   6   7
BRANCH   1  14
ATOM     12  C   UNL     1       3.517   5.338  17.660  0.00  0.00    +0.000 C 
ATOM     13  O   UNL     1       3.324   4.128  17.748  0.00  0.00    +0.000 OA
ATOM     14  N   UNL     1       4.460   5.923  16.831  0.00  0.00    +0.000 N 
ATOM     15  H   UNL     1       4.597   6.927  16.985  0.00  0.00    +0.000 HD
BRANCH  12  18
ATOM     16  C   UNL     1       2.300   5.138  20.724  0.00  0.00    +0.000 C 
ATOM     17  C   UNL     1       2.242   6.253  19.742  0.00  0.00    +0.000 A 
ATOM     18  C   UNL     1       2.775   6.307  18.457  0.00  0.00    +0.000 A 
ATOM     19  O   UNL     1       2.505   7.530  17.897  0.00  0.00    +0.000 OA
ATOM     20  C   UNL     1       1.799   8.252  18.804  0.00  0.00    +0.000 A 
ATOM     21  C   UNL     1       1.331   9.549  18.610  0.00  0.00    +0.000 A 
ATOM     22  C   UNL     1       0.623  10.120  19.674  0.00  0.00    +0.000 A 
ATOM     23  C   UNL     1       0.405   9.412  20.858  0.00  0.00    +0.000 A 
ATOM     24  C   UNL     1       0.888   8.107  21.018  0.00  0.00    +0.000 A 
ATOM     25  C   UNL     1       1.606   7.516  19.961  0.00  0.00    +0.000 A 
ENDBRANCH  12  18
ENDBRANCH   1  14
BRANCH   3  26
ATOM     26  C   UNL     1       5.136   3.542  12.494  0.00  0.00    +0.000 C 
ATOM     27  F   UNL     1       3.797   3.308  12.532  0.00  0.00    +0.000 F 
ATOM     28  F   UNL     1       5.353   4.302  11.385  0.00  0.00    +0.000 F 
ATOM     29  F   UNL     1       5.720   2.338  12.237  0.00  0.00    +0.000 F 
ENDBRANCH   3  26
TORSDOF 4
ENDMDL
MODEL 9
REMARK VINA RESULT:      -8.1      1.368      1.804
REMARK  Name = 
REMARK  5 active torsions:
REMARK  status: ('A' for Active; 'I' for Inactive)
REMARK    1  A    between atoms: C_1  and  C_2
REMARK    2  A    between atoms: C_3  and  C_4
REMARK    3  A    between atoms: N_6  and  C_7
REMARK    4  A    between atoms: C_9  and  C_10
REMARK    5  A    between atoms: C_16  and  N_17
REMARK                            x       y       z     vdW  Elec       q    Type
REMARK                         _______ _______ _______ _____ _____    ______ ____
ROOT
ATOM      1  C   UNL     1       3.999   5.677  19.292  0.00  0.00    +0.000 A 
ATOM      2  C   UNL     1       5.198   6.058  18.669  0.00  0.00    +0.000 A 
ATOM      3  C   UNL     1       6.158   5.114  18.270  0.00  0.00    +0.000 A 
ATOM      4  C   UNL     1       5.928   3.761  18.535  0.00  0.00    +0.000 A 
ATOM      5  C   UNL     1       4.748   3.354  19.155  0.00  0.00    +0.000 A 
ATOM      6  C   UNL     1       3.763   4.295  19.518  0.00  0.00    +0.000 A 
ENDROOT
BRANCH   6   7
ATOM      7  N   UNL     1       2.522   3.813  20.035  0.00  0.00    +0.000 N 
ATOM      8  C   UNL     1       1.272   3.839  19.455  0.00  0.00    +0.000 A 
ATOM      9  N   UNL     1       0.356   3.430  20.301  0.00  0.00    +0.000 NA
ATOM     10  C   UNL     1       1.086   3.125  21.405  0.00  0.00    +0.000 A 
ATOM     11  N   UNL     1       2.404   3.292  21.286  0.00  0.00    +0.000 NA
ENDBRANCH   6   7
BRANCH   1  14
ATOM     12  C   UNL     1       2.323   7.547  18.952  0.00  0.00    +0.000 C 
ATOM     13  O   UNL     1       2.345   7.605  17.725  0.00  0.00    +0.000 OA
ATOM     14  N   UNL     1       3.054   6.646  19.708  0.00  0.00    +0.000 N 
ATOM     15  H   UNL     1       2.810   6.629  20.703  0.00  0.00    +0.000 HD
BRANCH  12  18
ATOM     16  C   UNL     1       0.679  10.300  18.159  0.00  0.00    +0.000 C 
ATOM     17  C   UNL     1       0.786   9.591  19.461  0.00  0.00    +0.000 A 
ATOM     18  C   UNL     1       1.483   8.423  19.759  0.00  0.00    +0.000 A 
ATOM     19  O   UNL     1       1.304   8.105  21.082  0.00  0.00    +0.000 OA
ATOM     20  C   UNL     1       0.510   9.059  21.632  0.00  0.00    +0.000 A 
ATOM     21  C   UNL     1       0.100   9.094  22.962  0.00  0.00    +0.000 A 
ATOM     22  C   UNL     1      -0.722  10.165  23.331  0.00  0.00    +0.000 A 
ATOM     23  C   UNL     1      -1.098  11.138  22.403  0.00  0.00    +0.000 A 
ATOM     24  C   UNL     1      -0.664  11.074  21.073  0.00  0.00    +0.000 A 
ATOM     25  C   UNL     1       0.160  10.001  20.680  0.00  0.00    +0.000 A 
ENDBRANCH  12  18
ENDBRANCH   1  14
BRANCH   3  26
ATOM     26  C   UNL     1       7.420   5.535  17.555  0.00  0.00    +0.000 C 
ATOM     27  F   UNL     1       7.203   6.209  16.394  0.00  0.00    +0.000 F 
ATOM     28  F   UNL     1       8.201   6.348  18.321  0.00  0.00    +0.000 F 
ATOM     29  F   UNL     1       8.204   4.469  17.230  0.00  0.00    +0.000 F 
ENDBRANCH   3  26
TORSDOF 4
ENDMDL
