MODEL 1
REMARK VINA RESULT:      -9.4      0.000      0.000
REMARK  Name = 
REMARK  3 active torsions:
REMARK  status: ('A' for Active; 'I' for Inactive)
REMARK    1  A    between atoms: C_2  and  C_3
REMARK    2  A    between atoms: C_3  and  C_4
REMARK    3  A    between atoms: C_17  and  C_18
REMARK                            x       y       z     vdW  Elec       q    Type
REMARK                         _______ _______ _______ _____ _____    ______ ____
ROOT
ATOM      1  O   UNL     1       5.182   5.125  15.710  0.00  0.00    +0.000 OA
ATOM      2  C   UNL     1       5.760   5.591  16.700  0.00  0.00    +0.000 C 
ATOM      3  N   UNL     1       6.449   6.758  16.547  0.00  0.00    +0.000 N 
ATOM      4  C   UNL     1       7.273   7.385  17.449  0.00  0.00    +0.000 A 
ATOM      5  C   UNL     1       7.772   8.697  17.295  0.00  0.00    +0.000 A 
ATOM      6  C   UNL     1       8.563   8.936  18.403  0.00  0.00    +0.000 A 
ATOM      7  N   UNL     1       8.523   7.764  19.110  0.00  0.00    +0.000 N 
ATOM      8  N   UNL     1       7.719   6.840  18.576  0.00  0.00    +0.000 NA
ATOM      9  H   UNL     1       6.355   7.182  15.635  0.00  0.00    +0.000 HD
ATOM     10  H   UNL     1       8.994   7.537  19.979  0.00  0.00    +0.000 HD
ENDROOT
BRANCH   6  11
ATOM     11  C   UNL     1       9.302  10.116  18.822  0.00  0.00    +0.000 A 
ATOM     12  C   UNL     1      10.036  10.850  17.882  0.00  0.00    +0.000 A 
ATOM     13  C   UNL     1      10.773  11.963  18.286  0.00  0.00    +0.000 A 
ATOM     14  F   UNL     1      11.473  12.650  17.374  0.00  0.00    +0.000 F 
ATOM     15  C   UNL     1      10.798  12.365  19.611  0.00  0.00    +0.000 A 
ATOM     16  C   UNL     1      10.060  11.644  20.536  0.00  0.00    +0.000 A 
ATOM     17  F   UNL     1      10.071  12.016  21.823  0.00  0.00    +0.000 F 
ATOM     18  C   UNL     1       9.312  10.531  20.159  0.00  0.00    +0.000 A 
ENDBRANCH   6  11
BRANCH   2  19
ATOM     19  C   UNL     1       5.628   4.927  18.064  0.00  0.00    +0.000 C 
BRANCH  19  20
ATOM     20  C   UNL     1       4.340   5.215  18.821  0.00  0.00    +0.000 A 
ATOM     21  C   UNL     1       3.713   6.461  18.637  0.00  0.00    +0.000 A 
ATOM     22  C   UNL     1       2.554   6.794  19.330  0.00  0.00    +0.000 A 
ATOM     23  C   UNL     1       2.007   5.892  20.236  0.00  0.00    +0.000 A 
ATOM     24  C   UNL     1       2.614   4.648  20.458  0.00  0.00    +0.000 A 
ATOM     25  C   UNL     1       2.076   3.735  21.371  0.00  0.00    +0.000 A 
ATOM     26  N   UNL     1       2.589   2.517  21.644  0.00  0.00    +0.000 NA
ATOM     27  C   UNL     1       3.713   2.189  20.981  0.00  0.00    +0.000 A 
ATOM     28  C   UNL     1       4.336   3.019  20.060  0.00  0.00    +0.000 A 
ATOM     29  C   UNL     1       3.792   4.289  19.764  0.00  0.00    +0.000 A 
ENDBRANCH  19  20
ENDBRANCH   2  19
TORSDOF 3
ENDMDL
MODEL 2
REMARK VINA RESULT:      -9.3      1.225      1.955
REMARK  Name = 
REMARK  3 active torsions:
REMARK  status: ('A' for Active; 'I' for Inactive)
REMARK    1  A    between atoms: C_2  and  C_3
REMARK    2  A    between atoms: C_3  and  C_4
REMARK    3  A    between atoms: C_17  and  C_18
REMARK                            x       y       z     vdW  Elec       q    Type
REMARK                         _______ _______ _______ _____ _____    ______ ____
ROOT
ATOM      1  O   UNL     1       5.021   5.421  15.749  0.00  0.00    +0.000 OA
ATOM      2  C   UNL     1       5.693   5.806  16.713  0.00  0.00    +0.000 C 
ATOM      3  N   UNL     1       6.335   7.005  16.608  0.00  0.00    +0.000 N 
ATOM      4  C   UNL     1       7.238   7.567  17.476  0.00  0.00    +0.000 A 
ATOM      5  C   UNL     1       7.687   8.903  17.405  0.00  0.00    +0.000 A 
ATOM      6  C   UNL     1       8.589   9.058  18.442  0.00  0.00    +0.000 A 
ATOM      7  N   UNL     1       8.653   7.820  19.025  0.00  0.00    +0.000 N 
ATOM      8  N   UNL     1       7.816   6.928  18.488  0.00  0.00    +0.000 NA
ATOM      9  H   UNL     1       6.132   7.514  15.760  0.00  0.00    +0.000 HD
ATOM     10  H   UNL     1       9.221   7.525  19.812  0.00  0.00    +0.000 HD
ENDROOT
BRANCH   6  11
ATOM     11  C   UNL     1       9.343  10.215  18.897  0.00  0.00    +0.000 A 
ATOM     12  C   UNL     1      10.140  10.930  17.994  0.00  0.00    +0.000 A 
ATOM     13  C   UNL     1      10.889  12.019  18.435  0.00  0.00    +0.000 A 
ATOM     14  F   UNL     1      11.649  12.687  17.559  0.00  0.00    +0.000 F 
ATOM     15  C   UNL     1      10.866  12.417  19.762  0.00  0.00    +0.000 A 
ATOM     16  C   UNL     1      10.067  11.716  20.650  0.00  0.00    +0.000 A 
ATOM     17  F   UNL     1      10.030  12.084  21.938  0.00  0.00    +0.000 F 
ATOM     18  C   UNL     1       9.304  10.626  20.235  0.00  0.00    +0.000 A 
ENDBRANCH   6  11
BRANCH   2  19
ATOM     19  C   UNL     1       5.725   5.006  18.009  0.00  0.00    +0.000 C 
BRANCH  19  20
ATOM     20  C   UNL     1       4.537   4.089  18.253  0.00  0.00    +0.000 A 
ATOM     21  C   UNL     1       4.529   2.818  17.648  0.00  0.00    +0.000 A 
ATOM     22  C   UNL     1       3.453   1.952  17.806  0.00  0.00    +0.000 A 
ATOM     23  C   UNL     1       2.352   2.345  18.559  0.00  0.00    +0.000 A 
ATOM     24  C   UNL     1       2.318   3.611  19.163  0.00  0.00    +0.000 A 
ATOM     25  C   UNL     1       1.214   4.020  19.917  0.00  0.00    +0.000 A 
ATOM     26  N   UNL     1       1.096   5.214  20.536  0.00  0.00    +0.000 NA
ATOM     27  C   UNL     1       2.131   6.060  20.384  0.00  0.00    +0.000 A 
ATOM     28  C   UNL     1       3.272   5.762  19.652  0.00  0.00    +0.000 A 
ATOM     29  C   UNL     1       3.401   4.507  19.016  0.00  0.00    +0.000 A 
ENDBRANCH  19  20
ENDBRANCH   2  19
TORSDOF 3
ENDMDL
MODEL 3
REMARK VINA RESULT:      -9.3      5.412      7.236
REMARK  Name = 
REMARK  3 active torsions:
REMARK  status: ('A' for Active; 'I' for Inactive)
REMARK    1  A    between atoms: C_2  and  C_3
REMARK    2  A    between atoms: C_3  and  C_4
REMARK    3  A    between atoms: C_17  and  C_18
REMARK                            x       y       z     vdW  Elec       q    Type
REMARK                         _______ _______ _______ _____ _____    ______ ____
ROOT
ATOM      1  O   UNL     1       1.403   4.574  20.345  0.00  0.00    +0.000 OA
ATOM      2  C   UNL     1       2.299   5.080  19.660  0.00  0.00    +0.000 C 
ATOM      3  N   UNL     1       2.698   4.416  18.538  0.00  0.00    +0.000 N 
ATOM      4  C   UNL     1       3.755   4.703  17.708  0.00  0.00    +0.000 A 
ATOM      5  C   UNL     1       3.967   4.100  16.450  0.00  0.00    +0.000 A 
ATOM      6  C   UNL     1       5.134   4.652  15.955  0.00  0.00    +0.000 A 
ATOM      7  N   UNL     1       5.558   5.498  16.945  0.00  0.00    +0.000 N 
ATOM      8  N   UNL     1       4.720   5.575  17.982  0.00  0.00    +0.000 NA
ATOM      9  H   UNL     1       2.156   3.591  18.326  0.00  0.00    +0.000 HD
ATOM     10  H   UNL     1       6.391   6.076  16.964  0.00  0.00    +0.000 HD
ENDROOT
BRANCH   6  11
ATOM     11  C   UNL     1       5.831   4.458  14.693  0.00  0.00    +0.000 A 
ATOM     12  C   UNL     1       7.005   5.174  14.426  0.00  0.00    +0.000 A 
ATOM     13  C   UNL     1       7.656   5.016  13.204  0.00  0.00    +0.000 A 
ATOM     14  F   UNL     1       8.775   5.711  12.964  0.00  0.00    +0.000 F 
ATOM     15  C   UNL     1       7.165   4.157  12.234  0.00  0.00    +0.000 A 
ATOM     16  C   UNL     1       6.010   3.441  12.506  0.00  0.00    +0.000 A 
ATOM     17  F   UNL     1       5.517   2.607  11.581  0.00  0.00    +0.000 F 
ATOM     18  C   UNL     1       5.341   3.577  13.721  0.00  0.00    +0.000 A 
ENDBRANCH   6  11
BRANCH   2  19
ATOM     19  C   UNL     1       2.872   6.447  20.013  0.00  0.00    +0.000 C 
BRANCH  19  20
ATOM     20  C   UNL     1       2.098   7.647  19.490  0.00  0.00    +0.000 A 
ATOM     21  C   UNL     1       2.150   7.937  18.113  0.00  0.00    +0.000 A 
ATOM     22  C   UNL     1       1.492   9.042  17.584  0.00  0.00    +0.000 A 
ATOM     23  C   UNL     1       0.781   9.892  18.424  0.00  0.00    +0.000 A 
ATOM     24  C   UNL     1       0.722   9.644  19.804  0.00  0.00    +0.000 A 
ATOM     25  C   UNL     1       0.016  10.496  20.659  0.00  0.00    +0.000 A 
ATOM     26  N   UNL     1      -0.098  10.334  21.995  0.00  0.00    +0.000 NA
ATOM     27  C   UNL     1       0.540   9.269  22.515  0.00  0.00    +0.000 A 
ATOM     28  C   UNL     1       1.275   8.365  21.762  0.00  0.00    +0.000 A 
ATOM     29  C   UNL     1       1.383   8.526  20.363  0.00  0.00    +0.000 A 
ENDBRANCH  19  20
ENDBRANCH   2  19
TORSDOF 3
ENDMDL
MODEL 4
REMARK VINA RESULT:      -9.2      5.397      7.213
REMARK  Name = 
REMARK  3 active torsions:
REMARK  status: ('A' for Active; 'I' for Inactive)
REMARK    1  A    between atoms: C_2  and  C_3
REMARK    2  A    between atoms: C_3  and  C_4
REMARK    3  A    between atoms: C_17  and  C_18
REMARK                            x       y       z     vdW  Elec       q    Type
REMARK                         _______ _______ _______ _____ _____    ______ ____
ROOT
ATOM      1  O   UNL     1       1.299   4.569  20.223  0.00  0.00    +0.000 OA
ATOM      2  C   UNL     1       2.220   5.080  19.575  0.00  0.00    +0.000 C 
ATOM      3  N   UNL     1       2.633   4.446  18.441  0.00  0.00    +0.000 N 
ATOM      4  C   UNL     1       3.714   4.740  17.646  0.00  0.00    +0.000 A 
ATOM      5  C   UNL     1       3.944   4.176  16.373  0.00  0.00    +0.000 A 
ATOM      6  C   UNL     1       5.132   4.721  15.923  0.00  0.00    +0.000 A 
ATOM      7  N   UNL     1       5.548   5.526  16.951  0.00  0.00    +0.000 N 
ATOM      8  N   UNL     1       4.688   5.584  17.971  0.00  0.00    +0.000 NA
ATOM      9  H   UNL     1       2.081   3.639  18.189  0.00  0.00    +0.000 HD
ATOM     10  H   UNL     1       6.391   6.087  17.008  0.00  0.00    +0.000 HD
ENDROOT
BRANCH   6  11
ATOM     11  C   UNL     1       5.855   4.556  14.672  0.00  0.00    +0.000 A 
ATOM     12  C   UNL     1       5.377   3.667  13.702  0.00  0.00    +0.000 A 
ATOM     13  C   UNL     1       6.084   3.481  12.516  0.00  0.00    +0.000 A 
ATOM     14  F   UNL     1       5.615   2.623  11.601  0.00  0.00    +0.000 F 
ATOM     15  C   UNL     1       7.265   4.162  12.270  0.00  0.00    +0.000 A 
ATOM     16  C   UNL     1       7.729   5.050  13.227  0.00  0.00    +0.000 A 
ATOM     17  F   UNL     1       8.870   5.719  13.009  0.00  0.00    +0.000 F 
ATOM     18  C   UNL     1       7.039   5.259  14.419  0.00  0.00    +0.000 A 
ENDBRANCH   6  11
BRANCH   2  19
ATOM     19  C   UNL     1       2.810   6.423  19.987  0.00  0.00    +0.000 C 
BRANCH  19  20
ATOM     20  C   UNL     1       2.079   7.654  19.476  0.00  0.00    +0.000 A 
ATOM     21  C   UNL     1       2.182   7.984  18.112  0.00  0.00    +0.000 A 
ATOM     22  C   UNL     1       1.565   9.119  17.596  0.00  0.00    +0.000 A 
ATOM     23  C   UNL     1       0.844   9.958  18.437  0.00  0.00    +0.000 A 
ATOM     24  C   UNL     1       0.733   9.670  19.806  0.00  0.00    +0.000 A 
ATOM     25  C   UNL     1       0.016  10.510  20.663  0.00  0.00    +0.000 A 
ATOM     26  N   UNL     1      -0.148  10.310  21.988  0.00  0.00    +0.000 NA
ATOM     27  C   UNL     1       0.451   9.217  22.496  0.00  0.00    +0.000 A 
ATOM     28  C   UNL     1       1.193   8.320  21.741  0.00  0.00    +0.000 A 
ATOM     29  C   UNL     1       1.352   8.522  20.351  0.00  0.00    +0.000 A 
ENDBRANCH  19  20
ENDBRANCH   2  19
TORSDOF 3
ENDMDL
MODEL 5
REMARK VINA RESULT:      -9.1      1.173      2.518
REMARK  Name = 
REMARK  3 active torsions:
REMARK  status: ('A' for Active; 'I' for Inactive)
REMARK    1  A    between atoms: C_2  and  C_3
REMARK    2  A    between atoms: C_3  and  C_4
REMARK    3  A    between atoms: C_17  and  C_18
REMARK                            x       y       z     vdW  Elec       q    Type
REMARK                         _______ _______ _______ _____ _____    ______ ____
ROOT
ATOM      1  O   UNL     1       5.171   5.212  15.836  0.00  0.00    +0.000 OA
ATOM      2  C   UNL     1       5.813   5.650  16.799  0.00  0.00    +0.000 C 
ATOM      3  N   UNL     1       6.431   6.857  16.659  0.00  0.00    +0.000 N 
ATOM      4  C   UNL     1       7.303   7.473  17.524  0.00  0.00    +0.000 A 
ATOM      5  C   UNL     1       7.724   8.815  17.410  0.00  0.00    +0.000 A 
ATOM      6  C   UNL     1       8.600   9.030  18.458  0.00  0.00    +0.000 A 
ATOM      7  N   UNL     1       8.678   7.818  19.091  0.00  0.00    +0.000 N 
ATOM      8  N   UNL     1       7.872   6.887  18.572  0.00  0.00    +0.000 NA
ATOM      9  H   UNL     1       6.235   7.328  15.788  0.00  0.00    +0.000 HD
ATOM     10  H   UNL     1       9.235   7.566  19.900  0.00  0.00    +0.000 HD
ENDROOT
BRANCH   6  11
ATOM     11  C   UNL     1       9.318  10.221  18.884  0.00  0.00    +0.000 A 
ATOM     12  C   UNL     1       9.312  10.595  20.233  0.00  0.00    +0.000 A 
ATOM     13  C   UNL     1       9.970  11.754  20.639  0.00  0.00    +0.000 A 
ATOM     14  F   UNL     1       9.950  12.099  21.933  0.00  0.00    +0.000 F 
ATOM     15  C   UNL     1      10.638  12.557  19.729  0.00  0.00    +0.000 A 
ATOM     16  C   UNL     1      10.653  12.177  18.397  0.00  0.00    +0.000 A 
ATOM     17  F   UNL     1      11.293  12.939  17.500  0.00  0.00    +0.000 F 
ATOM     18  C   UNL     1      10.007  11.021  17.964  0.00  0.00    +0.000 A 
ENDBRANCH   6  11
BRANCH   2  19
ATOM     19  C   UNL     1       5.834   4.901  18.126  0.00  0.00    +0.000 C 
BRANCH  19  20
ATOM     20  C   UNL     1       4.632   4.014  18.407  0.00  0.00    +0.000 A 
ATOM     21  C   UNL     1       4.624   2.703  17.894  0.00  0.00    +0.000 A 
ATOM     22  C   UNL     1       3.536   1.860  18.088  0.00  0.00    +0.000 A 
ATOM     23  C   UNL     1       2.423   2.315  18.786  0.00  0.00    +0.000 A 
ATOM     24  C   UNL     1       2.388   3.621  19.297  0.00  0.00    +0.000 A 
ATOM     25  C   UNL     1       1.271   4.092  19.995  0.00  0.00    +0.000 A 
ATOM     26  N   UNL     1       1.152   5.329  20.524  0.00  0.00    +0.000 NA
ATOM     27  C   UNL     1       2.199   6.153  20.336  0.00  0.00    +0.000 A 
ATOM     28  C   UNL     1       3.352   5.794  19.653  0.00  0.00    +0.000 A 
ATOM     29  C   UNL     1       3.483   4.495  19.112  0.00  0.00    +0.000 A 
ENDBRANCH  19  20
ENDBRANCH   2  19
TORSDOF 3
ENDMDL
MODEL 6
REMARK VINA RESULT:      -9.1      0.741      1.718
REMARK  Name = 
REMARK  3 active torsions:
REMARK  status: ('A' for Active; 'I' for Inactive)
REMARK    1  A    between atoms: C_2  and  C_3
REMARK    2  A    between atoms: C_3  and  C_4
REMARK    3  A    between atoms: C_17  and  C_18
REMARK                            x       y       z     vdW  Elec       q    Type
REMARK                         _______ _______ _______ _____ _____    ______ ____
ROOT
ATOM      1  O   UNL     1       6.315   4.860  15.488  0.00  0.00    +0.000 OA
ATOM      2  C   UNL     1       6.621   5.456  16.528  0.00  0.00    +0.000 C 
ATOM      3  N   UNL     1       7.231   6.671  16.413  0.00  0.00    +0.000 N 
ATOM      4  C   UNL     1       7.782   7.444  17.405  0.00  0.00    +0.000 A 
ATOM      5  C   UNL     1       8.196   8.782  17.235  0.00  0.00    +0.000 A 
ATOM      6  C   UNL     1       8.701   9.183  18.458  0.00  0.00    +0.000 A 
ATOM      7  N   UNL     1       8.600   8.071  19.250  0.00  0.00    +0.000 N 
ATOM      8  N   UNL     1       8.010   7.034  18.648  0.00  0.00    +0.000 NA
ATOM      9  H   UNL     1       7.306   7.012  15.466  0.00  0.00    +0.000 HD
ATOM     10  H   UNL     1       8.884   7.960  20.218  0.00  0.00    +0.000 HD
ENDROOT
BRANCH   6  11
ATOM     11  C   UNL     1       9.232  10.460  18.909  0.00  0.00    +0.000 A 
ATOM     12  C   UNL     1       9.374  10.714  20.279  0.00  0.00    +0.000 A 
ATOM     13  C   UNL     1       9.851  11.949  20.715  0.00  0.00    +0.000 A 
ATOM     14  F   UNL     1       9.976  12.175  22.028  0.00  0.00    +0.000 F 
ATOM     15  C   UNL     1      10.191  12.945  19.815  0.00  0.00    +0.000 A 
ATOM     16  C   UNL     1      10.061  12.687  18.459  0.00  0.00    +0.000 A 
ATOM     17  F   UNL     1      10.384  13.637  17.573  0.00  0.00    +0.000 F 
ATOM     18  C   UNL     1       9.592  11.460  17.996  0.00  0.00    +0.000 A 
ENDBRANCH   6  11
BRANCH   2  19
ATOM     19  C   UNL     1       6.244   4.889  17.890  0.00  0.00    +0.000 C 
BRANCH  19  20
ATOM     20  C   UNL     1       4.829   5.183  18.363  0.00  0.00    +0.000 A 
ATOM     21  C   UNL     1       4.227   6.397  17.983  0.00  0.00    +0.000 A 
ATOM     22  C   UNL     1       2.949   6.735  18.416  0.00  0.00    +0.000 A 
ATOM     23  C   UNL     1       2.252   5.873  19.254  0.00  0.00    +0.000 A 
ATOM     24  C   UNL     1       2.826   4.662  19.668  0.00  0.00    +0.000 A 
ATOM     25  C   UNL     1       2.137   3.789  20.516  0.00  0.00    +0.000 A 
ATOM     26  N   UNL     1       2.607   2.604  20.960  0.00  0.00    +0.000 NA
ATOM     27  C   UNL     1       3.845   2.272  20.549  0.00  0.00    +0.000 A 
ATOM     28  C   UNL     1       4.622   3.064  19.715  0.00  0.00    +0.000 A 
ATOM     29  C   UNL     1       4.123   4.298  19.239  0.00  0.00    +0.000 A 
ENDBRANCH  19  20
ENDBRANCH   2  19
TORSDOF 3
ENDMDL
MODEL 7
REMARK VINA RESULT:      -8.9      1.459      1.462
REMARK  Name = 
REMARK  3 active torsions:
REMARK  status: ('A' for Active; 'I' for Inactive)
REMARK    1  A    between atoms: C_2  and  C_3
REMARK    2  A    between atoms: C_3  and  C_4
REMARK    3  A    between atoms: C_17  and  C_18
REMARK                            x       y       z     vdW  Elec       q    Type
REMARK                         _______ _______ _______ _____ _____    ______ ____
ROOT
ATOM      1  O   UNL     1       6.493   4.235  15.382  0.00  0.00    +0.000 OA
ATOM      2  C   UNL     1       6.648   4.929  16.394  0.00  0.00    +0.000 C 
ATOM      3  N   UNL     1       7.281   6.129  16.256  0.00  0.00    +0.000 N 
ATOM      4  C   UNL     1       7.687   6.996  17.241  0.00  0.00    +0.000 A 
ATOM      5  C   UNL     1       8.135   8.314  17.007  0.00  0.00    +0.000 A 
ATOM      6  C   UNL     1       8.458   8.832  18.248  0.00  0.00    +0.000 A 
ATOM      7  N   UNL     1       8.229   7.800  19.119  0.00  0.00    +0.000 N 
ATOM      8  N   UNL     1       7.724   6.708  18.537  0.00  0.00    +0.000 NA
ATOM      9  H   UNL     1       7.500   6.378  15.303  0.00  0.00    +0.000 HD
ATOM     10  H   UNL     1       8.365   7.783  20.124  0.00  0.00    +0.000 HD
ENDROOT
BRANCH   6  11
ATOM     11  C   UNL     1       8.930  10.148  18.649  0.00  0.00    +0.000 A 
ATOM     12  C   UNL     1       8.735  11.247  17.802  0.00  0.00    +0.000 A 
ATOM     13  C   UNL     1       9.216  12.503  18.167  0.00  0.00    +0.000 A 
ATOM     14  F   UNL     1       9.026  13.541  17.344  0.00  0.00    +0.000 F 
ATOM     15  C   UNL     1       9.892  12.694  19.362  0.00  0.00    +0.000 A 
ATOM     16  C   UNL     1      10.071  11.607  20.203  0.00  0.00    +0.000 A 
ATOM     17  F   UNL     1      10.722  11.770  21.362  0.00  0.00    +0.000 F 
ATOM     18  C   UNL     1       9.597  10.342  19.864  0.00  0.00    +0.000 A 
ENDBRANCH   6  11
BRANCH   2  19
ATOM     19  C   UNL     1       6.067   4.493  17.733  0.00  0.00    +0.000 C 
BRANCH  19  20
ATOM     20  C   UNL     1       4.614   4.870  17.981  0.00  0.00    +0.000 A 
ATOM     21  C   UNL     1       4.256   6.230  17.962  0.00  0.00    +0.000 A 
ATOM     22  C   UNL     1       2.950   6.635  18.218  0.00  0.00    +0.000 A 
ATOM     23  C   UNL     1       1.977   5.688  18.515  0.00  0.00    +0.000 A 
ATOM     24  C   UNL     1       2.301   4.324  18.559  0.00  0.00    +0.000 A 
ATOM     25  C   UNL     1       1.333   3.362  18.864  0.00  0.00    +0.000 A 
ATOM     26  N   UNL     1       1.552   2.031  18.924  0.00  0.00    +0.000 NA
ATOM     27  C   UNL     1       2.814   1.632  18.683  0.00  0.00    +0.000 A 
ATOM     28  C   UNL     1       3.855   2.498  18.380  0.00  0.00    +0.000 A 
ATOM     29  C   UNL     1       3.622   3.890  18.302  0.00  0.00    +0.000 A 
ENDBRANCH  19  20
ENDBRANCH   2  19
TORSDOF 3
ENDMDL
MODEL 8
REMARK VINA RESULT:      -8.7      6.661      9.118
REMARK  Name = 
REMARK  3 active torsions:
REMARK  status: ('A' for Active; 'I' for Inactive)
REMARK    1  A    between atoms: C_2  and  C_3
REMARK    2  A    between atoms: C_3  and  C_4
REMARK    3  A    between atoms: C_17  and  C_18
REMARK                            x       y       z     vdW  Elec       q    Type
REMARK                         _______ _______ _______ _____ _____    ______ ____
ROOT
ATOM      1  O   UNL     1      -0.435  10.829  21.740  0.00  0.00    +0.000 OA
ATOM      2  C   UNL     1       0.056  10.490  20.657  0.00  0.00    +0.000 C 
ATOM      3  N   UNL     1       0.755   9.319  20.611  0.00  0.00    +0.000 N 
ATOM      4  C   UNL     1       1.499   8.812  19.573  0.00  0.00    +0.000 A 
ATOM      5  C   UNL     1       2.008   7.497  19.526  0.00  0.00    +0.000 A 
ATOM      6  C   UNL     1       2.702   7.399  18.334  0.00  0.00    +0.000 A 
ATOM      7  N   UNL     1       2.603   8.647  17.779  0.00  0.00    +0.000 N 
ATOM      8  N   UNL     1       1.848   9.492  18.486  0.00  0.00    +0.000 NA
ATOM      9  H   UNL     1       0.738   8.789  21.469  0.00  0.00    +0.000 HD
ATOM     10  H   UNL     1       2.999   8.980  16.907  0.00  0.00    +0.000 HD
ENDROOT
BRANCH   6  11
ATOM     11  C   UNL     1       3.402   6.284  17.717  0.00  0.00    +0.000 A 
ATOM     12  C   UNL     1       4.571   6.514  16.980  0.00  0.00    +0.000 A 
ATOM     13  C   UNL     1       5.225   5.452  16.359  0.00  0.00    +0.000 A 
ATOM     14  F   UNL     1       6.339   5.691  15.655  0.00  0.00    +0.000 F 
ATOM     15  C   UNL     1       4.741   4.157  16.451  0.00  0.00    +0.000 A 
ATOM     16  C   UNL     1       3.591   3.931  17.191  0.00  0.00    +0.000 A 
ATOM     17  F   UNL     1       3.106   2.687  17.292  0.00  0.00    +0.000 F 
ATOM     18  C   UNL     1       2.920   4.974  17.826  0.00  0.00    +0.000 A 
ENDBRANCH   6  11
BRANCH   2  19
ATOM     19  C   UNL     1      -0.191  11.311  19.398  0.00  0.00    +0.000 C 
BRANCH  19  20
ATOM     20  C   UNL     1      -1.487  11.020  18.659  0.00  0.00    +0.000 A 
ATOM     21  C   UNL     1      -1.456  10.142  17.560  0.00  0.00    +0.000 A 
ATOM     22  C   UNL     1      -2.604   9.867  16.824  0.00  0.00    +0.000 A 
ATOM     23  C   UNL     1      -3.806  10.478  17.163  0.00  0.00    +0.000 A 
ATOM     24  C   UNL     1      -3.871  11.372  18.242  0.00  0.00    +0.000 A 
ATOM     25  C   UNL     1      -5.073  11.998  18.587  0.00  0.00    +0.000 A 
ATOM     26  N   UNL     1      -5.230  12.866  19.610  0.00  0.00    +0.000 NA
ATOM     27  C   UNL     1      -4.123  13.141  20.323  0.00  0.00    +0.000 A 
ATOM     28  C   UNL     1      -2.879  12.585  20.064  0.00  0.00    +0.000 A 
ATOM     29  C   UNL     1      -2.717  11.665  19.003  0.00  0.00    +0.000 A 
ENDBRANCH  19  20
ENDBRANCH   2  19
TORSDOF 3
ENDMDL
MODEL 9
REMARK VINA RESULT:      -8.6      6.689      9.312
REMARK  Name = 
REMARK  3 active torsions:
REMARK  status: ('A' for Active; 'I' for Inactive)
REMARK    1  A    between atoms: C_2  and  C_3
REMARK    2  A    between atoms: C_3  and  C_4
REMARK    3  A    between atoms: C_17  and  C_18
REMARK                            x       y       z     vdW  Elec       q    Type
REMARK                         _______ _______ _______ _____ _____    ______ ____
ROOT
ATOM      1  O   UNL     1       0.141  11.112  21.758  0.00  0.00    +0.000 OA
ATOM      2  C   UNL     1       0.474  10.636  20.666  0.00  0.00    +0.000 C 
ATOM      3  N   UNL     1       1.084   9.416  20.659  0.00  0.00    +0.000 N 
ATOM      4  C   UNL     1       1.662   8.759  19.600  0.00  0.00    +0.000 A 
ATOM      5  C   UNL     1       2.073   7.409  19.629  0.00  0.00    +0.000 A 
ATOM      6  C   UNL     1       2.610   7.148  18.382  0.00  0.00    +0.000 A 
ATOM      7  N   UNL     1       2.527   8.343  17.718  0.00  0.00    +0.000 N 
ATOM      8  N   UNL     1       1.920   9.306  18.417  0.00  0.00    +0.000 NA
ATOM      9  H   UNL     1       1.136   8.970  21.563  0.00  0.00    +0.000 HD
ATOM     10  H   UNL     1       2.835   8.562  16.777  0.00  0.00    +0.000 HD
ENDROOT
BRANCH   6  11
ATOM     11  C   UNL     1       3.155   5.929  17.804  0.00  0.00    +0.000 A 
ATOM     12  C   UNL     1       2.411   4.743  17.847  0.00  0.00    +0.000 A 
ATOM     13  C   UNL     1       2.944   3.566  17.326  0.00  0.00    +0.000 A 
ATOM     14  F   UNL     1       2.222   2.440  17.379  0.00  0.00    +0.000 F 
ATOM     15  C   UNL     1       4.208   3.539  16.758  0.00  0.00    +0.000 A 
ATOM     16  C   UNL     1       4.936   4.718  16.706  0.00  0.00    +0.000 A 
ATOM     17  F   UNL     1       6.160   4.713  16.162  0.00  0.00    +0.000 F 
ATOM     18  C   UNL     1       4.425   5.909  17.216  0.00  0.00    +0.000 A 
ENDBRANCH   6  11
BRANCH   2  19
ATOM     19  C   UNL     1       0.131  11.354  19.367  0.00  0.00    +0.000 C 
BRANCH  19  20
ATOM     20  C   UNL     1      -1.248  11.068  18.795  0.00  0.00    +0.000 A 
ATOM     21  C   UNL     1      -1.370  10.112  17.768  0.00  0.00    +0.000 A 
ATOM     22  C   UNL     1      -2.600   9.836  17.182  0.00  0.00    +0.000 A 
ATOM     23  C   UNL     1      -3.735  10.523  17.599  0.00  0.00    +0.000 A 
ATOM     24  C   UNL     1      -3.649  11.494  18.608  0.00  0.00    +0.000 A 
ATOM     25  C   UNL     1      -4.783  12.196  19.031  0.00  0.00    +0.000 A 
ATOM     26  N   UNL     1      -4.796  13.141  19.994  0.00  0.00    +0.000 NA
ATOM     27  C   UNL     1      -3.608  13.417  20.563  0.00  0.00    +0.000 A 
ATOM     28  C   UNL     1      -2.420  12.789  20.216  0.00  0.00    +0.000 A 
ATOM     29  C   UNL     1      -2.409  11.790  19.217  0.00  0.00    +0.000 A 
ENDBRANCH  19  20
ENDBRANCH   2  19
TORSDOF 3
ENDMDL
