MODEL 1
REMARK VINA RESULT:      -9.0      0.000      0.000
REMARK  Name = 
REMARK  4 active torsions:
REMARK  status: ('A' for Active; 'I' for Inactive)
REMARK    1  A    between atoms: C_6  and  C_7
REMARK    2  A    between atoms: C_7  and  N_8
REMARK    3  A    between atoms: C_9  and  C_11
REMARK    4  A    between atoms: C_12  and  C_13
REMARK                            x       y       z     vdW  Elec       q    Type
REMARK                         _______ _______ _______ _____ _____    ______ ____
ROOT
ATOM      1  N   UNL     1       4.056   5.650  17.367  0.00  0.00    +0.000 N 
ATOM      2  C   UNL     1       4.653   4.554  16.785  0.00  0.00    +0.000 C 
ATOM      3  O   UNL     1       4.242   3.413  16.966  0.00  0.00    +0.000 OA
ATOM      4  H   UNL     1       4.268   6.570  17.008  0.00  0.00    +0.000 HD
ENDROOT
BRANCH   2   5
ATOM      5  C   UNL     1       5.780   4.825  15.926  0.00  0.00    +0.000 A 
ATOM      6  C   UNL     1       6.891   5.614  16.233  0.00  0.00    +0.000 A 
ATOM      7  N   UNL     1       7.744   5.696  15.150  0.00  0.00    +0.000 NA
ATOM      8  C   UNL     1       7.178   5.001  14.195  0.00  0.00    +0.000 A 
ATOM      9  C   UNL     1       7.598   4.764  12.856  0.00  0.00    +0.000 A 
ATOM     10  C   UNL     1       6.834   4.021  12.034  0.00  0.00    +0.000 A 
ATOM     11  C   UNL     1       5.571   3.461  12.482  0.00  0.00    +0.000 A 
ATOM     12  C   UNL     1       5.160   3.697  13.739  0.00  0.00    +0.000 A 
ATOM     13  N   UNL     1       5.966   4.448  14.605  0.00  0.00    +0.000 N 
BRANCH   6  14
ATOM     14  C   UNL     1       7.206   6.302  17.529  0.00  0.00    +0.000 C 
ATOM     15  F   UNL     1       8.012   5.525  18.306  0.00  0.00    +0.000 F 
ATOM     16  F   UNL     1       7.894   7.465  17.333  0.00  0.00    +0.000 F 
ENDBRANCH   6  14
ENDBRANCH   2   5
BRANCH   1  17
ATOM     17  C   UNL     1       2.923   5.543  18.263  0.00  0.00    +0.000 C 
BRANCH  17  23
ATOM     18  O   UNL     1       0.128  11.042  22.256  0.00  0.00    +0.000 OA
ATOM     19  C   UNL     1       0.601  10.241  21.471  0.00  0.00    +0.000 C 
ATOM     20  C   UNL     1       1.100   8.826  21.793  0.00  0.00    +0.000 C 
ATOM     21  C   UNL     1       1.560   8.337  20.449  0.00  0.00    +0.000 A 
ATOM     22  C   UNL     1       2.095   7.112  20.081  0.00  0.00    +0.000 A 
ATOM     23  C   UNL     1       2.425   6.897  18.728  0.00  0.00    +0.000 A 
ATOM     24  C   UNL     1       2.207   7.937  17.788  0.00  0.00    +0.000 A 
ATOM     25  C   UNL     1       1.664   9.170  18.173  0.00  0.00    +0.000 A 
ATOM     26  C   UNL     1       1.350   9.336  19.503  0.00  0.00    +0.000 A 
ATOM     27  N   UNL     1       0.787  10.449  20.110  0.00  0.00    +0.000 N 
ATOM     28  H   UNL     1       0.524  11.307  19.649  0.00  0.00    +0.000 HD
ENDBRANCH  17  23
ENDBRANCH   1  17
TORSDOF 4
ENDMDL
MODEL 2
REMARK VINA RESULT:      -8.4      3.258      3.904
REMARK  Name = 
REMARK  4 active torsions:
REMARK  status: ('A' for Active; 'I' for Inactive)
REMARK    1  A    between atoms: C_6  and  C_7
REMARK    2  A    between atoms: C_7  and  N_8
REMARK    3  A    between atoms: C_9  and  C_11
REMARK    4  A    between atoms: C_12  and  C_13
REMARK                            x       y       z     vdW  Elec       q    Type
REMARK                         _______ _______ _______ _____ _____    ______ ____
ROOT
ATOM      1  N   UNL     1       3.026   7.354  18.193  0.00  0.00    +0.000 N 
ATOM      2  C   UNL     1       3.984   6.583  17.574  0.00  0.00    +0.000 C 
ATOM      3  O   UNL     1       4.527   6.928  16.529  0.00  0.00    +0.000 OA
ATOM      4  H   UNL     1       2.784   7.157  19.153  0.00  0.00    +0.000 HD
ENDROOT
BRANCH   2   5
ATOM      5  C   UNL     1       4.333   5.350  18.238  0.00  0.00    +0.000 A 
ATOM      6  C   UNL     1       5.576   5.021  18.785  0.00  0.00    +0.000 A 
ATOM      7  N   UNL     1       5.561   3.735  19.289  0.00  0.00    +0.000 NA
ATOM      8  C   UNL     1       4.360   3.270  19.047  0.00  0.00    +0.000 A 
ATOM      9  C   UNL     1       3.795   1.994  19.323  0.00  0.00    +0.000 A 
ATOM     10  C   UNL     1       2.525   1.729  18.963  0.00  0.00    +0.000 A 
ATOM     11  C   UNL     1       1.715   2.722  18.279  0.00  0.00    +0.000 A 
ATOM     12  C   UNL     1       2.249   3.921  17.999  0.00  0.00    +0.000 A 
ATOM     13  N   UNL     1       3.561   4.209  18.396  0.00  0.00    +0.000 N 
BRANCH   6  14
ATOM     14  C   UNL     1       6.803   5.880  18.872  0.00  0.00    +0.000 C 
ATOM     15  F   UNL     1       7.517   5.590  19.996  0.00  0.00    +0.000 F 
ATOM     16  F   UNL     1       7.654   5.657  17.828  0.00  0.00    +0.000 F 
ENDBRANCH   6  14
ENDBRANCH   2   5
BRANCH   1  17
ATOM     17  C   UNL     1       2.558   8.612  17.646  0.00  0.00    +0.000 C 
BRANCH  17  23
ATOM     18  O   UNL     1      -1.437  10.642  23.470  0.00  0.00    +0.000 OA
ATOM     19  C   UNL     1      -0.797  10.460  22.450  0.00  0.00    +0.000 C 
ATOM     20  C   UNL     1       0.059   9.233  22.110  0.00  0.00    +0.000 C 
ATOM     21  C   UNL     1       0.589   9.581  20.749  0.00  0.00    +0.000 A 
ATOM     22  C   UNL     1       1.411   8.855  19.899  0.00  0.00    +0.000 A 
ATOM     23  C   UNL     1       1.743   9.408  18.646  0.00  0.00    +0.000 A 
ATOM     24  C   UNL     1       1.237  10.685  18.295  0.00  0.00    +0.000 A 
ATOM     25  C   UNL     1       0.406  11.406  19.162  0.00  0.00    +0.000 A 
ATOM     26  C   UNL     1       0.100  10.829  20.373  0.00  0.00    +0.000 A 
ATOM     27  N   UNL     1      -0.712  11.337  21.376  0.00  0.00    +0.000 N 
ATOM     28  H   UNL     1      -1.201  12.220  21.354  0.00  0.00    +0.000 HD
ENDBRANCH  17  23
ENDBRANCH   1  17
TORSDOF 4
ENDMDL
MODEL 3
REMARK VINA RESULT:      -8.4      3.505      9.059
REMARK  Name = 
REMARK  4 active torsions:
REMARK  status: ('A' for Active; 'I' for Inactive)
REMARK    1  A    between atoms: C_6  and  C_7
REMARK    2  A    between atoms: C_7  and  N_8
REMARK    3  A    between atoms: C_9  and  C_11
REMARK    4  A    between atoms: C_12  and  C_13
REMARK                            x       y       z     vdW  Elec       q    Type
REMARK                         _______ _______ _______ _____ _____    ______ ____
ROOT
ATOM      1  N   UNL     1       1.902   9.073  18.670  0.00  0.00    +0.000 N 
ATOM      2  C   UNL     1       0.729   9.790  18.756  0.00  0.00    +0.000 C 
ATOM      3  O   UNL     1      -0.198   9.623  17.970  0.00  0.00    +0.000 OA
ATOM      4  H   UNL     1       2.530   9.066  19.461  0.00  0.00    +0.000 HD
ENDROOT
BRANCH   2   5
ATOM      5  C   UNL     1       0.641  10.737  19.842  0.00  0.00    +0.000 A 
ATOM      6  C   UNL     1       0.424  10.440  21.190  0.00  0.00    +0.000 A 
ATOM      7  N   UNL     1       0.342  11.600  21.935  0.00  0.00    +0.000 NA
ATOM      8  C   UNL     1       0.481  12.585  21.082  0.00  0.00    +0.000 A 
ATOM      9  C   UNL     1       0.453  13.992  21.289  0.00  0.00    +0.000 A 
ATOM     10  C   UNL     1       0.603  14.828  20.244  0.00  0.00    +0.000 A 
ATOM     11  C   UNL     1       0.781  14.321  18.895  0.00  0.00    +0.000 A 
ATOM     12  C   UNL     1       0.789  12.994  18.692  0.00  0.00    +0.000 A 
ATOM     13  N   UNL     1       0.660  12.122  19.780  0.00  0.00    +0.000 N 
BRANCH   6  14
ATOM     14  C   UNL     1       0.300   9.090  21.831  0.00  0.00    +0.000 C 
ATOM     15  F   UNL     1      -0.701   8.369  21.251  0.00  0.00    +0.000 F 
ATOM     16  F   UNL     1       1.432   8.344  21.668  0.00  0.00    +0.000 F 
ENDBRANCH   6  14
ENDBRANCH   2   5
BRANCH   1  17
ATOM     17  C   UNL     1       2.149   8.095  17.631  0.00  0.00    +0.000 C 
BRANCH  17  23
ATOM     18  O   UNL     1       8.305   4.085  17.480  0.00  0.00    +0.000 OA
ATOM     19  C   UNL     1       7.255   4.678  17.652  0.00  0.00    +0.000 C 
ATOM     20  C   UNL     1       6.709   5.839  16.810  0.00  0.00    +0.000 C 
ATOM     21  C   UNL     1       5.407   6.144  17.494  0.00  0.00    +0.000 A 
ATOM     22  C   UNL     1       4.437   7.085  17.186  0.00  0.00    +0.000 A 
ATOM     23  C   UNL     1       3.278   7.148  17.986  0.00  0.00    +0.000 A 
ATOM     24  C   UNL     1       3.143   6.257  19.081  0.00  0.00    +0.000 A 
ATOM     25  C   UNL     1       4.130   5.309  19.379  0.00  0.00    +0.000 A 
ATOM     26  C   UNL     1       5.242   5.276  18.570  0.00  0.00    +0.000 A 
ATOM     27  N   UNL     1       6.329   4.420  18.655  0.00  0.00    +0.000 N 
ATOM     28  H   UNL     1       6.457   3.687  19.337  0.00  0.00    +0.000 HD
ENDBRANCH  17  23
ENDBRANCH   1  17
TORSDOF 4
ENDMDL
MODEL 4
REMARK VINA RESULT:      -8.4      3.466      4.479
REMARK  Name = 
REMARK  4 active torsions:
REMARK  status: ('A' for Active; 'I' for Inactive)
REMARK    1  A    between atoms: C_6  and  C_7
REMARK    2  A    between atoms: C_7  and  N_8
REMARK    3  A    between atoms: C_9  and  C_11
REMARK    4  A    between atoms: C_12  and  C_13
REMARK                            x       y       z     vdW  Elec       q    Type
REMARK                         _______ _______ _______ _____ _____    ______ ____
ROOT
ATOM      1  N   UNL     1       2.428   7.350  19.063  0.00  0.00    +0.000 N 
ATOM      2  C   UNL     1       3.359   6.775  18.226  0.00  0.00    +0.000 C 
ATOM      3  O   UNL     1       3.819   7.368  17.256  0.00  0.00    +0.000 OA
ATOM      4  H   UNL     1       2.260   6.932  19.967  0.00  0.00    +0.000 HD
ENDROOT
BRANCH   2   5
ATOM      5  C   UNL     1       3.783   5.439  18.569  0.00  0.00    +0.000 A 
ATOM      6  C   UNL     1       5.092   5.017  18.809  0.00  0.00    +0.000 A 
ATOM      7  N   UNL     1       5.128   3.658  19.054  0.00  0.00    +0.000 NA
ATOM      8  C   UNL     1       3.889   3.243  18.950  0.00  0.00    +0.000 A 
ATOM      9  C   UNL     1       3.343   1.935  19.076  0.00  0.00    +0.000 A 
ATOM     10  C   UNL     1       2.022   1.740  18.909  0.00  0.00    +0.000 A 
ATOM     11  C   UNL     1       1.134   2.842  18.586  0.00  0.00    +0.000 A 
ATOM     12  C   UNL     1       1.646   4.075  18.446  0.00  0.00    +0.000 A 
ATOM     13  N   UNL     1       3.016   4.286  18.646  0.00  0.00    +0.000 N 
BRANCH   6  14
ATOM     14  C   UNL     1       6.342   5.847  18.833  0.00  0.00    +0.000 C 
ATOM     15  F   UNL     1       7.105   5.541  19.921  0.00  0.00    +0.000 F 
ATOM     16  F   UNL     1       7.134   5.606  17.748  0.00  0.00    +0.000 F 
ENDBRANCH   6  14
ENDBRANCH   2   5
BRANCH   1  17
ATOM     17  C   UNL     1       1.894   8.679  18.848  0.00  0.00    +0.000 C 
BRANCH  17  23
ATOM     18  O   UNL     1      -2.498  12.611  23.234  0.00  0.00    +0.000 OA
ATOM     19  C   UNL     1      -1.756  11.855  22.634  0.00  0.00    +0.000 C 
ATOM     20  C   UNL     1      -1.413  11.899  21.140  0.00  0.00    +0.000 C 
ATOM     21  C   UNL     1      -0.470  10.739  20.994  0.00  0.00    +0.000 A 
ATOM     22  C   UNL     1       0.205  10.273  19.876  0.00  0.00    +0.000 A 
ATOM     23  C   UNL     1       1.063   9.164  20.019  0.00  0.00    +0.000 A 
ATOM     24  C   UNL     1       1.204   8.556  21.292  0.00  0.00    +0.000 A 
ATOM     25  C   UNL     1       0.518   9.038  22.414  0.00  0.00    +0.000 A 
ATOM     26  C   UNL     1      -0.305  10.127  22.233  0.00  0.00    +0.000 A 
ATOM     27  N   UNL     1      -1.061  10.788  23.190  0.00  0.00    +0.000 N 
ATOM     28  H   UNL     1      -1.113  10.556  24.170  0.00  0.00    +0.000 HD
ENDBRANCH  17  23
ENDBRANCH   1  17
TORSDOF 4
ENDMDL
MODEL 5
REMARK VINA RESULT:      -8.4      3.757      8.911
REMARK  Name = 
REMARK  4 active torsions:
REMARK  status: ('A' for Active; 'I' for Inactive)
REMARK    1  A    between atoms: C_6  and  C_7
REMARK    2  A    between atoms: C_7  and  N_8
REMARK    3  A    between atoms: C_9  and  C_11
REMARK    4  A    between atoms: C_12  and  C_13
REMARK                            x       y       z     vdW  Elec       q    Type
REMARK                         _______ _______ _______ _____ _____    ______ ____
ROOT
ATOM      1  N   UNL     1       1.905   8.811  18.847  0.00  0.00    +0.000 N 
ATOM      2  C   UNL     1       0.940   9.790  18.754  0.00  0.00    +0.000 C 
ATOM      3  O   UNL     1       0.040   9.743  17.921  0.00  0.00    +0.000 OA
ATOM      4  H   UNL     1       2.471   8.762  19.682  0.00  0.00    +0.000 HD
ENDROOT
BRANCH   2   5
ATOM      5  C   UNL     1       1.031  10.867  19.710  0.00  0.00    +0.000 A 
ATOM      6  C   UNL     1       0.498  10.883  21.000  0.00  0.00    +0.000 A 
ATOM      7  N   UNL     1       0.732  12.101  21.608  0.00  0.00    +0.000 NA
ATOM      8  C   UNL     1       1.370  12.826  20.723  0.00  0.00    +0.000 A 
ATOM      9  C   UNL     1       1.836  14.168  20.797  0.00  0.00    +0.000 A 
ATOM     10  C   UNL     1       2.461  14.721  19.741  0.00  0.00    +0.000 A 
ATOM     11  C   UNL     1       2.659  13.977  18.510  0.00  0.00    +0.000 A 
ATOM     12  C   UNL     1       2.203  12.717  18.427  0.00  0.00    +0.000 A 
ATOM     13  N   UNL     1       1.577  12.129  19.534  0.00  0.00    +0.000 N 
BRANCH   6  14
ATOM     14  C   UNL     1      -0.228   9.781  21.714  0.00  0.00    +0.000 C 
ATOM     15  F   UNL     1       0.640   8.807  22.108  0.00  0.00    +0.000 F 
ATOM     16  F   UNL     1      -0.828  10.224  22.857  0.00  0.00    +0.000 F 
ENDBRANCH   6  14
ENDBRANCH   2   5
BRANCH   1  17
ATOM     17  C   UNL     1       1.956   7.673  17.954  0.00  0.00    +0.000 C 
BRANCH  17  23
ATOM     18  O   UNL     1       8.364   4.136  17.299  0.00  0.00    +0.000 OA
ATOM     19  C   UNL     1       7.286   4.642  17.552  0.00  0.00    +0.000 C 
ATOM     20  C   UNL     1       6.614   5.796  16.796  0.00  0.00    +0.000 C 
ATOM     21  C   UNL     1       5.333   5.974  17.559  0.00  0.00    +0.000 A 
ATOM     22  C   UNL     1       4.283   6.854  17.346  0.00  0.00    +0.000 A 
ATOM     23  C   UNL     1       3.167   6.796  18.205  0.00  0.00    +0.000 A 
ATOM     24  C   UNL     1       3.154   5.850  19.261  0.00  0.00    +0.000 A 
ATOM     25  C   UNL     1       4.221   4.964  19.463  0.00  0.00    +0.000 A 
ATOM     26  C   UNL     1       5.287   5.049  18.598  0.00  0.00    +0.000 A 
ATOM     27  N   UNL     1       6.436   4.272  18.587  0.00  0.00    +0.000 N 
ATOM     28  H   UNL     1       6.651   3.521  19.225  0.00  0.00    +0.000 HD
ENDBRANCH  17  23
ENDBRANCH   1  17
TORSDOF 4
ENDMDL
MODEL 6
REMARK VINA RESULT:      -8.4      1.258      1.459
REMARK  Name = 
REMARK  4 active torsions:
REMARK  status: ('A' for Active; 'I' for Inactive)
REMARK    1  A    between atoms: C_6  and  C_7
REMARK    2  A    between atoms: C_7  and  N_8
REMARK    3  A    between atoms: C_9  and  C_11
REMARK    4  A    between atoms: C_12  and  C_13
REMARK                            x       y       z     vdW  Elec       q    Type
REMARK                         _______ _______ _______ _____ _____    ______ ____
ROOT
ATOM      1  N   UNL     1       3.969   5.909  18.693  0.00  0.00    +0.000 N 
ATOM      2  C   UNL     1       4.846   4.853  18.579  0.00  0.00    +0.000 C 
ATOM      3  O   UNL     1       4.739   3.838  19.260  0.00  0.00    +0.000 OA
ATOM      4  H   UNL     1       3.947   6.606  17.962  0.00  0.00    +0.000 HD
ENDROOT
BRANCH   2   5
ATOM      5  C   UNL     1       5.889   4.996  17.592  0.00  0.00    +0.000 A 
ATOM      6  C   UNL     1       7.132   5.606  17.776  0.00  0.00    +0.000 A 
ATOM      7  N   UNL     1       7.852   5.610  16.597  0.00  0.00    +0.000 NA
ATOM      8  C   UNL     1       7.079   5.041  15.704  0.00  0.00    +0.000 A 
ATOM      9  C   UNL     1       7.295   4.801  14.319  0.00  0.00    +0.000 A 
ATOM     10  C   UNL     1       6.338   4.207  13.582  0.00  0.00    +0.000 A 
ATOM     11  C   UNL     1       5.070   3.815  14.172  0.00  0.00    +0.000 A 
ATOM     12  C   UNL     1       4.853   4.056  15.475  0.00  0.00    +0.000 A 
ATOM     13  N   UNL     1       5.857   4.649  16.250  0.00  0.00    +0.000 N 
BRANCH   6  14
ATOM     14  C   UNL     1       7.697   6.190  19.037  0.00  0.00    +0.000 C 
ATOM     15  F   UNL     1       8.504   5.289  19.667  0.00  0.00    +0.000 F 
ATOM     16  F   UNL     1       8.485   7.276  18.787  0.00  0.00    +0.000 F 
ENDBRANCH   6  14
ENDBRANCH   2   5
BRANCH   1  17
ATOM     17  C   UNL     1       2.877   5.923  19.644  0.00  0.00    +0.000 C 
BRANCH  17  23
ATOM     18  O   UNL     1      -1.230  11.654  21.714  0.00  0.00    +0.000 OA
ATOM     19  C   UNL     1      -0.515  10.792  21.235  0.00  0.00    +0.000 C 
ATOM     20  C   UNL     1      -0.024   9.516  21.931  0.00  0.00    +0.000 C 
ATOM     21  C   UNL     1       0.805   8.867  20.859  0.00  0.00    +0.000 A 
ATOM     22  C   UNL     1       1.498   7.667  20.873  0.00  0.00    +0.000 A 
ATOM     23  C   UNL     1       2.185   7.270  19.708  0.00  0.00    +0.000 A 
ATOM     24  C   UNL     1       2.152   8.109  18.564  0.00  0.00    +0.000 A 
ATOM     25  C   UNL     1       1.445   9.318  18.564  0.00  0.00    +0.000 A 
ATOM     26  C   UNL     1       0.783   9.665  19.719  0.00  0.00    +0.000 A 
ATOM     27  N   UNL     1       0.007  10.792  19.947  0.00  0.00    +0.000 N 
ATOM     28  H   UNL     1      -0.183  11.527  19.283  0.00  0.00    +0.000 HD
ENDBRANCH  17  23
ENDBRANCH   1  17
TORSDOF 4
ENDMDL
MODEL 7
REMARK VINA RESULT:      -8.4      1.335      2.084
REMARK  Name = 
REMARK  4 active torsions:
REMARK  status: ('A' for Active; 'I' for Inactive)
REMARK    1  A    between atoms: C_6  and  C_7
REMARK    2  A    between atoms: C_7  and  N_8
REMARK    3  A    between atoms: C_9  and  C_11
REMARK    4  A    between atoms: C_12  and  C_13
REMARK                            x       y       z     vdW  Elec       q    Type
REMARK                         _______ _______ _______ _____ _____    ______ ____
ROOT
ATOM      1  N   UNL     1       3.801   4.001  16.536  0.00  0.00    +0.000 N 
ATOM      2  C   UNL     1       5.106   4.012  16.977  0.00  0.00    +0.000 C 
ATOM      3  O   UNL     1       5.429   3.560  18.071  0.00  0.00    +0.000 OA
ATOM      4  H   UNL     1       3.616   4.156  15.555  0.00  0.00    +0.000 HD
ENDROOT
BRANCH   2   5
ATOM      5  C   UNL     1       6.081   4.564  16.067  0.00  0.00    +0.000 A 
ATOM      6  C   UNL     1       7.012   5.565  16.351  0.00  0.00    +0.000 A 
ATOM      7  N   UNL     1       7.745   5.881  15.223  0.00  0.00    +0.000 NA
ATOM      8  C   UNL     1       7.275   5.121  14.266  0.00  0.00    +0.000 A 
ATOM      9  C   UNL     1       7.636   5.042  12.892  0.00  0.00    +0.000 A 
ATOM     10  C   UNL     1       6.994   4.185  12.077  0.00  0.00    +0.000 A 
ATOM     11  C   UNL     1       5.921   3.340  12.568  0.00  0.00    +0.000 A 
ATOM     12  C   UNL     1       5.562   3.424  13.860  0.00  0.00    +0.000 A 
ATOM     13  N   UNL     1       6.246   4.295  14.717  0.00  0.00    +0.000 N 
BRANCH   6  14
ATOM     14  C   UNL     1       7.264   6.248  17.663  0.00  0.00    +0.000 C 
ATOM     15  F   UNL     1       8.025   5.464  18.478  0.00  0.00    +0.000 F 
ATOM     16  F   UNL     1       7.966   7.407  17.506  0.00  0.00    +0.000 F 
ENDBRANCH   6  14
ENDBRANCH   2   5
BRANCH   1  17
ATOM     17  C   UNL     1       2.706   3.492  17.336  0.00  0.00    +0.000 C 
BRANCH  17  23
ATOM     18  O   UNL     1       1.378   9.576  21.236  0.00  0.00    +0.000 OA
ATOM     19  C   UNL     1       1.542   8.485  20.721  0.00  0.00    +0.000 C 
ATOM     20  C   UNL     1       1.901   8.206  19.256  0.00  0.00    +0.000 C 
ATOM     21  C   UNL     1       1.965   6.706  19.223  0.00  0.00    +0.000 A 
ATOM     22  C   UNL     1       2.270   5.849  18.177  0.00  0.00    +0.000 A 
ATOM     23  C   UNL     1       2.286   4.461  18.423  0.00  0.00    +0.000 A 
ATOM     24  C   UNL     1       1.985   3.984  19.724  0.00  0.00    +0.000 A 
ATOM     25  C   UNL     1       1.681   4.862  20.773  0.00  0.00    +0.000 A 
ATOM     26  C   UNL     1       1.683   6.209  20.492  0.00  0.00    +0.000 A 
ATOM     27  N   UNL     1       1.436   7.258  21.365  0.00  0.00    +0.000 N 
ATOM     28  H   UNL     1       1.217   7.176  22.346  0.00  0.00    +0.000 HD
ENDBRANCH  17  23
ENDBRANCH   1  17
TORSDOF 4
ENDMDL
MODEL 8
REMARK VINA RESULT:      -8.3      3.369      4.276
REMARK  Name = 
REMARK  4 active torsions:
REMARK  status: ('A' for Active; 'I' for Inactive)
REMARK    1  A    between atoms: C_6  and  C_7
REMARK    2  A    between atoms: C_7  and  N_8
REMARK    3  A    between atoms: C_9  and  C_11
REMARK    4  A    between atoms: C_12  and  C_13
REMARK                            x       y       z     vdW  Elec       q    Type
REMARK                         _______ _______ _______ _____ _____    ______ ____
ROOT
ATOM      1  N   UNL     1       2.911   7.353  18.244  0.00  0.00    +0.000 N 
ATOM      2  C   UNL     1       3.923   6.628  17.655  0.00  0.00    +0.000 C 
ATOM      3  O   UNL     1       4.523   7.029  16.663  0.00  0.00    +0.000 OA
ATOM      4  H   UNL     1       2.614   7.109  19.177  0.00  0.00    +0.000 HD
ENDROOT
BRANCH   2   5
ATOM      5  C   UNL     1       4.256   5.373  18.286  0.00  0.00    +0.000 A 
ATOM      6  C   UNL     1       5.503   5.000  18.792  0.00  0.00    +0.000 A 
ATOM      7  N   UNL     1       5.465   3.705  19.272  0.00  0.00    +0.000 NA
ATOM      8  C   UNL     1       4.246   3.278  19.055  0.00  0.00    +0.000 A 
ATOM      9  C   UNL     1       3.653   2.013  19.322  0.00  0.00    +0.000 A 
ATOM     10  C   UNL     1       2.367   1.790  18.993  0.00  0.00    +0.000 A 
ATOM     11  C   UNL     1       1.567   2.817  18.351  0.00  0.00    +0.000 A 
ATOM     12  C   UNL     1       2.127   4.007  18.078  0.00  0.00    +0.000 A 
ATOM     13  N   UNL     1       3.456   4.251  18.444  0.00  0.00    +0.000 N 
BRANCH   6  14
ATOM     14  C   UNL     1       6.756   5.823  18.861  0.00  0.00    +0.000 C 
ATOM     15  F   UNL     1       7.430   5.579  20.020  0.00  0.00    +0.000 F 
ATOM     16  F   UNL     1       7.625   5.510  17.856  0.00  0.00    +0.000 F 
ENDBRANCH   6  14
ENDBRANCH   2   5
BRANCH   1  17
ATOM     17  C   UNL     1       2.453   8.625  17.724  0.00  0.00    +0.000 C 
BRANCH  17  23
ATOM     18  O   UNL     1      -2.811  12.999  20.398  0.00  0.00    +0.000 OA
ATOM     19  C   UNL     1      -1.941  12.200  20.103  0.00  0.00    +0.000 C 
ATOM     20  C   UNL     1      -1.351  11.961  18.707  0.00  0.00    +0.000 C 
ATOM     21  C   UNL     1      -0.341  10.879  18.969  0.00  0.00    +0.000 A 
ATOM     22  C   UNL     1       0.537  10.250  18.101  0.00  0.00    +0.000 A 
ATOM     23  C   UNL     1       1.411   9.272  18.616  0.00  0.00    +0.000 A 
ATOM     24  C   UNL     1       1.362   8.957  19.997  0.00  0.00    +0.000 A 
ATOM     25  C   UNL     1       0.472   9.603  20.864  0.00  0.00    +0.000 A 
ATOM     26  C   UNL     1      -0.360  10.556  20.323  0.00  0.00    +0.000 A 
ATOM     27  N   UNL     1      -1.300  11.335  20.981  0.00  0.00    +0.000 N 
ATOM     28  H   UNL     1      -1.508  11.309  21.968  0.00  0.00    +0.000 HD
ENDBRANCH  17  23
ENDBRANCH   1  17
TORSDOF 4
ENDMDL
MODEL 9
REMARK VINA RESULT:      -8.3      0.932      1.508
REMARK  Name = 
REMARK  4 active torsions:
REMARK  status: ('A' for Active; 'I' for Inactive)
REMARK    1  A    between atoms: C_6  and  C_7
REMARK    2  A    between atoms: C_7  and  N_8
REMARK    3  A    between atoms: C_9  and  C_11
REMARK    4  A    between atoms: C_12  and  C_13
REMARK                            x       y       z     vdW  Elec       q    Type
REMARK                         _______ _______ _______ _____ _____    ______ ____
ROOT
ATOM      1  N   UNL     1       3.814   5.363  17.334  0.00  0.00    +0.000 N 
ATOM      2  C   UNL     1       4.588   4.336  16.840  0.00  0.00    +0.000 C 
ATOM      3  O   UNL     1       4.330   3.158  17.061  0.00  0.00    +0.000 OA
ATOM      4  H   UNL     1       3.915   6.286  16.938  0.00  0.00    +0.000 HD
ENDROOT
BRANCH   2   5
ATOM      5  C   UNL     1       5.712   4.725  16.022  0.00  0.00    +0.000 A 
ATOM      6  C   UNL     1       6.735   5.608  16.377  0.00  0.00    +0.000 A 
ATOM      7  N   UNL     1       7.611   5.786  15.323  0.00  0.00    +0.000 NA
ATOM      8  C   UNL     1       7.142   5.058  14.340  0.00  0.00    +0.000 A 
ATOM      9  C   UNL     1       7.623   4.883  13.013  0.00  0.00    +0.000 A 
ATOM     10  C   UNL     1       6.958   4.087  12.156  0.00  0.00    +0.000 A 
ATOM     11  C   UNL     1       5.739   3.405  12.555  0.00  0.00    +0.000 A 
ATOM     12  C   UNL     1       5.269   3.582  13.800  0.00  0.00    +0.000 A 
ATOM     13  N   UNL     1       5.973   4.388  14.702  0.00  0.00    +0.000 N 
BRANCH   6  14
ATOM     14  C   UNL     1       6.943   6.300  17.691  0.00  0.00    +0.000 C 
ATOM     15  F   UNL     1       8.236   6.173  18.105  0.00  0.00    +0.000 F 
ATOM     16  F   UNL     1       6.717   7.643  17.601  0.00  0.00    +0.000 F 
ENDBRANCH   6  14
ENDBRANCH   2   5
BRANCH   1  17
ATOM     17  C   UNL     1       2.660   5.137  18.179  0.00  0.00    +0.000 C 
BRANCH  17  23
ATOM     18  O   UNL     1       0.915  12.156  19.477  0.00  0.00    +0.000 OA
ATOM     19  C   UNL     1       1.143  10.962  19.413  0.00  0.00    +0.000 C 
ATOM     20  C   UNL     1       1.594  10.180  18.172  0.00  0.00    +0.000 C 
ATOM     21  C   UNL     1       1.709   8.779  18.703  0.00  0.00    +0.000 A 
ATOM     22  C   UNL     1       2.100   7.613  18.064  0.00  0.00    +0.000 A 
ATOM     23  C   UNL     1       2.147   6.417  18.809  0.00  0.00    +0.000 A 
ATOM     24  C   UNL     1       1.788   6.441  20.181  0.00  0.00    +0.000 A 
ATOM     25  C   UNL     1       1.397   7.627  20.815  0.00  0.00    +0.000 A 
ATOM     26  C   UNL     1       1.371   8.773  20.054  0.00  0.00    +0.000 A 
ATOM     27  N   UNL     1       1.041  10.057  20.462  0.00  0.00    +0.000 N 
ATOM     28  H   UNL     1       0.769  10.333  21.394  0.00  0.00    +0.000 HD
ENDBRANCH  17  23
ENDBRANCH   1  17
TORSDOF 4
ENDMDL
