MODEL 1
REMARK VINA RESULT:      -8.2      0.000      0.000
REMARK  Name = 
REMARK  5 active torsions:
REMARK  status: ('A' for Active; 'I' for Inactive)
REMARK    1  A    between atoms: C_1  and  C_2
REMARK    2  A    between atoms: C_2  and  C_3
REMARK    3  A    between atoms: C_7  and  N_8
REMARK    4  A    between atoms: C_9  and  C_11
REMARK    5  A    between atoms: C_21  and  C_22
REMARK                            x       y       z     vdW  Elec       q    Type
REMARK                         _______ _______ _______ _____ _____    ______ ____
ROOT
ATOM      1  C   UNL     1       7.041   6.231  17.633  0.00  0.00    +0.000 C 
ATOM      2  C   UNL     1       6.635   5.530  18.940  0.00  0.00    +0.000 C 
ATOM      3  C   UNL     1       5.208   4.972  18.912  0.00  0.00    +0.000 C 
ATOM      4  N   UNL     1       4.267   5.990  18.435  0.00  0.00    +0.000 N 
ATOM      5  C   UNL     1       3.190   6.465  19.171  0.00  0.00    +0.000 A 
ATOM      6  C   UNL     1       2.567   5.592  20.227  0.00  0.00    +0.000 A 
ATOM      7  C   UNL     1       1.561   6.062  20.963  0.00  0.00    +0.000 A 
ATOM      8  C   UNL     1       1.089   7.360  20.713  0.00  0.00    +0.000 A 
ATOM      9  N   UNL     1       0.131   8.074  21.261  0.00  0.00    +0.000 NA
ATOM     10  N   UNL     1       0.075   9.272  20.594  0.00  0.00    +0.000 NA
ATOM     11  C   UNL     1       1.002   9.259  19.648  0.00  0.00    +0.000 A 
ATOM     12  N   UNL     1       1.683   8.071  19.693  0.00  0.00    +0.000 N 
ATOM     13  N   UNL     1       2.725   7.668  18.909  0.00  0.00    +0.000 NA
ATOM     14  C   UNL     1       4.602   6.556  17.128  0.00  0.00    +0.000 C 
ATOM     15  C   UNL     1       5.959   7.242  17.225  0.00  0.00    +0.000 C 
ENDROOT
BRANCH   1  17
ATOM     16  N   UNL     1       6.896   5.716  15.268  0.00  0.00    +0.000 N 
ATOM     17  C   UNL     1       7.300   5.233  16.501  0.00  0.00    +0.000 C 
ATOM     18  O   UNL     1       7.805   4.134  16.723  0.00  0.00    +0.000 OA
ATOM     19  H   UNL     1       6.589   6.682  15.231  0.00  0.00    +0.000 HD
BRANCH  16  24
ATOM     20  C   UNL     1       5.614   3.636  12.482  0.00  0.00    +0.000 A 
ATOM     21  C   UNL     1       6.682   3.695  11.581  0.00  0.00    +0.000 A 
ATOM     22  C   UNL     1       7.848   4.378  11.916  0.00  0.00    +0.000 A 
ATOM     23  C   UNL     1       7.952   5.035  13.142  0.00  0.00    +0.000 A 
ATOM     24  C   UNL     1       6.882   5.033  14.037  0.00  0.00    +0.000 A 
ATOM     25  C   UNL     1       5.721   4.314  13.707  0.00  0.00    +0.000 A 
BRANCH  20  27
ATOM     26  C   UNL     1       3.718   3.398  10.848  0.00  0.00    +0.000 C 
ATOM     27  C   UNL     1       4.363   2.874  12.122  0.00  0.00    +0.000 C 
ENDBRANCH  20  27
ENDBRANCH  16  24
ENDBRANCH   1  17
BRANCH  11  28
ATOM     28  C   UNL     1       1.311  10.304  18.666  0.00  0.00    +0.000 C 
ATOM     29  F   UNL     1       1.645   9.786  17.452  0.00  0.00    +0.000 F 
ATOM     30  F   UNL     1       0.263  11.141  18.438  0.00  0.00    +0.000 F 
ATOM     31  F   UNL     1       2.362  11.085  19.038  0.00  0.00    +0.000 F 
ENDBRANCH  11  28
TORSDOF 4
ENDMDL
MODEL 2
REMARK VINA RESULT:      -7.8      4.720      7.347
REMARK  Name = 
REMARK  5 active torsions:
REMARK  status: ('A' for Active; 'I' for Inactive)
REMARK    1  A    between atoms: C_1  and  C_2
REMARK    2  A    between atoms: C_2  and  C_3
REMARK    3  A    between atoms: C_7  and  N_8
REMARK    4  A    between atoms: C_9  and  C_11
REMARK    5  A    between atoms: C_21  and  C_22
REMARK                            x       y       z     vdW  Elec       q    Type
REMARK                         _______ _______ _______ _____ _____    ______ ____
ROOT
ATOM      1  C   UNL     1       7.805   6.010  18.409  0.00  0.00    +0.000 C 
ATOM      2  C   UNL     1       7.455   5.113  17.209  0.00  0.00    +0.000 C 
ATOM      3  C   UNL     1       6.035   5.335  16.680  0.00  0.00    +0.000 C 
ATOM      4  N   UNL     1       5.066   5.308  17.779  0.00  0.00    +0.000 N 
ATOM      5  C   UNL     1       4.010   4.410  17.869  0.00  0.00    +0.000 A 
ATOM      6  C   UNL     1       3.437   3.808  16.615  0.00  0.00    +0.000 A 
ATOM      7  C   UNL     1       2.453   2.913  16.701  0.00  0.00    +0.000 A 
ATOM      8  C   UNL     1       1.957   2.575  17.970  0.00  0.00    +0.000 A 
ATOM      9  N   UNL     1       1.012   1.749  18.359  0.00  0.00    +0.000 NA
ATOM     10  N   UNL     1       0.917   1.842  19.724  0.00  0.00    +0.000 NA
ATOM     11  C   UNL     1       1.809   2.729  20.138  0.00  0.00    +0.000 A 
ATOM     12  N   UNL     1       2.505   3.213  19.061  0.00  0.00    +0.000 N 
ATOM     13  N   UNL     1       3.522   4.122  19.056  0.00  0.00    +0.000 NA
ATOM     14  C   UNL     1       5.345   6.260  18.854  0.00  0.00    +0.000 C 
ATOM     15  C   UNL     1       6.697   5.919  19.470  0.00  0.00    +0.000 C 
ENDROOT
BRANCH   1  17
ATOM     16  N   UNL     1       8.660   8.205  18.981  0.00  0.00    +0.000 N 
ATOM     17  C   UNL     1       8.034   7.466  17.992  0.00  0.00    +0.000 C 
ATOM     18  O   UNL     1       7.672   7.878  16.892  0.00  0.00    +0.000 OA
ATOM     19  H   UNL     1       8.987   7.699  19.797  0.00  0.00    +0.000 HD
BRANCH  16  24
ATOM     20  C   UNL     1       9.468  11.567  20.314  0.00  0.00    +0.000 A 
ATOM     21  C   UNL     1       9.549  12.318  19.137  0.00  0.00    +0.000 A 
ATOM     22  C   UNL     1       9.284  11.725  17.905  0.00  0.00    +0.000 A 
ATOM     23  C   UNL     1       8.962  10.369  17.831  0.00  0.00    +0.000 A 
ATOM     24  C   UNL     1       8.925   9.588  18.986  0.00  0.00    +0.000 A 
ATOM     25  C   UNL     1       9.160  10.200  20.228  0.00  0.00    +0.000 A 
BRANCH  20  27
ATOM     26  C   UNL     1       8.510  12.198  22.551  0.00  0.00    +0.000 C 
ATOM     27  C   UNL     1       9.733  12.222  21.647  0.00  0.00    +0.000 C 
ENDBRANCH  20  27
ENDBRANCH  16  24
ENDBRANCH   1  17
BRANCH  11  28
ATOM     28  C   UNL     1       2.070   3.183  21.509  0.00  0.00    +0.000 C 
ATOM     29  F   UNL     1       1.081   2.815  22.369  0.00  0.00    +0.000 F 
ATOM     30  F   UNL     1       3.221   2.671  22.024  0.00  0.00    +0.000 F 
ATOM     31  F   UNL     1       2.164   4.537  21.609  0.00  0.00    +0.000 F 
ENDBRANCH  11  28
TORSDOF 4
ENDMDL
MODEL 3
REMARK VINA RESULT:      -7.8      1.015      1.296
REMARK  Name = 
REMARK  5 active torsions:
REMARK  status: ('A' for Active; 'I' for Inactive)
REMARK    1  A    between atoms: C_1  and  C_2
REMARK    2  A    between atoms: C_2  and  C_3
REMARK    3  A    between atoms: C_7  and  N_8
REMARK    4  A    between atoms: C_9  and  C_11
REMARK    5  A    between atoms: C_21  and  C_22
REMARK                            x       y       z     vdW  Elec       q    Type
REMARK                         _______ _______ _______ _____ _____    ______ ____
ROOT
ATOM      1  C   UNL     1       6.272   5.443  16.699  0.00  0.00    +0.000 C 
ATOM      2  C   UNL     1       6.159   4.974  18.160  0.00  0.00    +0.000 C 
ATOM      3  C   UNL     1       4.736   4.570  18.558  0.00  0.00    +0.000 C 
ATOM      4  N   UNL     1       3.777   5.604  18.161  0.00  0.00    +0.000 N 
ATOM      5  C   UNL     1       2.951   6.285  19.046  0.00  0.00    +0.000 A 
ATOM      6  C   UNL     1       2.554   5.635  20.344  0.00  0.00    +0.000 A 
ATOM      7  C   UNL     1       1.797   6.303  21.213  0.00  0.00    +0.000 A 
ATOM      8  C   UNL     1       1.365   7.596  20.879  0.00  0.00    +0.000 A 
ATOM      9  N   UNL     1       0.625   8.474  21.517  0.00  0.00    +0.000 NA
ATOM     10  N   UNL     1       0.484   9.568  20.701  0.00  0.00    +0.000 NA
ATOM     11  C   UNL     1       1.143   9.330  19.578  0.00  0.00    +0.000 A 
ATOM     12  N   UNL     1       1.733   8.094  19.648  0.00  0.00    +0.000 N 
ATOM     13  N   UNL     1       2.517   7.482  18.714  0.00  0.00    +0.000 NA
ATOM     14  C   UNL     1       3.812   5.947  16.740  0.00  0.00    +0.000 C 
ATOM     15  C   UNL     1       5.194   6.496  16.403  0.00  0.00    +0.000 C 
ENDROOT
BRANCH   1  17
ATOM     16  N   UNL     1       6.300   4.689  14.395  0.00  0.00    +0.000 N 
ATOM     17  C   UNL     1       6.174   4.277  15.711  0.00  0.00    +0.000 C 
ATOM     18  O   UNL     1       5.993   3.125  16.101  0.00  0.00    +0.000 OA
ATOM     19  H   UNL     1       6.547   5.660  14.239  0.00  0.00    +0.000 HD
BRANCH  16  24
ATOM     20  C   UNL     1       4.646   3.101  11.484  0.00  0.00    +0.000 A 
ATOM     21  C   UNL     1       5.727   2.465  10.866  0.00  0.00    +0.000 A 
ATOM     22  C   UNL     1       6.994   2.516  11.440  0.00  0.00    +0.000 A 
ATOM     23  C   UNL     1       7.204   3.226  12.622  0.00  0.00    +0.000 A 
ATOM     24  C   UNL     1       6.152   3.911  13.231  0.00  0.00    +0.000 A 
ATOM     25  C   UNL     1       4.869   3.827  12.665  0.00  0.00    +0.000 A 
BRANCH  20  27
ATOM     26  C   UNL     1       3.077   4.048   9.763  0.00  0.00    +0.000 C 
ATOM     27  C   UNL     1       3.270   3.022  10.869  0.00  0.00    +0.000 C 
ENDBRANCH  20  27
ENDBRANCH  16  24
ENDBRANCH   1  17
BRANCH  11  28
ATOM     28  C   UNL     1       1.267  10.192  18.397  0.00  0.00    +0.000 C 
ATOM     29  F   UNL     1       2.564  10.505  18.123  0.00  0.00    +0.000 F 
ATOM     30  F   UNL     1       0.777   9.613  17.267  0.00  0.00    +0.000 F 
ATOM     31  F   UNL     1       0.621  11.381  18.541  0.00  0.00    +0.000 F 
ENDBRANCH  11  28
TORSDOF 4
ENDMDL
MODEL 4
REMARK VINA RESULT:      -7.6      4.783      9.687
REMARK  Name = 
REMARK  5 active torsions:
REMARK  status: ('A' for Active; 'I' for Inactive)
REMARK    1  A    between atoms: C_1  and  C_2
REMARK    2  A    between atoms: C_2  and  C_3
REMARK    3  A    between atoms: C_7  and  N_8
REMARK    4  A    between atoms: C_9  and  C_11
REMARK    5  A    between atoms: C_21  and  C_22
REMARK                            x       y       z     vdW  Elec       q    Type
REMARK                         _______ _______ _______ _____ _____    ______ ____
ROOT
ATOM      1  C   UNL     1       0.518  11.396  19.734  0.00  0.00    +0.000 C 
ATOM      2  C   UNL     1       1.866  11.468  18.998  0.00  0.00    +0.000 C 
ATOM      3  C   UNL     1       1.990  10.452  17.858  0.00  0.00    +0.000 C 
ATOM      4  N   UNL     1       1.603   9.115  18.317  0.00  0.00    +0.000 N 
ATOM      5  C   UNL     1       2.441   8.008  18.297  0.00  0.00    +0.000 A 
ATOM      6  C   UNL     1       3.563   7.944  17.296  0.00  0.00    +0.000 A 
ATOM      7  C   UNL     1       4.395   6.902  17.303  0.00  0.00    +0.000 A 
ATOM      8  C   UNL     1       4.184   5.874  18.234  0.00  0.00    +0.000 A 
ATOM      9  N   UNL     1       4.821   4.750  18.470  0.00  0.00    +0.000 NA
ATOM     10  N   UNL     1       4.153   4.099  19.477  0.00  0.00    +0.000 NA
ATOM     11  C   UNL     1       3.117   4.844  19.831  0.00  0.00    +0.000 A 
ATOM     12  N   UNL     1       3.101   5.990  19.079  0.00  0.00    +0.000 N 
ATOM     13  N   UNL     1       2.219   7.028  19.146  0.00  0.00    +0.000 NA
ATOM     14  C   UNL     1       0.263   9.041  18.901  0.00  0.00    +0.000 C 
ATOM     15  C   UNL     1       0.214   9.943  20.128  0.00  0.00    +0.000 C 
ENDROOT
BRANCH   1  17
ATOM     16  N   UNL     1      -1.838  11.363  19.162  0.00  0.00    +0.000 N 
ATOM     17  C   UNL     1      -0.626  11.979  18.899  0.00  0.00    +0.000 C 
ATOM     18  O   UNL     1      -0.429  12.886  18.094  0.00  0.00    +0.000 OA
ATOM     19  H   UNL     1      -1.859  10.698  19.927  0.00  0.00    +0.000 HD
BRANCH  16  24
ATOM     20  C   UNL     1      -5.380  12.340  18.680  0.00  0.00    +0.000 A 
ATOM     21  C   UNL     1      -5.550  12.097  17.313  0.00  0.00    +0.000 A 
ATOM     22  C   UNL     1      -4.508  11.560  16.560  0.00  0.00    +0.000 A 
ATOM     23  C   UNL     1      -3.277  11.285  17.156  0.00  0.00    +0.000 A 
ATOM     24  C   UNL     1      -3.068  11.565  18.506  0.00  0.00    +0.000 A 
ATOM     25  C   UNL     1      -4.133  12.076  19.268  0.00  0.00    +0.000 A 
BRANCH  20  27
ATOM     26  C   UNL     1      -6.941  11.960  20.614  0.00  0.00    +0.000 C 
ATOM     27  C   UNL     1      -6.520  12.900  19.494  0.00  0.00    +0.000 C 
ENDBRANCH  20  27
ENDBRANCH  16  24
ENDBRANCH   1  17
BRANCH  11  28
ATOM     28  C   UNL     1       2.099   4.560  20.848  0.00  0.00    +0.000 C 
ATOM     29  F   UNL     1       0.929   4.130  20.299  0.00  0.00    +0.000 F 
ATOM     30  F   UNL     1       2.482   3.587  21.719  0.00  0.00    +0.000 F 
ATOM     31  F   UNL     1       1.779   5.651  21.595  0.00  0.00    +0.000 F 
ENDBRANCH  11  28
TORSDOF 4
ENDMDL
MODEL 5
REMARK VINA RESULT:      -7.5      4.679      7.557
REMARK  Name = 
REMARK  5 active torsions:
REMARK  status: ('A' for Active; 'I' for Inactive)
REMARK    1  A    between atoms: C_1  and  C_2
REMARK    2  A    between atoms: C_2  and  C_3
REMARK    3  A    between atoms: C_7  and  N_8
REMARK    4  A    between atoms: C_9  and  C_11
REMARK    5  A    between atoms: C_21  and  C_22
REMARK                            x       y       z     vdW  Elec       q    Type
REMARK                         _______ _______ _______ _____ _____    ______ ____
ROOT
ATOM      1  C   UNL     1       1.053  10.266  18.207  0.00  0.00    +0.000 C 
ATOM      2  C   UNL     1       1.174  11.439  19.195  0.00  0.00    +0.000 C 
ATOM      3  C   UNL     1       0.206  11.338  20.378  0.00  0.00    +0.000 C 
ATOM      4  N   UNL     1      -1.154  11.059  19.909  0.00  0.00    +0.000 N 
ATOM      5  C   UNL     1      -2.247  11.883  20.144  0.00  0.00    +0.000 A 
ATOM      6  C   UNL     1      -2.254  12.782  21.350  0.00  0.00    +0.000 A 
ATOM      7  C   UNL     1      -3.283  13.604  21.555  0.00  0.00    +0.000 A 
ATOM      8  C   UNL     1      -4.351  13.590  20.644  0.00  0.00    +0.000 A 
ATOM      9  N   UNL     1      -5.475  14.267  20.589  0.00  0.00    +0.000 NA
ATOM     10  N   UNL     1      -6.176  13.819  19.498  0.00  0.00    +0.000 NA
ATOM     11  C   UNL     1      -5.460  12.870  18.913  0.00  0.00    +0.000 A 
ATOM     12  N   UNL     1      -4.285  12.698  19.596  0.00  0.00    +0.000 N 
ATOM     13  N   UNL     1      -3.263  11.840  19.310  0.00  0.00    +0.000 NA
ATOM     14  C   UNL     1      -1.270   9.864  19.073  0.00  0.00    +0.000 C 
ATOM     15  C   UNL     1      -0.419  10.056  17.823  0.00  0.00    +0.000 C 
ENDROOT
BRANCH   1  17
ATOM     16  N   UNL     1       2.246   8.197  17.792  0.00  0.00    +0.000 N 
ATOM     17  C   UNL     1       1.652   8.975  18.771  0.00  0.00    +0.000 C 
ATOM     18  O   UNL     1       1.576   8.707  19.968  0.00  0.00    +0.000 OA
ATOM     19  H   UNL     1       2.317   8.601  16.864  0.00  0.00    +0.000 HD
BRANCH  16  24
ATOM     20  C   UNL     1       2.372   4.531  18.315  0.00  0.00    +0.000 A 
ATOM     21  C   UNL     1       3.737   4.275  18.147  0.00  0.00    +0.000 A 
ATOM     22  C   UNL     1       4.625   5.322  17.913  0.00  0.00    +0.000 A 
ATOM     23  C   UNL     1       4.157   6.633  17.817  0.00  0.00    +0.000 A 
ATOM     24  C   UNL     1       2.795   6.907  17.930  0.00  0.00    +0.000 A 
ATOM     25  C   UNL     1       1.908   5.851  18.199  0.00  0.00    +0.000 A 
BRANCH  20  27
ATOM     26  C   UNL     1       1.084   3.272  20.069  0.00  0.00    +0.000 C 
ATOM     27  C   UNL     1       1.419   3.394  18.591  0.00  0.00    +0.000 C 
ENDBRANCH  20  27
ENDBRANCH  16  24
ENDBRANCH   1  17
BRANCH  11  28
ATOM     28  C   UNL     1      -5.801  12.078  17.725  0.00  0.00    +0.000 C 
ATOM     29  F   UNL     1      -7.025  12.404  17.224  0.00  0.00    +0.000 F 
ATOM     30  F   UNL     1      -4.920  12.256  16.703  0.00  0.00    +0.000 F 
ATOM     31  F   UNL     1      -5.845  10.742  17.976  0.00  0.00    +0.000 F 
ENDBRANCH  11  28
TORSDOF 4
ENDMDL
MODEL 6
REMARK VINA RESULT:      -7.4      5.060      8.245
REMARK  Name = 
REMARK  5 active torsions:
REMARK  status: ('A' for Active; 'I' for Inactive)
REMARK    1  A    between atoms: C_1  and  C_2
REMARK    2  A    between atoms: C_2  and  C_3
REMARK    3  A    between atoms: C_7  and  N_8
REMARK    4  A    between atoms: C_9  and  C_11
REMARK    5  A    between atoms: C_21  and  C_22
REMARK                            x       y       z     vdW  Elec       q    Type
REMARK                         _______ _______ _______ _____ _____    ______ ____
ROOT
ATOM      1  C   UNL     1       1.211   9.493  22.119  0.00  0.00    +0.000 C 
ATOM      2  C   UNL     1       0.349   9.657  23.382  0.00  0.00    +0.000 C 
ATOM      3  C   UNL     1      -1.104  10.040  23.081  0.00  0.00    +0.000 C 
ATOM      4  N   UNL     1      -1.154  11.166  22.143  0.00  0.00    +0.000 N 
ATOM      5  C   UNL     1      -1.752  12.389  22.422  0.00  0.00    +0.000 A 
ATOM      6  C   UNL     1      -2.868  12.459  23.428  0.00  0.00    +0.000 A 
ATOM      7  C   UNL     1      -3.414  13.637  23.728  0.00  0.00    +0.000 A 
ATOM      8  C   UNL     1      -2.945  14.786  23.071  0.00  0.00    +0.000 A 
ATOM      9  N   UNL     1      -3.284  16.052  23.154  0.00  0.00    +0.000 NA
ATOM     10  N   UNL     1      -2.521  16.745  22.248  0.00  0.00    +0.000 NA
ATOM     11  C   UNL     1      -1.733  15.880  21.628  0.00  0.00    +0.000 A 
ATOM     12  N   UNL     1      -1.955  14.622  22.126  0.00  0.00    +0.000 N 
ATOM     13  N   UNL     1      -1.336  13.458  21.778  0.00  0.00    +0.000 NA
ATOM     14  C   UNL     1      -0.433  10.941  20.891  0.00  0.00    +0.000 C 
ATOM     15  C   UNL     1       1.041  10.718  21.208  0.00  0.00    +0.000 C 
ENDROOT
BRANCH   1  17
ATOM     16  N   UNL     1       2.003   7.611  20.811  0.00  0.00    +0.000 N 
ATOM     17  C   UNL     1       0.878   8.206  21.359  0.00  0.00    +0.000 C 
ATOM     18  O   UNL     1      -0.278   7.799  21.269  0.00  0.00    +0.000 OA
ATOM     19  H   UNL     1       2.901   8.013  21.057  0.00  0.00    +0.000 HD
BRANCH  16  24
ATOM     20  C   UNL     1       1.623   4.096  19.701  0.00  0.00    +0.000 A 
ATOM     21  C   UNL     1       2.034   4.182  18.367  0.00  0.00    +0.000 A 
ATOM     22  C   UNL     1       2.488   5.393  17.848  0.00  0.00    +0.000 A 
ATOM     23  C   UNL     1       2.510   6.537  18.646  0.00  0.00    +0.000 A 
ATOM     24  C   UNL     1       2.058   6.487  19.965  0.00  0.00    +0.000 A 
ATOM     25  C   UNL     1       1.633   5.256  20.492  0.00  0.00    +0.000 A 
BRANCH  20  27
ATOM     26  C   UNL     1       1.611   2.570  21.699  0.00  0.00    +0.000 C 
ATOM     27  C   UNL     1       1.155   2.776  20.263  0.00  0.00    +0.000 C 
ENDBRANCH  20  27
ENDBRANCH  16  24
ENDBRANCH   1  17
BRANCH  11  28
ATOM     28  C   UNL     1      -0.757  16.141  20.564  0.00  0.00    +0.000 C 
ATOM     29  F   UNL     1      -0.725  17.455  20.207  0.00  0.00    +0.000 F 
ATOM     30  F   UNL     1       0.515  15.821  20.925  0.00  0.00    +0.000 F 
ATOM     31  F   UNL     1      -1.025  15.452  19.421  0.00  0.00    +0.000 F 
ENDBRANCH  11  28
TORSDOF 4
ENDMDL
MODEL 7
REMARK VINA RESULT:      -7.4      4.720      9.100
REMARK  Name = 
REMARK  5 active torsions:
REMARK  status: ('A' for Active; 'I' for Inactive)
REMARK    1  A    between atoms: C_1  and  C_2
REMARK    2  A    between atoms: C_2  and  C_3
REMARK    3  A    between atoms: C_7  and  N_8
REMARK    4  A    between atoms: C_9  and  C_11
REMARK    5  A    between atoms: C_21  and  C_22
REMARK                            x       y       z     vdW  Elec       q    Type
REMARK                         _______ _______ _______ _____ _____    ______ ____
ROOT
ATOM      1  C   UNL     1       0.552  11.422  20.233  0.00  0.00    +0.000 C 
ATOM      2  C   UNL     1       1.870  11.509  19.446  0.00  0.00    +0.000 C 
ATOM      3  C   UNL     1       1.920  10.566  18.239  0.00  0.00    +0.000 C 
ATOM      4  N   UNL     1       1.516   9.211  18.628  0.00  0.00    +0.000 N 
ATOM      5  C   UNL     1       2.323   8.088  18.501  0.00  0.00    +0.000 A 
ATOM      6  C   UNL     1       3.401   8.062  17.452  0.00  0.00    +0.000 A 
ATOM      7  C   UNL     1       4.204   7.002  17.356  0.00  0.00    +0.000 A 
ATOM      8  C   UNL     1       4.003   5.921  18.228  0.00  0.00    +0.000 A 
ATOM      9  N   UNL     1       4.618   4.768  18.364  0.00  0.00    +0.000 NA
ATOM     10  N   UNL     1       3.975   4.070  19.355  0.00  0.00    +0.000 NA
ATOM     11  C   UNL     1       2.975   4.816  19.799  0.00  0.00    +0.000 A 
ATOM     12  N   UNL     1       2.960   6.008  19.124  0.00  0.00    +0.000 N 
ATOM     13  N   UNL     1       2.109   7.061  19.295  0.00  0.00    +0.000 NA
ATOM     14  C   UNL     1       0.200   9.132  19.262  0.00  0.00    +0.000 C 
ATOM     15  C   UNL     1       0.225   9.954  20.546  0.00  0.00    +0.000 C 
ENDROOT
BRANCH   1  17
ATOM     16  N   UNL     1      -1.702  11.245  19.357  0.00  0.00    +0.000 N 
ATOM     17  C   UNL     1      -0.609  12.085  19.486  0.00  0.00    +0.000 C 
ATOM     18  O   UNL     1      -0.520  13.235  19.062  0.00  0.00    +0.000 OA
ATOM     19  H   UNL     1      -1.661  10.358  19.848  0.00  0.00    +0.000 HD
BRANCH  16  24
ATOM     20  C   UNL     1      -4.115  11.184  16.545  0.00  0.00    +0.000 A 
ATOM     21  C   UNL     1      -5.226  11.808  17.122  0.00  0.00    +0.000 A 
ATOM     22  C   UNL     1      -5.160  12.297  18.424  0.00  0.00    +0.000 A 
ATOM     23  C   UNL     1      -3.995  12.145  19.176  0.00  0.00    +0.000 A 
ATOM     24  C   UNL     1      -2.891  11.481  18.640  0.00  0.00    +0.000 A 
ATOM     25  C   UNL     1      -2.952  11.020  17.315  0.00  0.00    +0.000 A 
BRANCH  20  27
ATOM     26  C   UNL     1      -2.869  10.069  14.668  0.00  0.00    +0.000 C 
ATOM     27  C   UNL     1      -4.186  10.677  15.126  0.00  0.00    +0.000 C 
ENDBRANCH  20  27
ENDBRANCH  16  24
ENDBRANCH   1  17
BRANCH  11  28
ATOM     28  C   UNL     1       1.992   4.490  20.839  0.00  0.00    +0.000 C 
ATOM     29  F   UNL     1       1.440   3.258  20.658  0.00  0.00    +0.000 F 
ATOM     30  F   UNL     1       2.531   4.477  22.089  0.00  0.00    +0.000 F 
ATOM     31  F   UNL     1       0.948   5.363  20.871  0.00  0.00    +0.000 F 
ENDBRANCH  11  28
TORSDOF 4
ENDMDL
MODEL 8
REMARK VINA RESULT:      -7.3      7.138      9.139
REMARK  Name = 
REMARK  5 active torsions:
REMARK  status: ('A' for Active; 'I' for Inactive)
REMARK    1  A    between atoms: C_1  and  C_2
REMARK    2  A    between atoms: C_2  and  C_3
REMARK    3  A    between atoms: C_7  and  N_8
REMARK    4  A    between atoms: C_9  and  C_11
REMARK    5  A    between atoms: C_21  and  C_22
REMARK                            x       y       z     vdW  Elec       q    Type
REMARK                         _______ _______ _______ _____ _____    ______ ____
ROOT
ATOM      1  C   UNL     1       3.184  14.904  17.930  0.00  0.00    +0.000 C 
ATOM      2  C   UNL     1       2.149  15.897  18.484  0.00  0.00    +0.000 C 
ATOM      3  C   UNL     1       2.104  15.938  20.015  0.00  0.00    +0.000 C 
ATOM      4  N   UNL     1       2.019  14.581  20.563  0.00  0.00    +0.000 N 
ATOM      5  C   UNL     1       0.980  14.125  21.363  0.00  0.00    +0.000 A 
ATOM      6  C   UNL     1       0.195  15.104  22.193  0.00  0.00    +0.000 A 
ATOM      7  C   UNL     1      -0.830  14.674  22.928  0.00  0.00    +0.000 A 
ATOM      8  C   UNL     1      -1.134  13.304  22.928  0.00  0.00    +0.000 A 
ATOM      9  N   UNL     1      -2.061  12.604  23.542  0.00  0.00    +0.000 NA
ATOM     10  N   UNL     1      -1.871  11.286  23.211  0.00  0.00    +0.000 NA
ATOM     11  C   UNL     1      -0.826  11.213  22.401  0.00  0.00    +0.000 A 
ATOM     12  N   UNL     1      -0.331  12.471  22.179  0.00  0.00    +0.000 N 
ATOM     13  N   UNL     1       0.720  12.835  21.390  0.00  0.00    +0.000 NA
ATOM     14  C   UNL     1       3.088  13.685  20.124  0.00  0.00    +0.000 C 
ATOM     15  C   UNL     1       3.012  13.537  18.609  0.00  0.00    +0.000 C 
ENDROOT
BRANCH   1  17
ATOM     16  N   UNL     1       5.560  14.495  17.668  0.00  0.00    +0.000 N 
ATOM     17  C   UNL     1       4.619  15.414  18.101  0.00  0.00    +0.000 C 
ATOM     18  O   UNL     1       4.848  16.521  18.583  0.00  0.00    +0.000 OA
ATOM     19  H   UNL     1       5.211  13.665  17.201  0.00  0.00    +0.000 HD
BRANCH  16  24
ATOM     20  C   UNL     1       9.092  13.384  17.809  0.00  0.00    +0.000 A 
ATOM     21  C   UNL     1       9.763  14.609  17.894  0.00  0.00    +0.000 A 
ATOM     22  C   UNL     1       9.045  15.800  17.959  0.00  0.00    +0.000 A 
ATOM     23  C   UNL     1       7.651  15.786  17.911  0.00  0.00    +0.000 A 
ATOM     24  C   UNL     1       6.961  14.582  17.775  0.00  0.00    +0.000 A 
ATOM     25  C   UNL     1       7.689  13.380  17.744  0.00  0.00    +0.000 A 
BRANCH  20  27
ATOM     26  C   UNL     1       9.103  10.933  18.366  0.00  0.00    +0.000 C 
ATOM     27  C   UNL     1       9.876  12.096  17.763  0.00  0.00    +0.000 C 
ENDBRANCH  20  27
ENDBRANCH  16  24
ENDBRANCH   1  17
BRANCH  11  28
ATOM     28  C   UNL     1      -0.226  10.016  21.799  0.00  0.00    +0.000 C 
ATOM     29  F   UNL     1      -0.391   9.984  20.447  0.00  0.00    +0.000 F 
ATOM     30  F   UNL     1       1.115   9.935  22.013  0.00  0.00    +0.000 F 
ATOM     31  F   UNL     1      -0.769   8.860  22.267  0.00  0.00    +0.000 F 
ENDBRANCH  11  28
TORSDOF 4
ENDMDL
MODEL 9
REMARK VINA RESULT:      -7.3      4.620      8.605
REMARK  Name = 
REMARK  5 active torsions:
REMARK  status: ('A' for Active; 'I' for Inactive)
REMARK    1  A    between atoms: C_1  and  C_2
REMARK    2  A    between atoms: C_2  and  C_3
REMARK    3  A    between atoms: C_7  and  N_8
REMARK    4  A    between atoms: C_9  and  C_11
REMARK    5  A    between atoms: C_21  and  C_22
REMARK                            x       y       z     vdW  Elec       q    Type
REMARK                         _______ _______ _______ _____ _____    ______ ____
ROOT
ATOM      1  C   UNL     1       0.798  11.090  19.660  0.00  0.00    +0.000 C 
ATOM      2  C   UNL     1       2.161  11.145  18.949  0.00  0.00    +0.000 C 
ATOM      3  C   UNL     1       2.294  10.126  17.812  0.00  0.00    +0.000 C 
ATOM      4  N   UNL     1       1.882   8.794  18.265  0.00  0.00    +0.000 N 
ATOM      5  C   UNL     1       2.707   7.677  18.261  0.00  0.00    +0.000 A 
ATOM      6  C   UNL     1       3.847   7.598  17.282  0.00  0.00    +0.000 A 
ATOM      7  C   UNL     1       4.666   6.546  17.305  0.00  0.00    +0.000 A 
ATOM      8  C   UNL     1       4.424   5.522  18.233  0.00  0.00    +0.000 A 
ATOM      9  N   UNL     1       5.042   4.390  18.482  0.00  0.00    +0.000 NA
ATOM     10  N   UNL     1       4.347   3.748  19.476  0.00  0.00    +0.000 NA
ATOM     11  C   UNL     1       3.314   4.506  19.809  0.00  0.00    +0.000 A 
ATOM     12  N   UNL     1       3.327   5.652  19.057  0.00  0.00    +0.000 N 
ATOM     13  N   UNL     1       2.456   6.701  19.106  0.00  0.00    +0.000 NA
ATOM     14  C   UNL     1       0.531   8.737  18.823  0.00  0.00    +0.000 C 
ATOM     15  C   UNL     1       0.469   9.641  20.048  0.00  0.00    +0.000 C 
ENDROOT
BRANCH   1  17
ATOM     16  N   UNL     1      -1.279  10.746  18.458  0.00  0.00    +0.000 N 
ATOM     17  C   UNL     1      -0.322  11.686  18.802  0.00  0.00    +0.000 C 
ATOM     18  O   UNL     1      -0.315  12.872  18.479  0.00  0.00    +0.000 OA
ATOM     19  H   UNL     1      -1.199   9.830  18.885  0.00  0.00    +0.000 HD
BRANCH  16  24
ATOM     20  C   UNL     1      -3.310  10.552  15.364  0.00  0.00    +0.000 A 
ATOM     21  C   UNL     1      -4.520  11.106  15.793  0.00  0.00    +0.000 A 
ATOM     22  C   UNL     1      -4.649  11.593  17.092  0.00  0.00    +0.000 A 
ATOM     23  C   UNL     1      -3.581  11.508  17.985  0.00  0.00    +0.000 A 
ATOM     24  C   UNL     1      -2.380  10.914  17.595  0.00  0.00    +0.000 A 
ATOM     25  C   UNL     1      -2.245  10.455  16.275  0.00  0.00    +0.000 A 
BRANCH  20  27
ATOM     26  C   UNL     1      -4.519   9.858  13.272  0.00  0.00    +0.000 C 
ATOM     27  C   UNL     1      -3.170  10.048  13.949  0.00  0.00    +0.000 C 
ENDBRANCH  20  27
ENDBRANCH  16  24
ENDBRANCH   1  17
BRANCH  11  28
ATOM     28  C   UNL     1       2.273   4.235  20.808  0.00  0.00    +0.000 C 
ATOM     29  F   UNL     1       1.020   4.359  20.290  0.00  0.00    +0.000 F 
ATOM     30  F   UNL     1       2.345   2.975  21.315  0.00  0.00    +0.000 F 
ATOM     31  F   UNL     1       2.323   5.087  21.867  0.00  0.00    +0.000 F 
ENDBRANCH  11  28
TORSDOF 4
ENDMDL
