MODEL 1
REMARK VINA RESULT:      -8.0      0.000      0.000
REMARK  Name = 
REMARK  7 active torsions:
REMARK  status: ('A' for Active; 'I' for Inactive)
REMARK    1  A    between atoms: C_1  and  C_2
REMARK    2  A    between atoms: C_4  and  C_5
REMARK    3  A    between atoms: N_7  and  C_8
REMARK    4  A    between atoms: C_12  and  C_13
REMARK    5  A    between atoms: C_13  and  C_14
REMARK    6  A    between atoms: C_14  and  C_15
REMARK    7  A    between atoms: C_22  and  C_23
REMARK                            x       y       z     vdW  Elec       q    Type
REMARK                         _______ _______ _______ _____ _____    ______ ____
ROOT
ATOM      1  C   UNL     1       1.833   8.624  18.612  0.00  0.00    +0.000 C 
ATOM      2  O   UNL     1       1.977   8.964  17.440  0.00  0.00    +0.000 OA
ATOM      3  N   UNL     1       2.186   7.403  19.163  0.00  0.00    +0.000 N 
ATOM      4  H   UNL     1       1.922   7.276  20.136  0.00  0.00    +0.000 HD
ENDROOT
BRANCH   1   8
ATOM      5  C   UNL     1      -0.332   9.649  22.970  0.00  0.00    +0.000 C 
ATOM      6  C   UNL     1       0.159  10.025  21.606  0.00  0.00    +0.000 A 
ATOM      7  C   UNL     1       0.739   9.105  20.773  0.00  0.00    +0.000 A 
ATOM      8  C   UNL     1       1.176   9.587  19.557  0.00  0.00    +0.000 A 
ATOM      9  N   UNL     1       1.075  10.879  19.161  0.00  0.00    +0.000 NA
ATOM     10  C   UNL     1       0.490  11.713  20.045  0.00  0.00    +0.000 A 
ATOM     11  N   UNL     1       0.028  11.315  21.251  0.00  0.00    +0.000 NA
BRANCH  10  12
ATOM     12  C   UNL     1       0.338  13.181  19.729  0.00  0.00    +0.000 C 
ATOM     13  C   UNL     1       1.100  13.861  18.621  0.00  0.00    +0.000 C 
ATOM     14  C   UNL     1       1.505  14.095  20.045  0.00  0.00    +0.000 C 
ENDBRANCH  10  12
ENDBRANCH   1   8
BRANCH   3  15
ATOM     15  C   UNL     1       2.798   6.323  18.488  0.00  0.00    +0.000 A 
ATOM     16  C   UNL     1       2.102   5.187  18.073  0.00  0.00    +0.000 A 
ATOM     17  C   UNL     1       2.762   4.149  17.418  0.00  0.00    +0.000 A 
ATOM     18  C   UNL     1       4.128   4.245  17.160  0.00  0.00    +0.000 A 
ATOM     19  C   UNL     1       4.880   5.375  17.540  0.00  0.00    +0.000 A 
ATOM     20  C   UNL     1       4.173   6.403  18.212  0.00  0.00    +0.000 A 
BRANCH  19  21
ATOM     21  C   UNL     1       6.442   5.483  17.186  0.00  0.00    +0.000 C 
ATOM     22  C   UNL     1       6.958   4.545  16.051  0.00  0.00    +0.000 C 
ATOM     23  O   UNL     1       8.132   4.202  16.826  0.00  0.00    +0.000 OA
ATOM     24  C   UNL     1       7.472   4.680  18.028  0.00  0.00    +0.000 C 
BRANCH  21  25
ATOM     25  C   UNL     1       6.852   6.949  16.920  0.00  0.00    +0.000 C 
BRANCH  25  26
ATOM     26  C   UNL     1       7.830   7.488  17.952  0.00  0.00    +0.000 C 
ATOM     27  F   UNL     1       7.854   8.846  17.893  0.00  0.00    +0.000 F 
ENDBRANCH  25  26
ENDBRANCH  21  25
ENDBRANCH  19  21
ENDBRANCH   3  15
TORSDOF 6
ENDMDL
MODEL 2
REMARK VINA RESULT:      -7.9      1.206      2.665
REMARK  Name = 
REMARK  7 active torsions:
REMARK  status: ('A' for Active; 'I' for Inactive)
REMARK    1  A    between atoms: C_1  and  C_2
REMARK    2  A    between atoms: C_4  and  C_5
REMARK    3  A    between atoms: N_7  and  C_8
REMARK    4  A    between atoms: C_12  and  C_13
REMARK    5  A    between atoms: C_13  and  C_14
REMARK    6  A    between atoms: C_14  and  C_15
REMARK    7  A    between atoms: C_22  and  C_23
REMARK                            x       y       z     vdW  Elec       q    Type
REMARK                         _______ _______ _______ _____ _____    ______ ____
ROOT
ATOM      1  C   UNL     1       2.238   8.217  18.225  0.00  0.00    +0.000 C 
ATOM      2  O   UNL     1       2.869   8.619  17.251  0.00  0.00    +0.000 OA
ATOM      3  N   UNL     1       2.171   6.909  18.678  0.00  0.00    +0.000 N 
ATOM      4  H   UNL     1       1.538   6.754  19.458  0.00  0.00    +0.000 HD
ENDROOT
BRANCH   1   8
ATOM      5  C   UNL     1       0.221  12.731  18.749  0.00  0.00    +0.000 C 
ATOM      6  C   UNL     1       0.498  11.334  19.212  0.00  0.00    +0.000 A 
ATOM      7  C   UNL     1       1.266  10.472  18.476  0.00  0.00    +0.000 A 
ATOM      8  C   UNL     1       1.418   9.205  19.000  0.00  0.00    +0.000 A 
ATOM      9  N   UNL     1       0.860   8.781  20.159  0.00  0.00    +0.000 NA
ATOM     10  C   UNL     1       0.121   9.698  20.818  0.00  0.00    +0.000 A 
ATOM     11  N   UNL     1      -0.067  10.961  20.374  0.00  0.00    +0.000 NA
BRANCH  10  12
ATOM     12  C   UNL     1      -0.571   9.340  22.110  0.00  0.00    +0.000 C 
ATOM     13  C   UNL     1      -0.945  10.368  23.148  0.00  0.00    +0.000 C 
ATOM     14  C   UNL     1       0.225   9.463  23.394  0.00  0.00    +0.000 C 
ENDBRANCH  10  12
ENDBRANCH   1   8
BRANCH   3  15
ATOM     15  C   UNL     1       2.830   5.791  18.117  0.00  0.00    +0.000 A 
ATOM     16  C   UNL     1       2.194   4.575  17.864  0.00  0.00    +0.000 A 
ATOM     17  C   UNL     1       2.899   3.505  17.317  0.00  0.00    +0.000 A 
ATOM     18  C   UNL     1       4.249   3.647  17.003  0.00  0.00    +0.000 A 
ATOM     19  C   UNL     1       4.940   4.856  17.219  0.00  0.00    +0.000 A 
ATOM     20  C   UNL     1       4.189   5.917  17.787  0.00  0.00    +0.000 A 
BRANCH  19  21
ATOM     21  C   UNL     1       6.483   5.010  16.804  0.00  0.00    +0.000 C 
ATOM     22  C   UNL     1       6.883   6.360  16.131  0.00  0.00    +0.000 C 
ATOM     23  O   UNL     1       7.671   5.665  15.135  0.00  0.00    +0.000 OA
ATOM     24  C   UNL     1       6.968   4.433  15.445  0.00  0.00    +0.000 C 
BRANCH  21  25
ATOM     25  C   UNL     1       7.414   4.688  17.994  0.00  0.00    +0.000 C 
BRANCH  25  26
ATOM     26  C   UNL     1       7.390   5.760  19.072  0.00  0.00    +0.000 C 
ATOM     27  F   UNL     1       8.469   6.575  18.931  0.00  0.00    +0.000 F 
ENDBRANCH  25  26
ENDBRANCH  21  25
ENDBRANCH  19  21
ENDBRANCH   3  15
TORSDOF 6
ENDMDL
MODEL 3
REMARK VINA RESULT:      -7.9      1.110      1.444
REMARK  Name = 
REMARK  7 active torsions:
REMARK  status: ('A' for Active; 'I' for Inactive)
REMARK    1  A    between atoms: C_1  and  C_2
REMARK    2  A    between atoms: C_4  and  C_5
REMARK    3  A    between atoms: N_7  and  C_8
REMARK    4  A    between atoms: C_12  and  C_13
REMARK    5  A    between atoms: C_13  and  C_14
REMARK    6  A    between atoms: C_14  and  C_15
REMARK    7  A    between atoms: C_22  and  C_23
REMARK                            x       y       z     vdW  Elec       q    Type
REMARK                         _______ _______ _______ _____ _____    ______ ____
ROOT
ATOM      1  C   UNL     1       2.023   8.356  18.452  0.00  0.00    +0.000 C 
ATOM      2  O   UNL     1       2.272   8.700  17.300  0.00  0.00    +0.000 OA
ATOM      3  N   UNL     1       2.230   7.098  18.996  0.00  0.00    +0.000 N 
ATOM      4  H   UNL     1       1.893   6.979  19.948  0.00  0.00    +0.000 HD
ENDROOT
BRANCH   1   8
ATOM      5  C   UNL     1      -0.066   9.549  22.804  0.00  0.00    +0.000 C 
ATOM      6  C   UNL     1       0.414   9.874  21.423  0.00  0.00    +0.000 A 
ATOM      7  C   UNL     1       0.966   8.920  20.611  0.00  0.00    +0.000 A 
ATOM      8  C   UNL     1       1.396   9.358  19.375  0.00  0.00    +0.000 A 
ATOM      9  N   UNL     1       1.311  10.639  18.942  0.00  0.00    +0.000 NA
ATOM     10  C   UNL     1       0.752  11.509  19.808  0.00  0.00    +0.000 A 
ATOM     11  N   UNL     1       0.299  11.156  21.031  0.00  0.00    +0.000 NA
BRANCH  10  12
ATOM     12  C   UNL     1       0.621  12.969  19.450  0.00  0.00    +0.000 C 
ATOM     13  C   UNL     1      -0.561  13.809  19.863  0.00  0.00    +0.000 C 
ATOM     14  C   UNL     1      -0.440  13.356  18.440  0.00  0.00    +0.000 C 
ENDBRANCH  10  12
ENDBRANCH   1   8
BRANCH   3  15
ATOM     15  C   UNL     1       2.786   5.978  18.336  0.00  0.00    +0.000 A 
ATOM     16  C   UNL     1       2.043   4.849  17.990  0.00  0.00    +0.000 A 
ATOM     17  C   UNL     1       2.649   3.771  17.347  0.00  0.00    +0.000 A 
ATOM     18  C   UNL     1       4.005   3.820  17.031  0.00  0.00    +0.000 A 
ATOM     19  C   UNL     1       4.802   4.941  17.340  0.00  0.00    +0.000 A 
ATOM     20  C   UNL     1       4.149   6.012  18.003  0.00  0.00    +0.000 A 
BRANCH  19  21
ATOM     21  C   UNL     1       6.350   4.993  16.921  0.00  0.00    +0.000 C 
ATOM     22  C   UNL     1       6.823   6.289  16.193  0.00  0.00    +0.000 C 
ATOM     23  O   UNL     1       7.572   5.510  15.229  0.00  0.00    +0.000 OA
ATOM     24  C   UNL     1       6.804   4.332  15.590  0.00  0.00    +0.000 C 
BRANCH  21  25
ATOM     25  C   UNL     1       7.263   4.674  18.127  0.00  0.00    +0.000 C 
BRANCH  25  26
ATOM     26  C   UNL     1       7.706   5.917  18.882  0.00  0.00    +0.000 C 
ATOM     27  F   UNL     1       7.875   5.618  20.196  0.00  0.00    +0.000 F 
ENDBRANCH  25  26
ENDBRANCH  21  25
ENDBRANCH  19  21
ENDBRANCH   3  15
TORSDOF 6
ENDMDL
MODEL 4
REMARK VINA RESULT:      -7.8      1.611      2.098
REMARK  Name = 
REMARK  7 active torsions:
REMARK  status: ('A' for Active; 'I' for Inactive)
REMARK    1  A    between atoms: C_1  and  C_2
REMARK    2  A    between atoms: C_4  and  C_5
REMARK    3  A    between atoms: N_7  and  C_8
REMARK    4  A    between atoms: C_12  and  C_13
REMARK    5  A    between atoms: C_13  and  C_14
REMARK    6  A    between atoms: C_14  and  C_15
REMARK    7  A    between atoms: C_22  and  C_23
REMARK                            x       y       z     vdW  Elec       q    Type
REMARK                         _______ _______ _______ _____ _____    ______ ____
ROOT
ATOM      1  C   UNL     1       1.969   8.337  18.374  0.00  0.00    +0.000 C 
ATOM      2  O   UNL     1       2.273   8.645  17.224  0.00  0.00    +0.000 OA
ATOM      3  N   UNL     1       2.061   7.075  18.938  0.00  0.00    +0.000 N 
ATOM      4  H   UNL     1       1.693   6.996  19.882  0.00  0.00    +0.000 HD
ENDROOT
BRANCH   1   8
ATOM      5  C   UNL     1      -0.044   9.767  22.689  0.00  0.00    +0.000 C 
ATOM      6  C   UNL     1       0.453  10.027  21.301  0.00  0.00    +0.000 A 
ATOM      7  C   UNL     1       0.948   9.020  20.515  0.00  0.00    +0.000 A 
ATOM      8  C   UNL     1       1.402   9.399  19.269  0.00  0.00    +0.000 A 
ATOM      9  N   UNL     1       1.392  10.670  18.801  0.00  0.00    +0.000 NA
ATOM     10  C   UNL     1       0.885  11.595  19.642  0.00  0.00    +0.000 A 
ATOM     11  N   UNL     1       0.413  11.302  20.874  0.00  0.00    +0.000 NA
BRANCH  10  12
ATOM     12  C   UNL     1       0.839  13.050  19.244  0.00  0.00    +0.000 C 
ATOM     13  C   UNL     1      -0.184  14.014  19.790  0.00  0.00    +0.000 C 
ATOM     14  C   UNL     1      -0.320  13.510  18.385  0.00  0.00    +0.000 C 
ENDBRANCH  10  12
ENDBRANCH   1   8
BRANCH   3  15
ATOM     15  C   UNL     1       2.541   5.905  18.305  0.00  0.00    +0.000 A 
ATOM     16  C   UNL     1       1.750   4.777  18.082  0.00  0.00    +0.000 A 
ATOM     17  C   UNL     1       2.282   3.649  17.460  0.00  0.00    +0.000 A 
ATOM     18  C   UNL     1       3.611   3.645  17.043  0.00  0.00    +0.000 A 
ATOM     19  C   UNL     1       4.453   4.760  17.226  0.00  0.00    +0.000 A 
ATOM     20  C   UNL     1       3.876   5.883  17.871  0.00  0.00    +0.000 A 
BRANCH  19  21
ATOM     21  C   UNL     1       5.966   4.749  16.692  0.00  0.00    +0.000 C 
ATOM     22  C   UNL     1       7.081   4.705  17.782  0.00  0.00    +0.000 C 
ATOM     23  O   UNL     1       7.849   5.714  17.082  0.00  0.00    +0.000 OA
ATOM     24  C   UNL     1       6.661   6.092  16.336  0.00  0.00    +0.000 C 
BRANCH  21  25
ATOM     25  C   UNL     1       6.177   3.634  15.642  0.00  0.00    +0.000 C 
BRANCH  25  26
ATOM     26  C   UNL     1       6.240   4.164  14.218  0.00  0.00    +0.000 C 
ATOM     27  F   UNL     1       4.985   4.248  13.705  0.00  0.00    +0.000 F 
ENDBRANCH  25  26
ENDBRANCH  21  25
ENDBRANCH  19  21
ENDBRANCH   3  15
TORSDOF 6
ENDMDL
MODEL 5
REMARK VINA RESULT:      -7.8      1.888      2.913
REMARK  Name = 
REMARK  7 active torsions:
REMARK  status: ('A' for Active; 'I' for Inactive)
REMARK    1  A    between atoms: C_1  and  C_2
REMARK    2  A    between atoms: C_4  and  C_5
REMARK    3  A    between atoms: N_7  and  C_8
REMARK    4  A    between atoms: C_12  and  C_13
REMARK    5  A    between atoms: C_13  and  C_14
REMARK    6  A    between atoms: C_14  and  C_15
REMARK    7  A    between atoms: C_22  and  C_23
REMARK                            x       y       z     vdW  Elec       q    Type
REMARK                         _______ _______ _______ _____ _____    ______ ____
ROOT
ATOM      1  C   UNL     1       1.781   8.545  18.226  0.00  0.00    +0.000 C 
ATOM      2  O   UNL     1       2.344   8.922  17.201  0.00  0.00    +0.000 OA
ATOM      3  N   UNL     1       1.884   7.291  18.805  0.00  0.00    +0.000 N 
ATOM      4  H   UNL     1       1.285   7.137  19.612  0.00  0.00    +0.000 HD
ENDROOT
BRANCH   1   8
ATOM      5  C   UNL     1      -1.990  11.785  18.140  0.00  0.00    +0.000 C 
ATOM      6  C   UNL     1      -0.911  11.016  18.837  0.00  0.00    +0.000 A 
ATOM      7  C   UNL     1      -0.078  10.169  18.156  0.00  0.00    +0.000 A 
ATOM      8  C   UNL     1       0.854   9.497  18.921  0.00  0.00    +0.000 A 
ATOM      9  N   UNL     1       0.977   9.621  20.265  0.00  0.00    +0.000 NA
ATOM     10  C   UNL     1       0.116  10.478  20.851  0.00  0.00    +0.000 A 
ATOM     11  N   UNL     1      -0.818  11.178  20.169  0.00  0.00    +0.000 NA
BRANCH  10  12
ATOM     12  C   UNL     1       0.139  10.685  22.345  0.00  0.00    +0.000 C 
ATOM     13  C   UNL     1      -0.038   9.557  23.330  0.00  0.00    +0.000 C 
ATOM     14  C   UNL     1      -1.164  10.519  23.101  0.00  0.00    +0.000 C 
ENDBRANCH  10  12
ENDBRANCH   1   8
BRANCH   3  15
ATOM     15  C   UNL     1       2.670   6.212  18.339  0.00  0.00    +0.000 A 
ATOM     16  C   UNL     1       2.134   4.980  17.965  0.00  0.00    +0.000 A 
ATOM     17  C   UNL     1       2.962   3.950  17.521  0.00  0.00    +0.000 A 
ATOM     18  C   UNL     1       4.338   4.151  17.435  0.00  0.00    +0.000 A 
ATOM     19  C   UNL     1       4.935   5.380  17.783  0.00  0.00    +0.000 A 
ATOM     20  C   UNL     1       4.059   6.397  18.239  0.00  0.00    +0.000 A 
BRANCH  19  21
ATOM     21  C   UNL     1       6.517   5.601  17.628  0.00  0.00    +0.000 C 
ATOM     22  C   UNL     1       7.327   5.733  18.955  0.00  0.00    +0.000 C 
ATOM     23  O   UNL     1       8.082   6.847  18.419  0.00  0.00    +0.000 OA
ATOM     24  C   UNL     1       7.068   7.036  17.396  0.00  0.00    +0.000 C 
BRANCH  21  25
ATOM     25  C   UNL     1       7.141   4.530  16.705  0.00  0.00    +0.000 C 
BRANCH  25  26
ATOM     26  C   UNL     1       7.142   4.938  15.239  0.00  0.00    +0.000 C 
ATOM     27  F   UNL     1       5.981   4.545  14.654  0.00  0.00    +0.000 F 
ENDBRANCH  25  26
ENDBRANCH  21  25
ENDBRANCH  19  21
ENDBRANCH   3  15
TORSDOF 6
ENDMDL
MODEL 6
REMARK VINA RESULT:      -7.7      3.063      4.462
REMARK  Name = 
REMARK  7 active torsions:
REMARK  status: ('A' for Active; 'I' for Inactive)
REMARK    1  A    between atoms: C_1  and  C_2
REMARK    2  A    between atoms: C_4  and  C_5
REMARK    3  A    between atoms: N_7  and  C_8
REMARK    4  A    between atoms: C_12  and  C_13
REMARK    5  A    between atoms: C_13  and  C_14
REMARK    6  A    between atoms: C_14  and  C_15
REMARK    7  A    between atoms: C_22  and  C_23
REMARK                            x       y       z     vdW  Elec       q    Type
REMARK                         _______ _______ _______ _____ _____    ______ ____
ROOT
ATOM      1  C   UNL     1       1.496   8.945  18.939  0.00  0.00    +0.000 C 
ATOM      2  O   UNL     1       1.631   8.506  20.078  0.00  0.00    +0.000 OA
ATOM      3  N   UNL     1       2.078   8.437  17.788  0.00  0.00    +0.000 N 
ATOM      4  H   UNL     1       1.911   8.979  16.945  0.00  0.00    +0.000 HD
ENDROOT
BRANCH   1   8
ATOM      5  C   UNL     1       0.848  13.864  19.275  0.00  0.00    +0.000 C 
ATOM      6  C   UNL     1       0.391  12.481  18.926  0.00  0.00    +0.000 A 
ATOM      7  C   UNL     1       1.187  11.387  19.138  0.00  0.00    +0.000 A 
ATOM      8  C   UNL     1       0.659  10.175  18.744  0.00  0.00    +0.000 A 
ATOM      9  N   UNL     1      -0.558  10.017  18.170  0.00  0.00    +0.000 NA
ATOM     10  C   UNL     1      -1.272  11.149  18.002  0.00  0.00    +0.000 A 
ATOM     11  N   UNL     1      -0.828  12.371  18.370  0.00  0.00    +0.000 NA
BRANCH  10  12
ATOM     12  C   UNL     1      -2.635  11.107  17.355  0.00  0.00    +0.000 C 
ATOM     13  C   UNL     1      -3.272   9.827  16.876  0.00  0.00    +0.000 C 
ATOM     14  C   UNL     1      -2.704  10.787  15.875  0.00  0.00    +0.000 C 
ENDBRANCH  10  12
ENDBRANCH   1   8
BRANCH   3  15
ATOM     15  C   UNL     1       2.922   7.306  17.703  0.00  0.00    +0.000 A 
ATOM     16  C   UNL     1       4.250   7.371  17.282  0.00  0.00    +0.000 A 
ATOM     17  C   UNL     1       5.030   6.219  17.210  0.00  0.00    +0.000 A 
ATOM     18  C   UNL     1       4.489   4.988  17.574  0.00  0.00    +0.000 A 
ATOM     19  C   UNL     1       3.159   4.862  18.024  0.00  0.00    +0.000 A 
ATOM     20  C   UNL     1       2.397   6.056  18.073  0.00  0.00    +0.000 A 
BRANCH  19  21
ATOM     21  C   UNL     1       2.576   3.440  18.485  0.00  0.00    +0.000 C 
ATOM     22  C   UNL     1       3.438   2.641  19.511  0.00  0.00    +0.000 C 
ATOM     23  O   UNL     1       3.236   1.413  18.770  0.00  0.00    +0.000 OA
ATOM     24  C   UNL     1       2.839   2.185  17.606  0.00  0.00    +0.000 C 
BRANCH  21  25
ATOM     25  C   UNL     1       1.116   3.570  18.975  0.00  0.00    +0.000 C 
BRANCH  25  26
ATOM     26  C   UNL     1       1.010   3.766  20.479  0.00  0.00    +0.000 C 
ATOM     27  F   UNL     1       0.940   5.093  20.764  0.00  0.00    +0.000 F 
ENDBRANCH  25  26
ENDBRANCH  21  25
ENDBRANCH  19  21
ENDBRANCH   3  15
TORSDOF 6
ENDMDL
MODEL 7
REMARK VINA RESULT:      -7.7      1.510      1.907
REMARK  Name = 
REMARK  7 active torsions:
REMARK  status: ('A' for Active; 'I' for Inactive)
REMARK    1  A    between atoms: C_1  and  C_2
REMARK    2  A    between atoms: C_4  and  C_5
REMARK    3  A    between atoms: N_7  and  C_8
REMARK    4  A    between atoms: C_12  and  C_13
REMARK    5  A    between atoms: C_13  and  C_14
REMARK    6  A    between atoms: C_14  and  C_15
REMARK    7  A    between atoms: C_22  and  C_23
REMARK                            x       y       z     vdW  Elec       q    Type
REMARK                         _______ _______ _______ _____ _____    ______ ____
ROOT
ATOM      1  C   UNL     1       1.826   8.549  18.836  0.00  0.00    +0.000 C 
ATOM      2  O   UNL     1       2.204   9.012  17.764  0.00  0.00    +0.000 OA
ATOM      3  N   UNL     1       2.050   7.263  19.301  0.00  0.00    +0.000 N 
ATOM      4  H   UNL     1       1.595   7.036  20.182  0.00  0.00    +0.000 HD
ENDROOT
BRANCH   1   8
ATOM      5  C   UNL     1      -0.162   9.560  23.281  0.00  0.00    +0.000 C 
ATOM      6  C   UNL     1       0.083   9.855  21.833  0.00  0.00    +0.000 A 
ATOM      7  C   UNL     1       0.828   9.019  21.046  0.00  0.00    +0.000 A 
ATOM      8  C   UNL     1       1.004   9.421  19.738  0.00  0.00    +0.000 A 
ATOM      9  N   UNL     1       0.502  10.565  19.213  0.00  0.00    +0.000 NA
ATOM     10  C   UNL     1      -0.220  11.326  20.061  0.00  0.00    +0.000 A 
ATOM     11  N   UNL     1      -0.444  10.995  21.352  0.00  0.00    +0.000 NA
BRANCH  10  12
ATOM     12  C   UNL     1      -0.813  12.635  19.601  0.00  0.00    +0.000 C 
ATOM     13  C   UNL     1      -0.598  13.187  18.214  0.00  0.00    +0.000 C 
ATOM     14  C   UNL     1       0.132  13.797  19.372  0.00  0.00    +0.000 C 
ENDBRANCH  10  12
ENDBRANCH   1   8
BRANCH   3  15
ATOM     15  C   UNL     1       2.773   6.244  18.639  0.00  0.00    +0.000 A 
ATOM     16  C   UNL     1       2.171   5.115  18.085  0.00  0.00    +0.000 A 
ATOM     17  C   UNL     1       2.938   4.139  17.452  0.00  0.00    +0.000 A 
ATOM     18  C   UNL     1       4.320   4.294  17.354  0.00  0.00    +0.000 A 
ATOM     19  C   UNL     1       4.982   5.422  17.879  0.00  0.00    +0.000 A 
ATOM     20  C   UNL     1       4.166   6.385  18.524  0.00  0.00    +0.000 A 
BRANCH  19  21
ATOM     21  C   UNL     1       6.568   5.601  17.710  0.00  0.00    +0.000 C 
ATOM     22  C   UNL     1       7.392   5.718  19.029  0.00  0.00    +0.000 C 
ATOM     23  O   UNL     1       8.171   6.809  18.481  0.00  0.00    +0.000 OA
ATOM     24  C   UNL     1       7.155   7.019  17.465  0.00  0.00    +0.000 C 
BRANCH  21  25
ATOM     25  C   UNL     1       7.155   4.508  16.788  0.00  0.00    +0.000 C 
BRANCH  25  26
ATOM     26  C   UNL     1       7.060   4.863  15.312  0.00  0.00    +0.000 C 
ATOM     27  F   UNL     1       6.593   3.795  14.614  0.00  0.00    +0.000 F 
ENDBRANCH  25  26
ENDBRANCH  21  25
ENDBRANCH  19  21
ENDBRANCH   3  15
TORSDOF 6
ENDMDL
MODEL 8
REMARK VINA RESULT:      -7.7      3.979      9.094
REMARK  Name = 
REMARK  7 active torsions:
REMARK  status: ('A' for Active; 'I' for Inactive)
REMARK    1  A    between atoms: C_1  and  C_2
REMARK    2  A    between atoms: C_4  and  C_5
REMARK    3  A    between atoms: N_7  and  C_8
REMARK    4  A    between atoms: C_12  and  C_13
REMARK    5  A    between atoms: C_13  and  C_14
REMARK    6  A    between atoms: C_14  and  C_15
REMARK    7  A    between atoms: C_22  and  C_23
REMARK                            x       y       z     vdW  Elec       q    Type
REMARK                         _______ _______ _______ _____ _____    ______ ____
ROOT
ATOM      1  C   UNL     1       2.287   7.530  18.632  0.00  0.00    +0.000 C 
ATOM      2  O   UNL     1       2.063   7.492  19.839  0.00  0.00    +0.000 OA
ATOM      3  N   UNL     1       1.832   8.491  17.743  0.00  0.00    +0.000 N 
ATOM      4  H   UNL     1       2.057   8.316  16.767  0.00  0.00    +0.000 HD
ENDROOT
BRANCH   1   8
ATOM      5  C   UNL     1       6.432   5.865  16.450  0.00  0.00    +0.000 C 
ATOM      6  C   UNL     1       5.049   5.684  16.994  0.00  0.00    +0.000 A 
ATOM      7  C   UNL     1       4.345   6.730  17.528  0.00  0.00    +0.000 A 
ATOM      8  C   UNL     1       3.094   6.423  18.022  0.00  0.00    +0.000 A 
ATOM      9  N   UNL     1       2.549   5.183  18.016  0.00  0.00    +0.000 NA
ATOM     10  C   UNL     1       3.313   4.215  17.469  0.00  0.00    +0.000 A 
ATOM     11  N   UNL     1       4.543   4.438  16.956  0.00  0.00    +0.000 NA
BRANCH  10  12
ATOM     12  C   UNL     1       2.826   2.788  17.423  0.00  0.00    +0.000 C 
ATOM     13  C   UNL     1       1.898   2.207  18.460  0.00  0.00    +0.000 C 
ATOM     14  C   UNL     1       3.348   1.829  18.473  0.00  0.00    +0.000 C 
ENDBRANCH  10  12
ENDBRANCH   1   8
BRANCH   3  15
ATOM     15  C   UNL     1       1.041   9.619  18.057  0.00  0.00    +0.000 A 
ATOM     16  C   UNL     1       1.530  10.726  18.752  0.00  0.00    +0.000 A 
ATOM     17  C   UNL     1       0.699  11.807  19.041  0.00  0.00    +0.000 A 
ATOM     18  C   UNL     1      -0.630  11.795  18.622  0.00  0.00    +0.000 A 
ATOM     19  C   UNL     1      -1.175  10.713  17.902  0.00  0.00    +0.000 A 
ATOM     20  C   UNL     1      -0.299   9.630  17.639  0.00  0.00    +0.000 A 
BRANCH  19  21
ATOM     21  C   UNL     1      -2.695  10.745  17.389  0.00  0.00    +0.000 C 
ATOM     22  C   UNL     1      -3.691  11.594  18.239  0.00  0.00    +0.000 C 
ATOM     23  O   UNL     1      -4.691  10.548  18.167  0.00  0.00    +0.000 OA
ATOM     24  C   UNL     1      -3.661   9.596  17.790  0.00  0.00    +0.000 C 
BRANCH  21  25
ATOM     25  C   UNL     1      -2.770  11.138  15.896  0.00  0.00    +0.000 C 
BRANCH  25  26
ATOM     26  C   UNL     1      -2.955   9.942  14.976  0.00  0.00    +0.000 C 
ATOM     27  F   UNL     1      -3.927  10.211  14.065  0.00  0.00    +0.000 F 
ENDBRANCH  25  26
ENDBRANCH  21  25
ENDBRANCH  19  21
ENDBRANCH   3  15
TORSDOF 6
ENDMDL
MODEL 9
REMARK VINA RESULT:      -7.6      3.406      8.572
REMARK  Name = 
REMARK  7 active torsions:
REMARK  status: ('A' for Active; 'I' for Inactive)
REMARK    1  A    between atoms: C_1  and  C_2
REMARK    2  A    between atoms: C_4  and  C_5
REMARK    3  A    between atoms: N_7  and  C_8
REMARK    4  A    between atoms: C_12  and  C_13
REMARK    5  A    between atoms: C_13  and  C_14
REMARK    6  A    between atoms: C_14  and  C_15
REMARK    7  A    between atoms: C_22  and  C_23
REMARK                            x       y       z     vdW  Elec       q    Type
REMARK                         _______ _______ _______ _____ _____    ______ ____
ROOT
ATOM      1  C   UNL     1       2.064   5.991  20.221  0.00  0.00    +0.000 C 
ATOM      2  O   UNL     1       1.138   5.431  20.802  0.00  0.00    +0.000 OA
ATOM      3  N   UNL     1       2.247   7.359  20.093  0.00  0.00    +0.000 N 
ATOM      4  H   UNL     1       3.033   7.637  19.512  0.00  0.00    +0.000 HD
ENDROOT
BRANCH   1   8
ATOM      5  C   UNL     1       3.588   1.617  18.412  0.00  0.00    +0.000 C 
ATOM      6  C   UNL     1       3.775   3.073  18.711  0.00  0.00    +0.000 A 
ATOM      7  C   UNL     1       2.810   3.804  19.351  0.00  0.00    +0.000 A 
ATOM      8  C   UNL     1       3.094   5.141  19.539  0.00  0.00    +0.000 A 
ATOM      9  N   UNL     1       4.234   5.749  19.129  0.00  0.00    +0.000 NA
ATOM     10  C   UNL     1       5.127   4.950  18.509  0.00  0.00    +0.000 A 
ATOM     11  N   UNL     1       4.926   3.631  18.297  0.00  0.00    +0.000 NA
BRANCH  10  12
ATOM     12  C   UNL     1       6.426   5.514  17.987  0.00  0.00    +0.000 C 
ATOM     13  C   UNL     1       7.664   4.674  17.797  0.00  0.00    +0.000 C 
ATOM     14  C   UNL     1       7.587   5.623  18.954  0.00  0.00    +0.000 C 
ENDBRANCH  10  12
ENDBRANCH   1   8
BRANCH   3  15
ATOM     15  C   UNL     1       1.413   8.371  20.622  0.00  0.00    +0.000 A 
ATOM     16  C   UNL     1       1.210   8.557  21.990  0.00  0.00    +0.000 A 
ATOM     17  C   UNL     1       0.369   9.567  22.452  0.00  0.00    +0.000 A 
ATOM     18  C   UNL     1      -0.268  10.412  21.546  0.00  0.00    +0.000 A 
ATOM     19  C   UNL     1      -0.087  10.284  20.154  0.00  0.00    +0.000 A 
ATOM     20  C   UNL     1       0.768   9.237  19.725  0.00  0.00    +0.000 A 
BRANCH  19  21
ATOM     21  C   UNL     1      -0.793  11.302  19.133  0.00  0.00    +0.000 C 
ATOM     22  C   UNL     1       0.067  12.517  18.667  0.00  0.00    +0.000 C 
ATOM     23  O   UNL     1      -1.052  13.418  18.847  0.00  0.00    +0.000 OA
ATOM     24  C   UNL     1      -1.705  12.431  19.689  0.00  0.00    +0.000 C 
BRANCH  21  25
ATOM     25  C   UNL     1      -1.389  10.550  17.922  0.00  0.00    +0.000 C 
BRANCH  25  26
ATOM     26  C   UNL     1      -2.908  10.478  17.956  0.00  0.00    +0.000 C 
ATOM     27  F   UNL     1      -3.324   9.320  17.381  0.00  0.00    +0.000 F 
ENDBRANCH  25  26
ENDBRANCH  21  25
ENDBRANCH  19  21
ENDBRANCH   3  15
TORSDOF 6
ENDMDL
