MODEL 1
REMARK VINA RESULT:      -8.6      0.000      0.000
REMARK  Name = 
REMARK  5 active torsions:
REMARK  status: ('A' for Active; 'I' for Inactive)
REMARK    1  A    between atoms: C_1  and  C_2
REMARK    2  A    between atoms: C_4  and  C_5
REMARK    3  A    between atoms: N_7  and  C_8
REMARK    4  A    between atoms: C_8  and  C_9
REMARK    5  A    between atoms: C_9  and  O_11
REMARK                            x       y       z     vdW  Elec       q    Type
REMARK                         _______ _______ _______ _____ _____    ______ ____
ROOT
ATOM      1  C   UNL     1       1.896   7.975  19.412  0.00  0.00    +0.000 C 
ATOM      2  O   UNL     1       1.866   8.130  20.625  0.00  0.00    +0.000 OA
ATOM      3  N   UNL     1       1.332   8.929  18.598  0.00  0.00    +0.000 N 
ATOM      4  H   UNL     1       1.701   8.975  17.656  0.00  0.00    +0.000 HD
ENDROOT
BRANCH   1   8
ATOM      5  C   UNL     1       5.331   6.348  16.086  0.00  0.00    +0.000 C 
ATOM      6  C   UNL     1       4.289   6.115  17.142  0.00  0.00    +0.000 A 
ATOM      7  C   UNL     1       3.614   7.153  17.765  0.00  0.00    +0.000 A 
ATOM      8  C   UNL     1       2.637   6.847  18.730  0.00  0.00    +0.000 A 
ATOM      9  C   UNL     1       2.349   5.485  19.026  0.00  0.00    +0.000 A 
ATOM     10  C   UNL     1       1.393   5.017  19.967  0.00  0.00    +0.000 A 
ATOM     11  C   UNL     1       1.167   3.657  20.159  0.00  0.00    +0.000 A 
ATOM     12  C   UNL     1       1.903   2.741  19.432  0.00  0.00    +0.000 A 
ATOM     13  F   UNL     1       1.681   1.432  19.598  0.00  0.00    +0.000 F 
ATOM     14  C   UNL     1       2.861   3.165  18.532  0.00  0.00    +0.000 A 
ATOM     15  C   UNL     1       3.096   4.515  18.318  0.00  0.00    +0.000 A 
ATOM     16  N   UNL     1       4.036   4.823  17.419  0.00  0.00    +0.000 NA
ENDBRANCH   1   8
BRANCH   3  17
ATOM     17  C   UNL     1       0.715  10.212  19.059  0.00  0.00    +0.000 C 
ATOM     18  C   UNL     1       0.386  10.385  20.578  0.00  0.00    +0.000 C 
ATOM     19  C   UNL     1      -0.852  11.247  20.537  0.00  0.00    +0.000 A 
ATOM     20  C   UNL     1      -1.416  12.025  21.540  0.00  0.00    +0.000 A 
ATOM     21  C   UNL     1      -2.598  12.723  21.259  0.00  0.00    +0.000 A 
ATOM     22  C   UNL     1      -3.210  12.624  20.002  0.00  0.00    +0.000 A 
ATOM     23  C   UNL     1      -2.637  11.845  18.998  0.00  0.00    +0.000 A 
ATOM     24  C   UNL     1      -1.452  11.184  19.277  0.00  0.00    +0.000 A 
ATOM     25  C   UNL     1      -0.659  10.330  18.347  0.00  0.00    +0.000 C 
BRANCH  17  26
ATOM     26  C   UNL     1       1.673  11.361  18.656  0.00  0.00    +0.000 C 
ATOM     27  O   UNL     1       1.905  12.355  19.329  0.00  0.00    +0.000 OA
BRANCH  26  28
ATOM     28  O   UNL     1       2.266  11.172  17.448  0.00  0.00    +0.000 OA
ATOM     29  H   UNL     1       2.985  10.491  17.477  0.00  0.00    +0.000 HD
ENDBRANCH  26  28
ENDBRANCH  17  26
ENDBRANCH   3  17
TORSDOF 4
ENDMDL
MODEL 2
REMARK VINA RESULT:      -8.5      2.018      3.266
REMARK  Name = 
REMARK  5 active torsions:
REMARK  status: ('A' for Active; 'I' for Inactive)
REMARK    1  A    between atoms: C_1  and  C_2
REMARK    2  A    between atoms: C_4  and  C_5
REMARK    3  A    between atoms: N_7  and  C_8
REMARK    4  A    between atoms: C_8  and  C_9
REMARK    5  A    between atoms: C_9  and  O_11
REMARK                            x       y       z     vdW  Elec       q    Type
REMARK                         _______ _______ _______ _____ _____    ______ ____
ROOT
ATOM      1  C   UNL     1       2.245   7.946  18.333  0.00  0.00    +0.000 C 
ATOM      2  O   UNL     1       2.244   8.312  17.166  0.00  0.00    +0.000 OA
ATOM      3  N   UNL     1       1.532   8.668  19.264  0.00  0.00    +0.000 N 
ATOM      4  H   UNL     1       1.239   8.153  20.086  0.00  0.00    +0.000 HD
ENDROOT
BRANCH   1   8
ATOM      5  C   UNL     1       2.264   3.901  21.357  0.00  0.00    +0.000 C 
ATOM      6  C   UNL     1       2.850   4.744  20.261  0.00  0.00    +0.000 A 
ATOM      7  C   UNL     1       2.259   5.921  19.828  0.00  0.00    +0.000 A 
ATOM      8  C   UNL     1       2.884   6.662  18.809  0.00  0.00    +0.000 A 
ATOM      9  C   UNL     1       4.116   6.201  18.265  0.00  0.00    +0.000 A 
ATOM     10  C   UNL     1       4.869   6.837  17.241  0.00  0.00    +0.000 A 
ATOM     11  C   UNL     1       6.082   6.316  16.800  0.00  0.00    +0.000 A 
ATOM     12  C   UNL     1       6.556   5.144  17.359  0.00  0.00    +0.000 A 
ATOM     13  F   UNL     1       7.731   4.646  16.953  0.00  0.00    +0.000 F 
ATOM     14  C   UNL     1       5.833   4.488  18.336  0.00  0.00    +0.000 A 
ATOM     15  C   UNL     1       4.627   4.994  18.796  0.00  0.00    +0.000 A 
ATOM     16  N   UNL     1       4.009   4.290  19.749  0.00  0.00    +0.000 NA
ENDBRANCH   1   8
BRANCH   3  17
ATOM     17  C   UNL     1       0.678   9.861  18.972  0.00  0.00    +0.000 C 
ATOM     18  C   UNL     1      -0.347  10.335  20.053  0.00  0.00    +0.000 C 
ATOM     19  C   UNL     1      -1.475  10.872  19.206  0.00  0.00    +0.000 A 
ATOM     20  C   UNL     1      -2.503  11.736  19.556  0.00  0.00    +0.000 A 
ATOM     21  C   UNL     1      -3.456  12.068  18.584  0.00  0.00    +0.000 A 
ATOM     22  C   UNL     1      -3.385  11.527  17.293  0.00  0.00    +0.000 A 
ATOM     23  C   UNL     1      -2.348  10.663  16.946  0.00  0.00    +0.000 A 
ATOM     24  C   UNL     1      -1.394  10.365  17.906  0.00  0.00    +0.000 A 
ATOM     25  C   UNL     1      -0.194   9.497  17.741  0.00  0.00    +0.000 C 
BRANCH  17  26
ATOM     26  C   UNL     1       1.626  11.050  18.674  0.00  0.00    +0.000 C 
ATOM     27  O   UNL     1       1.877  11.963  19.449  0.00  0.00    +0.000 OA
BRANCH  26  28
ATOM     28  O   UNL     1       2.186  10.999  17.437  0.00  0.00    +0.000 OA
ATOM     29  H   UNL     1       2.888  10.305  17.363  0.00  0.00    +0.000 HD
ENDBRANCH  26  28
ENDBRANCH  17  26
ENDBRANCH   3  17
TORSDOF 4
ENDMDL
MODEL 3
REMARK VINA RESULT:      -8.4      1.344      1.876
REMARK  Name = 
REMARK  5 active torsions:
REMARK  status: ('A' for Active; 'I' for Inactive)
REMARK    1  A    between atoms: C_1  and  C_2
REMARK    2  A    between atoms: C_4  and  C_5
REMARK    3  A    between atoms: N_7  and  C_8
REMARK    4  A    between atoms: C_8  and  C_9
REMARK    5  A    between atoms: C_9  and  O_11
REMARK                            x       y       z     vdW  Elec       q    Type
REMARK                         _______ _______ _______ _____ _____    ______ ____
ROOT
ATOM      1  C   UNL     1       1.737   8.174  19.708  0.00  0.00    +0.000 C 
ATOM      2  O   UNL     1       1.878   8.419  20.899  0.00  0.00    +0.000 OA
ATOM      3  N   UNL     1       0.949   9.001  18.941  0.00  0.00    +0.000 N 
ATOM      4  H   UNL     1       1.160   9.012  17.950  0.00  0.00    +0.000 HD
ENDROOT
BRANCH   1   8
ATOM      5  C   UNL     1       5.067   6.692  16.212  0.00  0.00    +0.000 C 
ATOM      6  C   UNL     1       4.086   6.416  17.314  0.00  0.00    +0.000 A 
ATOM      7  C   UNL     1       3.403   7.425  17.976  0.00  0.00    +0.000 A 
ATOM      8  C   UNL     1       2.485   7.078  18.984  0.00  0.00    +0.000 A 
ATOM      9  C   UNL     1       2.262   5.705  19.284  0.00  0.00    +0.000 A 
ATOM     10  C   UNL     1       1.368   5.197  20.265  0.00  0.00    +0.000 A 
ATOM     11  C   UNL     1       1.201   3.829  20.458  0.00  0.00    +0.000 A 
ATOM     12  C   UNL     1       1.936   2.945  19.691  0.00  0.00    +0.000 A 
ATOM     13  F   UNL     1       1.769   1.627  19.858  0.00  0.00    +0.000 F 
ATOM     14  C   UNL     1       2.834   3.409  18.749  0.00  0.00    +0.000 A 
ATOM     15  C   UNL     1       3.008   4.767  18.534  0.00  0.00    +0.000 A 
ATOM     16  N   UNL     1       3.893   5.114  17.594  0.00  0.00    +0.000 NA
ENDBRANCH   1   8
BRANCH   3  17
ATOM     17  C   UNL     1       0.271  10.247  19.418  0.00  0.00    +0.000 C 
ATOM     18  C   UNL     1       1.146  11.497  19.757  0.00  0.00    +0.000 C 
ATOM     19  C   UNL     1       0.372  12.128  20.888  0.00  0.00    +0.000 A 
ATOM     20  C   UNL     1       0.434  13.425  21.381  0.00  0.00    +0.000 A 
ATOM     21  C   UNL     1      -0.379  13.764  22.470  0.00  0.00    +0.000 A 
ATOM     22  C   UNL     1      -1.221  12.814  23.063  0.00  0.00    +0.000 A 
ATOM     23  C   UNL     1      -1.282  11.515  22.562  0.00  0.00    +0.000 A 
ATOM     24  C   UNL     1      -0.497  11.199  21.465  0.00  0.00    +0.000 A 
ATOM     25  C   UNL     1      -0.432   9.889  20.754  0.00  0.00    +0.000 C 
BRANCH  17  26
ATOM     26  C   UNL     1      -0.746  10.670  18.328  0.00  0.00    +0.000 C 
ATOM     27  O   UNL     1      -1.719  10.016  17.979  0.00  0.00    +0.000 OA
BRANCH  26  28
ATOM     28  O   UNL     1      -0.468  11.877  17.769  0.00  0.00    +0.000 OA
ATOM     29  H   UNL     1      -0.826  11.964  16.850  0.00  0.00    +0.000 HD
ENDBRANCH  26  28
ENDBRANCH  17  26
ENDBRANCH   3  17
TORSDOF 4
ENDMDL
MODEL 4
REMARK VINA RESULT:      -8.4      2.239      3.770
REMARK  Name = 
REMARK  5 active torsions:
REMARK  status: ('A' for Active; 'I' for Inactive)
REMARK    1  A    between atoms: C_1  and  C_2
REMARK    2  A    between atoms: C_4  and  C_5
REMARK    3  A    between atoms: N_7  and  C_8
REMARK    4  A    between atoms: C_8  and  C_9
REMARK    5  A    between atoms: C_9  and  O_11
REMARK                            x       y       z     vdW  Elec       q    Type
REMARK                         _______ _______ _______ _____ _____    ______ ____
ROOT
ATOM      1  C   UNL     1       1.892   7.699  19.796  0.00  0.00    +0.000 C 
ATOM      2  O   UNL     1       1.841   8.466  18.844  0.00  0.00    +0.000 OA
ATOM      3  N   UNL     1       1.328   8.075  20.993  0.00  0.00    +0.000 N 
ATOM      4  H   UNL     1       1.047   7.316  21.602  0.00  0.00    +0.000 HD
ENDROOT
BRANCH   1   8
ATOM      5  C   UNL     1       2.168   2.977  21.567  0.00  0.00    +0.000 C 
ATOM      6  C   UNL     1       2.528   4.049  20.578  0.00  0.00    +0.000 A 
ATOM      7  C   UNL     1       2.029   5.340  20.663  0.00  0.00    +0.000 A 
ATOM      8  C   UNL     1       2.433   6.290  19.708  0.00  0.00    +0.000 A 
ATOM      9  C   UNL     1       3.358   5.912  18.695  0.00  0.00    +0.000 A 
ATOM     10  C   UNL     1       3.863   6.754  17.666  0.00  0.00    +0.000 A 
ATOM     11  C   UNL     1       4.793   6.291  16.739  0.00  0.00    +0.000 A 
ATOM     12  C   UNL     1       5.219   4.979  16.809  0.00  0.00    +0.000 A 
ATOM     13  F   UNL     1       6.126   4.530  15.932  0.00  0.00    +0.000 F 
ATOM     14  C   UNL     1       4.724   4.129  17.779  0.00  0.00    +0.000 A 
ATOM     15  C   UNL     1       3.805   4.571  18.718  0.00  0.00    +0.000 A 
ATOM     16  N   UNL     1       3.394   3.675  19.620  0.00  0.00    +0.000 NA
ENDBRANCH   1   8
BRANCH   3  17
ATOM     17  C   UNL     1       0.580   9.347  21.241  0.00  0.00    +0.000 C 
ATOM     18  C   UNL     1      -0.600   9.724  20.287  0.00  0.00    +0.000 C 
ATOM     19  C   UNL     1      -0.520  11.231  20.266  0.00  0.00    +0.000 A 
ATOM     20  C   UNL     1      -1.484  12.158  19.893  0.00  0.00    +0.000 A 
ATOM     21  C   UNL     1      -1.154  13.518  19.937  0.00  0.00    +0.000 A 
ATOM     22  C   UNL     1       0.125  13.936  20.328  0.00  0.00    +0.000 A 
ATOM     23  C   UNL     1       1.088  13.002  20.705  0.00  0.00    +0.000 A 
ATOM     24  C   UNL     1       0.741  11.660  20.687  0.00  0.00    +0.000 A 
ATOM     25  C   UNL     1       1.599  10.505  21.079  0.00  0.00    +0.000 C 
BRANCH  17  26
ATOM     26  C   UNL     1       0.011   9.278  22.681  0.00  0.00    +0.000 C 
ATOM     27  O   UNL     1       0.431   9.917  23.636  0.00  0.00    +0.000 OA
BRANCH  26  28
ATOM     28  O   UNL     1      -1.039   8.424  22.808  0.00  0.00    +0.000 OA
ATOM     29  H   UNL     1      -1.516   8.531  23.669  0.00  0.00    +0.000 HD
ENDBRANCH  26  28
ENDBRANCH  17  26
ENDBRANCH   3  17
TORSDOF 4
ENDMDL
MODEL 5
REMARK VINA RESULT:      -8.2      2.343      3.705
REMARK  Name = 
REMARK  5 active torsions:
REMARK  status: ('A' for Active; 'I' for Inactive)
REMARK    1  A    between atoms: C_1  and  C_2
REMARK    2  A    between atoms: C_4  and  C_5
REMARK    3  A    between atoms: N_7  and  C_8
REMARK    4  A    between atoms: C_8  and  C_9
REMARK    5  A    between atoms: C_9  and  O_11
REMARK                            x       y       z     vdW  Elec       q    Type
REMARK                         _______ _______ _______ _____ _____    ______ ____
ROOT
ATOM      1  C   UNL     1       2.245   8.320  18.416  0.00  0.00    +0.000 C 
ATOM      2  O   UNL     1       2.257   8.802  17.291  0.00  0.00    +0.000 OA
ATOM      3  N   UNL     1       1.691   9.040  19.449  0.00  0.00    +0.000 N 
ATOM      4  H   UNL     1       1.352   8.492  20.232  0.00  0.00    +0.000 HD
ENDROOT
BRANCH   1   8
ATOM      5  C   UNL     1       1.930   4.123  21.209  0.00  0.00    +0.000 C 
ATOM      6  C   UNL     1       2.503   4.927  20.077  0.00  0.00    +0.000 A 
ATOM      7  C   UNL     1       2.089   6.219  19.794  0.00  0.00    +0.000 A 
ATOM      8  C   UNL     1       2.692   6.910  18.728  0.00  0.00    +0.000 A 
ATOM      9  C   UNL     1       3.726   6.278  17.982  0.00  0.00    +0.000 A 
ATOM     10  C   UNL     1       4.433   6.842  16.885  0.00  0.00    +0.000 A 
ATOM     11  C   UNL     1       5.452   6.147  16.241  0.00  0.00    +0.000 A 
ATOM     12  C   UNL     1       5.770   4.871  16.665  0.00  0.00    +0.000 A 
ATOM     13  F   UNL     1       6.761   4.202  16.062  0.00  0.00    +0.000 F 
ATOM     14  C   UNL     1       5.082   4.284  17.709  0.00  0.00    +0.000 A 
ATOM     15  C   UNL     1       4.070   4.962  18.371  0.00  0.00    +0.000 A 
ATOM     16  N   UNL     1       3.471   4.312  19.373  0.00  0.00    +0.000 NA
ENDBRANCH   1   8
BRANCH   3  17
ATOM     17  C   UNL     1       1.025  10.373  19.323  0.00  0.00    +0.000 C 
ATOM     18  C   UNL     1       1.720  11.483  18.469  0.00  0.00    +0.000 C 
ATOM     19  C   UNL     1       1.322  12.741  19.200  0.00  0.00    +0.000 A 
ATOM     20  C   UNL     1       1.325  14.056  18.755  0.00  0.00    +0.000 A 
ATOM     21  C   UNL     1       0.930  15.063  19.645  0.00  0.00    +0.000 A 
ATOM     22  C   UNL     1       0.557  14.755  20.960  0.00  0.00    +0.000 A 
ATOM     23  C   UNL     1       0.551  13.433  21.401  0.00  0.00    +0.000 A 
ATOM     24  C   UNL     1       0.915  12.442  20.503  0.00  0.00    +0.000 A 
ATOM     25  C   UNL     1       0.947  10.972  20.752  0.00  0.00    +0.000 C 
BRANCH  17  26
ATOM     26  C   UNL     1      -0.383  10.135  18.721  0.00  0.00    +0.000 C 
ATOM     27  O   UNL     1      -1.411   9.988  19.368  0.00  0.00    +0.000 OA
BRANCH  26  28
ATOM     28  O   UNL     1      -0.393  10.106  17.362  0.00  0.00    +0.000 OA
ATOM     29  H   UNL     1       0.516  10.146  16.972  0.00  0.00    +0.000 HD
ENDBRANCH  26  28
ENDBRANCH  17  26
ENDBRANCH   3  17
TORSDOF 4
ENDMDL
MODEL 6
REMARK VINA RESULT:      -8.1      2.132      3.459
REMARK  Name = 
REMARK  5 active torsions:
REMARK  status: ('A' for Active; 'I' for Inactive)
REMARK    1  A    between atoms: C_1  and  C_2
REMARK    2  A    between atoms: C_4  and  C_5
REMARK    3  A    between atoms: N_7  and  C_8
REMARK    4  A    between atoms: C_8  and  C_9
REMARK    5  A    between atoms: C_9  and  O_11
REMARK                            x       y       z     vdW  Elec       q    Type
REMARK                         _______ _______ _______ _____ _____    ______ ____
ROOT
ATOM      1  C   UNL     1       1.975   8.371  19.196  0.00  0.00    +0.000 C 
ATOM      2  O   UNL     1       2.179   9.129  18.257  0.00  0.00    +0.000 OA
ATOM      3  N   UNL     1       1.196   8.797  20.247  0.00  0.00    +0.000 N 
ATOM      4  H   UNL     1       0.740   8.064  20.779  0.00  0.00    +0.000 HD
ENDROOT
BRANCH   1   8
ATOM      5  C   UNL     1       1.854   3.761  21.255  0.00  0.00    +0.000 C 
ATOM      6  C   UNL     1       2.331   4.744  20.226  0.00  0.00    +0.000 A 
ATOM      7  C   UNL     1       1.914   6.067  20.207  0.00  0.00    +0.000 A 
ATOM      8  C   UNL     1       2.425   6.927  19.220  0.00  0.00    +0.000 A 
ATOM      9  C   UNL     1       3.371   6.430  18.280  0.00  0.00    +0.000 A 
ATOM     10  C   UNL     1       3.979   7.172  17.232  0.00  0.00    +0.000 A 
ATOM     11  C   UNL     1       4.920   6.596  16.383  0.00  0.00    +0.000 A 
ATOM     12  C   UNL     1       5.255   5.266  16.552  0.00  0.00    +0.000 A 
ATOM     13  F   UNL     1       6.171   4.708  15.751  0.00  0.00    +0.000 F 
ATOM     14  C   UNL     1       4.659   4.511  17.544  0.00  0.00    +0.000 A 
ATOM     15  C   UNL     1       3.728   5.068  18.406  0.00  0.00    +0.000 A 
ATOM     16  N   UNL     1       3.216   4.257  19.337  0.00  0.00    +0.000 NA
ENDBRANCH   1   8
BRANCH   3  17
ATOM     17  C   UNL     1       0.499  10.118  20.335  0.00  0.00    +0.000 C 
ATOM     18  C   UNL     1       1.362  11.416  20.458  0.00  0.00    +0.000 C 
ATOM     19  C   UNL     1       0.486  12.298  21.313  0.00  0.00    +0.000 A 
ATOM     20  C   UNL     1       0.524  13.675  21.485  0.00  0.00    +0.000 A 
ATOM     21  C   UNL     1      -0.392  14.264  22.366  0.00  0.00    +0.000 A 
ATOM     22  C   UNL     1      -1.314  13.482  23.073  0.00  0.00    +0.000 A 
ATOM     23  C   UNL     1      -1.352  12.100  22.894  0.00  0.00    +0.000 A 
ATOM     24  C   UNL     1      -0.461  11.532  21.997  0.00  0.00    +0.000 A 
ATOM     25  C   UNL     1      -0.351  10.090  21.632  0.00  0.00    +0.000 C 
BRANCH  17  26
ATOM     26  C   UNL     1      -0.385  10.263  19.071  0.00  0.00    +0.000 C 
ATOM     27  O   UNL     1      -1.498   9.776  18.928  0.00  0.00    +0.000 OA
BRANCH  26  28
ATOM     28  O   UNL     1       0.190  11.011  18.091  0.00  0.00    +0.000 OA
ATOM     29  H   UNL     1      -0.402  11.736  17.767  0.00  0.00    +0.000 HD
ENDBRANCH  26  28
ENDBRANCH  17  26
ENDBRANCH   3  17
TORSDOF 4
ENDMDL
MODEL 7
REMARK VINA RESULT:      -8.1      1.667      2.160
REMARK  Name = 
REMARK  5 active torsions:
REMARK  status: ('A' for Active; 'I' for Inactive)
REMARK    1  A    between atoms: C_1  and  C_2
REMARK    2  A    between atoms: C_4  and  C_5
REMARK    3  A    between atoms: N_7  and  C_8
REMARK    4  A    between atoms: C_8  and  C_9
REMARK    5  A    between atoms: C_9  and  O_11
REMARK                            x       y       z     vdW  Elec       q    Type
REMARK                         _______ _______ _______ _____ _____    ______ ____
ROOT
ATOM      1  C   UNL     1       2.201   8.819  18.431  0.00  0.00    +0.000 C 
ATOM      2  O   UNL     1       2.186   9.726  17.610  0.00  0.00    +0.000 OA
ATOM      3  N   UNL     1       1.459   8.942  19.583  0.00  0.00    +0.000 N 
ATOM      4  H   UNL     1       1.187   8.072  20.024  0.00  0.00    +0.000 HD
ENDROOT
BRANCH   1   8
ATOM      5  C   UNL     1       5.377   5.913  15.788  0.00  0.00    +0.000 C 
ATOM      6  C   UNL     1       4.421   6.147  16.922  0.00  0.00    +0.000 A 
ATOM      7  C   UNL     1       3.790   7.365  17.128  0.00  0.00    +0.000 A 
ATOM      8  C   UNL     1       2.893   7.493  18.203  0.00  0.00    +0.000 A 
ATOM      9  C   UNL     1       2.635   6.370  19.038  0.00  0.00    +0.000 A 
ATOM     10  C   UNL     1       1.757   6.340  20.154  0.00  0.00    +0.000 A 
ATOM     11  C   UNL     1       1.553   5.175  20.889  0.00  0.00    +0.000 A 
ATOM     12  C   UNL     1       2.236   4.027  20.536  0.00  0.00    +0.000 A 
ATOM     13  F   UNL     1       2.033   2.898  21.226  0.00  0.00    +0.000 F 
ATOM     14  C   UNL     1       3.119   4.033  19.473  0.00  0.00    +0.000 A 
ATOM     15  C   UNL     1       3.330   5.179  18.722  0.00  0.00    +0.000 A 
ATOM     16  N   UNL     1       4.196   5.079  17.710  0.00  0.00    +0.000 NA
ENDBRANCH   1   8
BRANCH   3  17
ATOM     17  C   UNL     1       0.557  10.088  19.918  0.00  0.00    +0.000 C 
ATOM     18  C   UNL     1       1.189  11.496  20.166  0.00  0.00    +0.000 C 
ATOM     19  C   UNL     1       0.265  12.079  21.207  0.00  0.00    +0.000 A 
ATOM     20  C   UNL     1       0.082  13.404  21.578  0.00  0.00    +0.000 A 
ATOM     21  C   UNL     1      -0.828  13.691  22.603  0.00  0.00    +0.000 A 
ATOM     22  C   UNL     1      -1.524  12.664  23.255  0.00  0.00    +0.000 A 
ATOM     23  C   UNL     1      -1.340  11.336  22.877  0.00  0.00    +0.000 A 
ATOM     24  C   UNL     1      -0.460  11.066  21.840  0.00  0.00    +0.000 A 
ATOM     25  C   UNL     1      -0.140   9.731  21.258  0.00  0.00    +0.000 C 
BRANCH  17  26
ATOM     26  C   UNL     1      -0.463  10.232  18.761  0.00  0.00    +0.000 C 
ATOM     27  O   UNL     1      -1.494   9.584  18.644  0.00  0.00    +0.000 OA
BRANCH  26  28
ATOM     28  O   UNL     1      -0.115  11.177  17.847  0.00  0.00    +0.000 OA
ATOM     29  H   UNL     1       0.865  11.247  17.724  0.00  0.00    +0.000 HD
ENDBRANCH  26  28
ENDBRANCH  17  26
ENDBRANCH   3  17
TORSDOF 4
ENDMDL
MODEL 8
REMARK VINA RESULT:      -8.1      1.534      2.399
REMARK  Name = 
REMARK  5 active torsions:
REMARK  status: ('A' for Active; 'I' for Inactive)
REMARK    1  A    between atoms: C_1  and  C_2
REMARK    2  A    between atoms: C_4  and  C_5
REMARK    3  A    between atoms: N_7  and  C_8
REMARK    4  A    between atoms: C_8  and  C_9
REMARK    5  A    between atoms: C_9  and  O_11
REMARK                            x       y       z     vdW  Elec       q    Type
REMARK                         _______ _______ _______ _____ _____    ______ ____
ROOT
ATOM      1  C   UNL     1       1.845   8.537  18.901  0.00  0.00    +0.000 C 
ATOM      2  O   UNL     1       1.347   9.271  18.058  0.00  0.00    +0.000 OA
ATOM      3  N   UNL     1       1.521   8.720  20.225  0.00  0.00    +0.000 N 
ATOM      4  H   UNL     1       1.622   7.903  20.817  0.00  0.00    +0.000 HD
ENDROOT
BRANCH   1   8
ATOM      5  C   UNL     1       5.379   6.325  16.050  0.00  0.00    +0.000 C 
ATOM      6  C   UNL     1       4.403   6.329  17.191  0.00  0.00    +0.000 A 
ATOM      7  C   UNL     1       3.613   7.429  17.493  0.00  0.00    +0.000 A 
ATOM      8  C   UNL     1       2.709   7.342  18.567  0.00  0.00    +0.000 A 
ATOM      9  C   UNL     1       2.608   6.127  19.300  0.00  0.00    +0.000 A 
ATOM     10  C   UNL     1       1.743   5.883  20.401  0.00  0.00    +0.000 A 
ATOM     11  C   UNL     1       1.701   4.642  21.032  0.00  0.00    +0.000 A 
ATOM     12  C   UNL     1       2.532   3.632  20.589  0.00  0.00    +0.000 A 
ATOM     13  F   UNL     1       2.485   2.430  21.178  0.00  0.00    +0.000 F 
ATOM     14  C   UNL     1       3.404   3.848  19.539  0.00  0.00    +0.000 A 
ATOM     15  C   UNL     1       3.456   5.072  18.891  0.00  0.00    +0.000 A 
ATOM     16  N   UNL     1       4.326   5.177  17.882  0.00  0.00    +0.000 NA
ENDBRANCH   1   8
BRANCH   3  17
ATOM     17  C   UNL     1       0.542   9.721  20.753  0.00  0.00    +0.000 C 
ATOM     18  C   UNL     1      -0.773   9.981  19.949  0.00  0.00    +0.000 C 
ATOM     19  C   UNL     1      -1.023  11.445  20.217  0.00  0.00    +0.000 A 
ATOM     20  C   UNL     1      -2.194  12.178  20.080  0.00  0.00    +0.000 A 
ATOM     21  C   UNL     1      -2.163  13.548  20.370  0.00  0.00    +0.000 A 
ATOM     22  C   UNL     1      -0.974  14.171  20.771  0.00  0.00    +0.000 A 
ATOM     23  C   UNL     1       0.199  13.431  20.911  0.00  0.00    +0.000 A 
ATOM     24  C   UNL     1       0.149  12.070  20.650  0.00  0.00    +0.000 A 
ATOM     25  C   UNL     1       1.268  11.092  20.767  0.00  0.00    +0.000 C 
BRANCH  17  26
ATOM     26  C   UNL     1       0.137   9.269  22.178  0.00  0.00    +0.000 C 
ATOM     27  O   UNL     1       0.535   9.775  23.219  0.00  0.00    +0.000 OA
BRANCH  26  28
ATOM     28  O   UNL     1      -0.737   8.228  22.188  0.00  0.00    +0.000 OA
ATOM     29  H   UNL     1      -0.296   7.357  22.023  0.00  0.00    +0.000 HD
ENDBRANCH  26  28
ENDBRANCH  17  26
ENDBRANCH   3  17
TORSDOF 4
ENDMDL
MODEL 9
REMARK VINA RESULT:      -8.1      1.724      2.508
REMARK  Name = 
REMARK  5 active torsions:
REMARK  status: ('A' for Active; 'I' for Inactive)
REMARK    1  A    between atoms: C_1  and  C_2
REMARK    2  A    between atoms: C_4  and  C_5
REMARK    3  A    between atoms: N_7  and  C_8
REMARK    4  A    between atoms: C_8  and  C_9
REMARK    5  A    between atoms: C_9  and  O_11
REMARK                            x       y       z     vdW  Elec       q    Type
REMARK                         _______ _______ _______ _____ _____    ______ ____
ROOT
ATOM      1  C   UNL     1       2.565   8.137  18.102  0.00  0.00    +0.000 C 
ATOM      2  O   UNL     1       2.073   8.837  17.228  0.00  0.00    +0.000 OA
ATOM      3  N   UNL     1       2.126   8.273  19.399  0.00  0.00    +0.000 N 
ATOM      4  H   UNL     1       2.249   7.460  19.991  0.00  0.00    +0.000 HD
ENDROOT
BRANCH   1   8
ATOM      5  C   UNL     1       7.254   6.573  17.062  0.00  0.00    +0.000 C 
ATOM      6  C   UNL     1       5.801   6.321  17.343  0.00  0.00    +0.000 A 
ATOM      7  C   UNL     1       4.901   7.346  17.595  0.00  0.00    +0.000 A 
ATOM      8  C   UNL     1       3.552   7.024  17.829  0.00  0.00    +0.000 A 
ATOM      9  C   UNL     1       3.138   5.663  17.779  0.00  0.00    +0.000 A 
ATOM     10  C   UNL     1       1.818   5.181  17.988  0.00  0.00    +0.000 A 
ATOM     11  C   UNL     1       1.513   3.827  17.887  0.00  0.00    +0.000 A 
ATOM     12  C   UNL     1       2.522   2.929  17.596  0.00  0.00    +0.000 A 
ATOM     13  F   UNL     1       2.235   1.626  17.479  0.00  0.00    +0.000 F 
ATOM     14  C   UNL     1       3.821   3.364  17.416  0.00  0.00    +0.000 A 
ATOM     15  C   UNL     1       4.144   4.709  17.503  0.00  0.00    +0.000 A 
ATOM     16  N   UNL     1       5.427   5.029  17.305  0.00  0.00    +0.000 NA
ENDBRANCH   1   8
BRANCH   3  17
ATOM     17  C   UNL     1       1.027   9.181  19.855  0.00  0.00    +0.000 C 
ATOM     18  C   UNL     1      -0.277   9.273  18.997  0.00  0.00    +0.000 C 
ATOM     19  C   UNL     1      -0.690  10.709  19.202  0.00  0.00    +0.000 A 
ATOM     20  C   UNL     1      -1.926  11.308  18.997  0.00  0.00    +0.000 A 
ATOM     21  C   UNL     1      -2.051  12.682  19.238  0.00  0.00    +0.000 A 
ATOM     22  C   UNL     1      -0.950  13.442  19.657  0.00  0.00    +0.000 A 
ATOM     23  C   UNL     1       0.287  12.836  19.865  0.00  0.00    +0.000 A 
ATOM     24  C   UNL     1       0.392  11.470  19.653  0.00  0.00    +0.000 A 
ATOM     25  C   UNL     1       1.603  10.621  19.845  0.00  0.00    +0.000 C 
BRANCH  17  26
ATOM     26  C   UNL     1       0.616   8.735  21.281  0.00  0.00    +0.000 C 
ATOM     27  O   UNL     1      -0.506   8.383  21.614  0.00  0.00    +0.000 OA
BRANCH  26  28
ATOM     28  O   UNL     1       1.643   8.760  22.172  0.00  0.00    +0.000 OA
ATOM     29  H   UNL     1       2.515   8.539  21.757  0.00  0.00    +0.000 HD
ENDBRANCH  26  28
ENDBRANCH  17  26
ENDBRANCH   3  17
TORSDOF 4
ENDMDL
