MODEL 1
REMARK VINA RESULT:      -9.2      0.000      0.000
REMARK  Name = 
REMARK  6 active torsions:
REMARK  status: ('A' for Active; 'I' for Inactive)
REMARK    1  A    between atoms: C_1  and  N_2
REMARK    2  A    between atoms: C_6  and  C_7
REMARK    3  A    between atoms: C_11  and  N_12
REMARK    4  A    between atoms: C_13  and  C_15
REMARK    5  A    between atoms: C_15  and  O_16
REMARK    6  A    between atoms: O_16  and  C_17
REMARK                            x       y       z     vdW  Elec       q    Type
REMARK                         _______ _______ _______ _____ _____    ______ ____
ROOT
ATOM      1  N   UNL     1       6.982   7.428  16.921  0.00  0.00    +0.000 N 
ATOM      2  C   UNL     1       7.875   7.746  17.937  0.00  0.00    +0.000 C 
ATOM      3  O   UNL     1       8.312   6.964  18.779  0.00  0.00    +0.000 OA
ATOM      4  H   UNL     1       6.879   8.113  16.183  0.00  0.00    +0.000 HD
ENDROOT
BRANCH   1   9
ATOM      5  C   UNL     1       4.604   4.605  17.353  0.00  0.00    +0.000 A 
ATOM      6  C   UNL     1       5.002   3.761  16.307  0.00  0.00    +0.000 A 
ATOM      7  C   UNL     1       6.090   4.084  15.506  0.00  0.00    +0.000 A 
ATOM      8  C   UNL     1       6.779   5.278  15.714  0.00  0.00    +0.000 A 
ATOM      9  C   UNL     1       6.374   6.165  16.717  0.00  0.00    +0.000 A 
ATOM     10  C   UNL     1       5.307   5.804  17.554  0.00  0.00    +0.000 A 
BRANCH   5  16
ATOM     11  C   UNL     1       4.359   2.575  19.802  0.00  0.00    +0.000 C 
ATOM     12  N   UNL     1       3.322   3.347  19.179  0.00  0.00    +0.000 N 
ATOM     13  C   UNL     1       2.000   3.272  19.495  0.00  0.00    +0.000 A 
ATOM     14  N   UNL     1       1.308   4.043  18.705  0.00  0.00    +0.000 NA
ATOM     15  N   UNL     1       2.185   4.633  17.837  0.00  0.00    +0.000 NA
ATOM     16  C   UNL     1       3.415   4.219  18.116  0.00  0.00    +0.000 A 
ENDBRANCH   5  16
ENDBRANCH   1   9
BRANCH   2  17
ATOM     17  C   UNL     1       8.255   9.232  17.985  0.00  0.00    +0.000 C 
BRANCH  17  18
ATOM     18  O   UNL     1       8.862   9.697  19.192  0.00  0.00    +0.000 OA
BRANCH  18  19
ATOM     19  C   UNL     1       9.580  10.878  19.071  0.00  0.00    +0.000 A 
ATOM     20  C   UNL     1      10.364  11.168  17.943  0.00  0.00    +0.000 A 
ATOM     21  C   UNL     1      11.054  12.368  17.844  0.00  0.00    +0.000 A 
ATOM     22  C   UNL     1      10.889  13.349  18.813  0.00  0.00    +0.000 A 
ATOM     23 CL   UNL     1      11.861  14.776  18.652  0.00  0.00    +0.000 Cl
ATOM     24  C   UNL     1      10.087  13.114  19.948  0.00  0.00    +0.000 A 
ATOM     25  C   UNL     1       9.879  14.117  20.919  0.00  0.00    +0.000 A 
ATOM     26  C   UNL     1       9.427  13.792  22.194  0.00  0.00    +0.000 A 
ATOM     27  C   UNL     1       9.061  12.489  22.465  0.00  0.00    +0.000 A 
ATOM     28  C   UNL     1       9.021  11.539  21.433  0.00  0.00    +0.000 A 
ATOM     29  C   UNL     1       9.533  11.821  20.144  0.00  0.00    +0.000 A 
ENDBRANCH  18  19
ENDBRANCH  17  18
ENDBRANCH   2  17
TORSDOF 5
ENDMDL
MODEL 2
REMARK VINA RESULT:      -8.9      0.933      2.182
REMARK  Name = 
REMARK  6 active torsions:
REMARK  status: ('A' for Active; 'I' for Inactive)
REMARK    1  A    between atoms: C_1  and  N_2
REMARK    2  A    between atoms: C_6  and  C_7
REMARK    3  A    between atoms: C_11  and  N_12
REMARK    4  A    between atoms: C_13  and  C_15
REMARK    5  A    between atoms: C_15  and  O_16
REMARK    6  A    between atoms: O_16  and  C_17
REMARK                            x       y       z     vdW  Elec       q    Type
REMARK                         _______ _______ _______ _____ _____    ______ ____
ROOT
ATOM      1  N   UNL     1       6.981   7.636  17.106  0.00  0.00    +0.000 N 
ATOM      2  C   UNL     1       7.932   7.858  18.095  0.00  0.00    +0.000 C 
ATOM      3  O   UNL     1       8.408   7.003  18.838  0.00  0.00    +0.000 OA
ATOM      4  H   UNL     1       6.843   8.385  16.439  0.00  0.00    +0.000 HD
ENDROOT
BRANCH   1   9
ATOM      5  C   UNL     1       4.585   4.810  17.398  0.00  0.00    +0.000 A 
ATOM      6  C   UNL     1       4.938   4.047  16.276  0.00  0.00    +0.000 A 
ATOM      7  C   UNL     1       6.002   4.422  15.465  0.00  0.00    +0.000 A 
ATOM      8  C   UNL     1       6.712   5.589  15.742  0.00  0.00    +0.000 A 
ATOM      9  C   UNL     1       6.352   6.399  16.825  0.00  0.00    +0.000 A 
ATOM     10  C   UNL     1       5.310   5.982  17.668  0.00  0.00    +0.000 A 
BRANCH   5  16
ATOM     11  C   UNL     1       4.420   2.674  19.762  0.00  0.00    +0.000 C 
ATOM     12  N   UNL     1       3.360   3.458  19.195  0.00  0.00    +0.000 N 
ATOM     13  C   UNL     1       2.046   3.352  19.535  0.00  0.00    +0.000 A 
ATOM     14  N   UNL     1       1.328   4.146  18.794  0.00  0.00    +0.000 NA
ATOM     15  N   UNL     1       2.178   4.785  17.934  0.00  0.00    +0.000 NA
ATOM     16  C   UNL     1       3.418   4.376  18.168  0.00  0.00    +0.000 A 
ENDBRANCH   5  16
ENDBRANCH   1   9
BRANCH   2  17
ATOM     17  C   UNL     1       8.327   9.332  18.253  0.00  0.00    +0.000 C 
BRANCH  17  18
ATOM     18  O   UNL     1       9.607   9.592  18.833  0.00  0.00    +0.000 OA
BRANCH  18  19
ATOM     19  C   UNL     1       9.701  10.781  19.541  0.00  0.00    +0.000 A 
ATOM     20  C   UNL     1       9.117  10.949  20.807  0.00  0.00    +0.000 A 
ATOM     21  C   UNL     1       9.247  12.144  21.498  0.00  0.00    +0.000 A 
ATOM     22  C   UNL     1      10.052  13.157  20.995  0.00  0.00    +0.000 A 
ATOM     23 CL   UNL     1      10.081  14.646  21.884  0.00  0.00    +0.000 Cl
ATOM     24  C   UNL     1      10.684  13.021  19.743  0.00  0.00    +0.000 A 
ATOM     25  C   UNL     1      11.538  14.025  19.240  0.00  0.00    +0.000 A 
ATOM     26  C   UNL     1      11.850  14.083  17.885  0.00  0.00    +0.000 A 
ATOM     27  C   UNL     1      11.417  13.072  17.053  0.00  0.00    +0.000 A 
ATOM     28  C   UNL     1      10.787  11.938  17.590  0.00  0.00    +0.000 A 
ATOM     29  C   UNL     1      10.402  11.878  18.949  0.00  0.00    +0.000 A 
ENDBRANCH  18  19
ENDBRANCH  17  18
ENDBRANCH   2  17
TORSDOF 5
ENDMDL
MODEL 3
REMARK VINA RESULT:      -8.9      0.694      1.082
REMARK  Name = 
REMARK  6 active torsions:
REMARK  status: ('A' for Active; 'I' for Inactive)
REMARK    1  A    between atoms: C_1  and  N_2
REMARK    2  A    between atoms: C_6  and  C_7
REMARK    3  A    between atoms: C_11  and  N_12
REMARK    4  A    between atoms: C_13  and  C_15
REMARK    5  A    between atoms: C_15  and  O_16
REMARK    6  A    between atoms: O_16  and  C_17
REMARK                            x       y       z     vdW  Elec       q    Type
REMARK                         _______ _______ _______ _____ _____    ______ ____
ROOT
ATOM      1  N   UNL     1       7.069   7.365  16.795  0.00  0.00    +0.000 N 
ATOM      2  C   UNL     1       7.852   7.702  17.892  0.00  0.00    +0.000 C 
ATOM      3  O   UNL     1       8.206   6.935  18.785  0.00  0.00    +0.000 OA
ATOM      4  H   UNL     1       7.037   8.040  16.041  0.00  0.00    +0.000 HD
ENDROOT
BRANCH   1   9
ATOM      5  C   UNL     1       4.703   4.511  17.057  0.00  0.00    +0.000 A 
ATOM      6  C   UNL     1       5.183   3.676  16.039  0.00  0.00    +0.000 A 
ATOM      7  C   UNL     1       6.319   4.015  15.315  0.00  0.00    +0.000 A 
ATOM      8  C   UNL     1       6.976   5.216  15.573  0.00  0.00    +0.000 A 
ATOM      9  C   UNL     1       6.492   6.096  16.547  0.00  0.00    +0.000 A 
ATOM     10  C   UNL     1       5.376   5.718  17.309  0.00  0.00    +0.000 A 
BRANCH   5  16
ATOM     11  C   UNL     1       2.383   6.340  18.262  0.00  0.00    +0.000 C 
ATOM     12  N   UNL     1       2.469   4.908  18.245  0.00  0.00    +0.000 N 
ATOM     13  C   UNL     1       1.575   4.069  18.836  0.00  0.00    +0.000 A 
ATOM     14  N   UNL     1       1.968   2.834  18.703  0.00  0.00    +0.000 NA
ATOM     15  N   UNL     1       3.154   2.852  18.022  0.00  0.00    +0.000 NA
ATOM     16  C   UNL     1       3.469   4.108  17.735  0.00  0.00    +0.000 A 
ENDBRANCH   5  16
ENDBRANCH   1   9
BRANCH   2  17
ATOM     17  C   UNL     1       8.216   9.191  17.959  0.00  0.00    +0.000 C 
BRANCH  17  18
ATOM     18  O   UNL     1       8.953   9.618  19.106  0.00  0.00    +0.000 OA
BRANCH  18  19
ATOM     19  C   UNL     1       9.615  10.828  18.963  0.00  0.00    +0.000 A 
ATOM     20  C   UNL     1      10.360  11.145  17.816  0.00  0.00    +0.000 A 
ATOM     21  C   UNL     1      10.995  12.373  17.694  0.00  0.00    +0.000 A 
ATOM     22  C   UNL     1      10.809  13.352  18.661  0.00  0.00    +0.000 A 
ATOM     23 CL   UNL     1      11.713  14.819  18.469  0.00  0.00    +0.000 Cl
ATOM     24  C   UNL     1      10.044  13.090  19.815  0.00  0.00    +0.000 A 
ATOM     25  C   UNL     1       9.814  14.089  20.785  0.00  0.00    +0.000 A 
ATOM     26  C   UNL     1       9.405  13.753  22.072  0.00  0.00    +0.000 A 
ATOM     27  C   UNL     1       9.103  12.438  22.358  0.00  0.00    +0.000 A 
ATOM     28  C   UNL     1       9.082  11.480  21.333  0.00  0.00    +0.000 A 
ATOM     29  C   UNL     1       9.551  11.776  20.032  0.00  0.00    +0.000 A 
ENDBRANCH  18  19
ENDBRANCH  17  18
ENDBRANCH   2  17
TORSDOF 5
ENDMDL
MODEL 4
REMARK VINA RESULT:      -8.7      1.249      2.426
REMARK  Name = 
REMARK  6 active torsions:
REMARK  status: ('A' for Active; 'I' for Inactive)
REMARK    1  A    between atoms: C_1  and  N_2
REMARK    2  A    between atoms: C_6  and  C_7
REMARK    3  A    between atoms: C_11  and  N_12
REMARK    4  A    between atoms: C_13  and  C_15
REMARK    5  A    between atoms: C_15  and  O_16
REMARK    6  A    between atoms: O_16  and  C_17
REMARK                            x       y       z     vdW  Elec       q    Type
REMARK                         _______ _______ _______ _____ _____    ______ ____
ROOT
ATOM      1  N   UNL     1       7.107   7.540  16.941  0.00  0.00    +0.000 N 
ATOM      2  C   UNL     1       7.939   7.818  18.018  0.00  0.00    +0.000 C 
ATOM      3  O   UNL     1       8.363   6.998  18.829  0.00  0.00    +0.000 OA
ATOM      4  H   UNL     1       7.015   8.269  16.244  0.00  0.00    +0.000 HD
ENDROOT
BRANCH   1   9
ATOM      5  C   UNL     1       4.694   4.714  16.902  0.00  0.00    +0.000 A 
ATOM      6  C   UNL     1       5.296   3.865  15.962  0.00  0.00    +0.000 A 
ATOM      7  C   UNL     1       6.522   4.187  15.394  0.00  0.00    +0.000 A 
ATOM      8  C   UNL     1       7.153   5.383  15.730  0.00  0.00    +0.000 A 
ATOM      9  C   UNL     1       6.554   6.275  16.625  0.00  0.00    +0.000 A 
ATOM     10  C   UNL     1       5.342   5.915  17.234  0.00  0.00    +0.000 A 
BRANCH   5  16
ATOM     11  C   UNL     1       2.656   6.406  18.679  0.00  0.00    +0.000 C 
ATOM     12  N   UNL     1       2.500   5.073  18.173  0.00  0.00    +0.000 N 
ATOM     13  C   UNL     1       1.448   4.254  18.450  0.00  0.00    +0.000 A 
ATOM     14  N   UNL     1       1.634   3.088  17.900  0.00  0.00    +0.000 NA
ATOM     15  N   UNL     1       2.840   3.126  17.256  0.00  0.00    +0.000 NA
ATOM     16  C   UNL     1       3.377   4.329  17.413  0.00  0.00    +0.000 A 
ENDBRANCH   5  16
ENDBRANCH   1   9
BRANCH   2  17
ATOM     17  C   UNL     1       8.264   9.309  18.180  0.00  0.00    +0.000 C 
BRANCH  17  18
ATOM     18  O   UNL     1       9.582   9.631  18.629  0.00  0.00    +0.000 OA
BRANCH  18  19
ATOM     19  C   UNL     1       9.679  10.788  19.387  0.00  0.00    +0.000 A 
ATOM     20  C   UNL     1       9.138  10.887  20.679  0.00  0.00    +0.000 A 
ATOM     21  C   UNL     1       9.270  12.053  21.419  0.00  0.00    +0.000 A 
ATOM     22  C   UNL     1      10.036  13.104  20.934  0.00  0.00    +0.000 A 
ATOM     23 CL   UNL     1      10.067  14.552  21.889  0.00  0.00    +0.000 Cl
ATOM     24  C   UNL     1      10.624  13.038  19.655  0.00  0.00    +0.000 A 
ATOM     25  C   UNL     1      11.438  14.082  19.168  0.00  0.00    +0.000 A 
ATOM     26  C   UNL     1      11.698  14.207  17.807  0.00  0.00    +0.000 A 
ATOM     27  C   UNL     1      11.256  13.225  16.945  0.00  0.00    +0.000 A 
ATOM     28  C   UNL     1      10.669  12.055  17.452  0.00  0.00    +0.000 A 
ATOM     29  C   UNL     1      10.335  11.926  18.821  0.00  0.00    +0.000 A 
ENDBRANCH  18  19
ENDBRANCH  17  18
ENDBRANCH   2  17
TORSDOF 5
ENDMDL
MODEL 5
REMARK VINA RESULT:      -8.7      5.363      8.207
REMARK  Name = 
REMARK  6 active torsions:
REMARK  status: ('A' for Active; 'I' for Inactive)
REMARK    1  A    between atoms: C_1  and  N_2
REMARK    2  A    between atoms: C_6  and  C_7
REMARK    3  A    between atoms: C_11  and  N_12
REMARK    4  A    between atoms: C_13  and  C_15
REMARK    5  A    between atoms: C_15  and  O_16
REMARK    6  A    between atoms: O_16  and  C_17
REMARK                            x       y       z     vdW  Elec       q    Type
REMARK                         _______ _______ _______ _____ _____    ______ ____
ROOT
ATOM      1  N   UNL     1       2.766   6.162  19.907  0.00  0.00    +0.000 N 
ATOM      2  C   UNL     1       2.395   4.929  19.384  0.00  0.00    +0.000 C 
ATOM      3  O   UNL     1       1.569   4.747  18.493  0.00  0.00    +0.000 OA
ATOM      4  H   UNL     1       3.601   6.175  20.478  0.00  0.00    +0.000 HD
ENDROOT
BRANCH   1   9
ATOM      5  C   UNL     1       0.907   9.364  20.231  0.00  0.00    +0.000 A 
ATOM      6  C   UNL     1       1.195   9.963  18.997  0.00  0.00    +0.000 A 
ATOM      7  C   UNL     1       1.939   9.292  18.035  0.00  0.00    +0.000 A 
ATOM      8  C   UNL     1       2.440   8.019  18.305  0.00  0.00    +0.000 A 
ATOM      9  C   UNL     1       2.213   7.416  19.546  0.00  0.00    +0.000 A 
ATOM     10  C   UNL     1       1.416   8.081  20.490  0.00  0.00    +0.000 A 
BRANCH   5  16
ATOM     11  C   UNL     1      -1.452  11.456  19.745  0.00  0.00    +0.000 C 
ATOM     12  N   UNL     1      -0.861  11.055  20.989  0.00  0.00    +0.000 N 
ATOM     13  C   UNL     1      -1.171  11.585  22.204  0.00  0.00    +0.000 A 
ATOM     14  N   UNL     1      -0.414  11.062  23.125  0.00  0.00    +0.000 NA
ATOM     15  N   UNL     1       0.427  10.175  22.510  0.00  0.00    +0.000 NA
ATOM     16  C   UNL     1       0.164  10.160  21.210  0.00  0.00    +0.000 A 
ENDBRANCH   5  16
ENDBRANCH   1   9
BRANCH   2  17
ATOM     17  C   UNL     1       3.072   3.736  20.072  0.00  0.00    +0.000 C 
BRANCH  17  18
ATOM     18  O   UNL     1       4.466   3.558  19.816  0.00  0.00    +0.000 OA
BRANCH  18  19
ATOM     19  C   UNL     1       4.875   3.891  18.534  0.00  0.00    +0.000 A 
ATOM     20  C   UNL     1       4.334   3.281  17.390  0.00  0.00    +0.000 A 
ATOM     21  C   UNL     1       4.751   3.652  16.120  0.00  0.00    +0.000 A 
ATOM     22  C   UNL     1       5.632   4.713  15.957  0.00  0.00    +0.000 A 
ATOM     23 CL   UNL     1       6.165   5.043  14.341  0.00  0.00    +0.000 Cl
ATOM     24  C   UNL     1       6.177   5.376  17.075  0.00  0.00    +0.000 A 
ATOM     25  C   UNL     1       7.041   6.481  16.923  0.00  0.00    +0.000 A 
ATOM     26  C   UNL     1       7.868   6.888  17.965  0.00  0.00    +0.000 A 
ATOM     27  C   UNL     1       7.746   6.279  19.197  0.00  0.00    +0.000 A 
ATOM     28  C   UNL     1       6.714   5.356  19.428  0.00  0.00    +0.000 A 
ATOM     29  C   UNL     1       5.899   4.877  18.376  0.00  0.00    +0.000 A 
ENDBRANCH  18  19
ENDBRANCH  17  18
ENDBRANCH   2  17
TORSDOF 5
ENDMDL
MODEL 6
REMARK VINA RESULT:      -8.5      7.265      9.599
REMARK  Name = 
REMARK  6 active torsions:
REMARK  status: ('A' for Active; 'I' for Inactive)
REMARK    1  A    between atoms: C_1  and  N_2
REMARK    2  A    between atoms: C_6  and  C_7
REMARK    3  A    between atoms: C_11  and  N_12
REMARK    4  A    between atoms: C_13  and  C_15
REMARK    5  A    between atoms: C_15  and  O_16
REMARK    6  A    between atoms: O_16  and  C_17
REMARK                            x       y       z     vdW  Elec       q    Type
REMARK                         _______ _______ _______ _____ _____    ______ ____
ROOT
ATOM      1  N   UNL     1       1.749   7.944  20.141  0.00  0.00    +0.000 N 
ATOM      2  C   UNL     1       1.473   8.835  19.112  0.00  0.00    +0.000 C 
ATOM      3  O   UNL     1       1.609   8.610  17.911  0.00  0.00    +0.000 OA
ATOM      4  H   UNL     1       1.391   8.188  21.056  0.00  0.00    +0.000 HD
ENDROOT
BRANCH   1   9
ATOM      5  C   UNL     1       4.201   5.276  19.312  0.00  0.00    +0.000 A 
ATOM      6  C   UNL     1       3.524   4.141  19.778  0.00  0.00    +0.000 A 
ATOM      7  C   UNL     1       2.241   4.241  20.300  0.00  0.00    +0.000 A 
ATOM      8  C   UNL     1       1.623   5.486  20.398  0.00  0.00    +0.000 A 
ATOM      9  C   UNL     1       2.292   6.644  19.989  0.00  0.00    +0.000 A 
ATOM     10  C   UNL     1       3.567   6.526  19.414  0.00  0.00    +0.000 A 
BRANCH   5  16
ATOM     11  C   UNL     1       5.207   4.419  16.409  0.00  0.00    +0.000 C 
ATOM     12  N   UNL     1       5.995   4.732  17.567  0.00  0.00    +0.000 N 
ATOM     13  C   UNL     1       7.350   4.630  17.636  0.00  0.00    +0.000 A 
ATOM     14  N   UNL     1       7.758   4.916  18.840  0.00  0.00    +0.000 NA
ATOM     15  N   UNL     1       6.650   5.200  19.591  0.00  0.00    +0.000 NA
ATOM     16  C   UNL     1       5.571   5.094  18.827  0.00  0.00    +0.000 A 
ENDBRANCH   5  16
ENDBRANCH   1   9
BRANCH   2  17
ATOM     17  C   UNL     1       1.022  10.220  19.596  0.00  0.00    +0.000 C 
BRANCH  17  18
ATOM     18  O   UNL     1       0.378  11.055  18.633  0.00  0.00    +0.000 OA
BRANCH  18  19
ATOM     19  C   UNL     1      -0.919  11.430  18.953  0.00  0.00    +0.000 A 
ATOM     20  C   UNL     1      -1.233  12.104  20.143  0.00  0.00    +0.000 A 
ATOM     21  C   UNL     1      -2.538  12.483  20.425  0.00  0.00    +0.000 A 
ATOM     22  C   UNL     1      -3.537  12.297  19.479  0.00  0.00    +0.000 A 
ATOM     23 CL   UNL     1      -5.150  12.718  19.955  0.00  0.00    +0.000 Cl
ATOM     24  C   UNL     1      -3.262  11.652  18.256  0.00  0.00    +0.000 A 
ATOM     25  C   UNL     1      -4.259  11.494  17.270  0.00  0.00    +0.000 A 
ATOM     26  C   UNL     1      -4.116  10.551  16.257  0.00  0.00    +0.000 A 
ATOM     27  C   UNL     1      -2.930   9.855  16.150  0.00  0.00    +0.000 A 
ATOM     28  C   UNL     1      -1.840  10.189  16.968  0.00  0.00    +0.000 A 
ATOM     29  C   UNL     1      -1.972  11.097  18.045  0.00  0.00    +0.000 A 
ENDBRANCH  18  19
ENDBRANCH  17  18
ENDBRANCH   2  17
TORSDOF 5
ENDMDL
MODEL 7
REMARK VINA RESULT:      -8.3      5.322      8.214
REMARK  Name = 
REMARK  6 active torsions:
REMARK  status: ('A' for Active; 'I' for Inactive)
REMARK    1  A    between atoms: C_1  and  N_2
REMARK    2  A    between atoms: C_6  and  C_7
REMARK    3  A    between atoms: C_11  and  N_12
REMARK    4  A    between atoms: C_13  and  C_15
REMARK    5  A    between atoms: C_15  and  O_16
REMARK    6  A    between atoms: O_16  and  C_17
REMARK                            x       y       z     vdW  Elec       q    Type
REMARK                         _______ _______ _______ _____ _____    ______ ____
ROOT
ATOM      1  N   UNL     1       2.810   6.182  19.922  0.00  0.00    +0.000 N 
ATOM      2  C   UNL     1       2.345   4.919  19.576  0.00  0.00    +0.000 C 
ATOM      3  O   UNL     1       1.435   4.681  18.786  0.00  0.00    +0.000 OA
ATOM      4  H   UNL     1       3.694   6.216  20.414  0.00  0.00    +0.000 HD
ENDROOT
BRANCH   1   9
ATOM      5  C   UNL     1       1.145   9.502  20.047  0.00  0.00    +0.000 A 
ATOM      6  C   UNL     1       1.318   9.934  18.724  0.00  0.00    +0.000 A 
ATOM      7  C   UNL     1       1.916   9.112  17.779  0.00  0.00    +0.000 A 
ATOM      8  C   UNL     1       2.387   7.853  18.147  0.00  0.00    +0.000 A 
ATOM      9  C   UNL     1       2.277   7.414  19.471  0.00  0.00    +0.000 A 
ATOM     10  C   UNL     1       1.622   8.231  20.406  0.00  0.00    +0.000 A 
BRANCH   5  16
ATOM     11  C   UNL     1      -0.660   8.916  22.611  0.00  0.00    +0.000 C 
ATOM     12  N   UNL     1      -0.217  10.184  22.105  0.00  0.00    +0.000 N 
ATOM     13  C   UNL     1      -0.579  11.393  22.615  0.00  0.00    +0.000 A 
ATOM     14  N   UNL     1      -0.069  12.351  21.894  0.00  0.00    +0.000 NA
ATOM     15  N   UNL     1       0.635  11.768  20.876  0.00  0.00    +0.000 NA
ATOM     16  C   UNL     1       0.555  10.449  20.995  0.00  0.00    +0.000 A 
ENDBRANCH   5  16
ENDBRANCH   1   9
BRANCH   2  17
ATOM     17  C   UNL     1       3.035   3.776  20.334  0.00  0.00    +0.000 C 
BRANCH  17  18
ATOM     18  O   UNL     1       4.392   3.503  19.981  0.00  0.00    +0.000 OA
BRANCH  18  19
ATOM     19  C   UNL     1       4.727   3.792  18.667  0.00  0.00    +0.000 A 
ATOM     20  C   UNL     1       4.115   3.153  17.578  0.00  0.00    +0.000 A 
ATOM     21  C   UNL     1       4.459   3.480  16.274  0.00  0.00    +0.000 A 
ATOM     22  C   UNL     1       5.338   4.525  16.026  0.00  0.00    +0.000 A 
ATOM     23 CL   UNL     1       5.777   4.800  14.371  0.00  0.00    +0.000 Cl
ATOM     24  C   UNL     1       5.954   5.217  17.088  0.00  0.00    +0.000 A 
ATOM     25  C   UNL     1       6.817   6.308  16.851  0.00  0.00    +0.000 A 
ATOM     26  C   UNL     1       7.708   6.739  17.829  0.00  0.00    +0.000 A 
ATOM     27  C   UNL     1       7.653   6.170  19.084  0.00  0.00    +0.000 A 
ATOM     28  C   UNL     1       6.628   5.266  19.404  0.00  0.00    +0.000 A 
ATOM     29  C   UNL     1       5.749   4.762  18.418  0.00  0.00    +0.000 A 
ENDBRANCH  18  19
ENDBRANCH  17  18
ENDBRANCH   2  17
TORSDOF 5
ENDMDL
MODEL 8
REMARK VINA RESULT:      -8.3      7.358      9.289
REMARK  Name = 
REMARK  6 active torsions:
REMARK  status: ('A' for Active; 'I' for Inactive)
REMARK    1  A    between atoms: C_1  and  N_2
REMARK    2  A    between atoms: C_6  and  C_7
REMARK    3  A    between atoms: C_11  and  N_12
REMARK    4  A    between atoms: C_13  and  C_15
REMARK    5  A    between atoms: C_15  and  O_16
REMARK    6  A    between atoms: O_16  and  C_17
REMARK                            x       y       z     vdW  Elec       q    Type
REMARK                         _______ _______ _______ _____ _____    ______ ____
ROOT
ATOM      1  N   UNL     1       1.893   7.999  19.637  0.00  0.00    +0.000 N 
ATOM      2  C   UNL     1       1.807   8.825  18.523  0.00  0.00    +0.000 C 
ATOM      3  O   UNL     1       2.166   8.533  17.384  0.00  0.00    +0.000 OA
ATOM      4  H   UNL     1       1.368   8.290  20.453  0.00  0.00    +0.000 HD
ENDROOT
BRANCH   1   9
ATOM      5  C   UNL     1       4.417   5.303  19.226  0.00  0.00    +0.000 A 
ATOM      6  C   UNL     1       3.746   4.221  19.811  0.00  0.00    +0.000 A 
ATOM      7  C   UNL     1       2.445   4.357  20.278  0.00  0.00    +0.000 A 
ATOM      8  C   UNL     1       1.802   5.591  20.199  0.00  0.00    +0.000 A 
ATOM      9  C   UNL     1       2.463   6.703  19.667  0.00  0.00    +0.000 A 
ATOM     10  C   UNL     1       3.758   6.541  19.150  0.00  0.00    +0.000 A 
BRANCH   5  16
ATOM     11  C   UNL     1       5.536   4.227  16.439  0.00  0.00    +0.000 C 
ATOM     12  N   UNL     1       6.278   4.633  17.598  0.00  0.00    +0.000 N 
ATOM     13  C   UNL     1       7.630   4.545  17.726  0.00  0.00    +0.000 A 
ATOM     14  N   UNL     1       7.990   4.926  18.918  0.00  0.00    +0.000 NA
ATOM     15  N   UNL     1       6.854   5.263  19.602  0.00  0.00    +0.000 NA
ATOM     16  C   UNL     1       5.805   5.091  18.809  0.00  0.00    +0.000 A 
ENDBRANCH   5  16
ENDBRANCH   1   9
BRANCH   2  17
ATOM     17  C   UNL     1       1.264  10.226  18.831  0.00  0.00    +0.000 C 
BRANCH  17  18
ATOM     18  O   UNL     1       0.074  10.292  19.619  0.00  0.00    +0.000 OA
BRANCH  18  19
ATOM     19  C   UNL     1      -1.075  10.633  18.921  0.00  0.00    +0.000 A 
ATOM     20  C   UNL     1      -1.351  10.132  17.639  0.00  0.00    +0.000 A 
ATOM     21  C   UNL     1      -2.520  10.477  16.976  0.00  0.00    +0.000 A 
ATOM     22  C   UNL     1      -3.488  11.238  17.618  0.00  0.00    +0.000 A 
ATOM     23 CL   UNL     1      -4.872  11.694  16.679  0.00  0.00    +0.000 Cl
ATOM     24  C   UNL     1      -3.267  11.737  18.917  0.00  0.00    +0.000 A 
ATOM     25  C   UNL     1      -4.258  12.477  19.596  0.00  0.00    +0.000 A 
ATOM     26  C   UNL     1      -3.929  13.282  20.682  0.00  0.00    +0.000 A 
ATOM     27  C   UNL     1      -2.639  13.254  21.172  0.00  0.00    +0.000 A 
ATOM     28  C   UNL     1      -1.713  12.330  20.665  0.00  0.00    +0.000 A 
ATOM     29  C   UNL     1      -1.997  11.544  19.524  0.00  0.00    +0.000 A 
ENDBRANCH  18  19
ENDBRANCH  17  18
ENDBRANCH   2  17
TORSDOF 5
ENDMDL
MODEL 9
REMARK VINA RESULT:      -8.2      6.987      8.810
REMARK  Name = 
REMARK  6 active torsions:
REMARK  status: ('A' for Active; 'I' for Inactive)
REMARK    1  A    between atoms: C_1  and  N_2
REMARK    2  A    between atoms: C_6  and  C_7
REMARK    3  A    between atoms: C_11  and  N_12
REMARK    4  A    between atoms: C_13  and  C_15
REMARK    5  A    between atoms: C_15  and  O_16
REMARK    6  A    between atoms: O_16  and  C_17
REMARK                            x       y       z     vdW  Elec       q    Type
REMARK                         _______ _______ _______ _____ _____    ______ ____
ROOT
ATOM      1  N   UNL     1       1.673   6.702  20.719  0.00  0.00    +0.000 N 
ATOM      2  C   UNL     1       1.698   7.902  20.018  0.00  0.00    +0.000 C 
ATOM      3  O   UNL     1       2.278   8.099  18.953  0.00  0.00    +0.000 OA
ATOM      4  H   UNL     1       0.987   6.629  21.461  0.00  0.00    +0.000 HD
ENDROOT
BRANCH   1   9
ATOM      5  C   UNL     1       4.319   4.515  19.298  0.00  0.00    +0.000 A 
ATOM      6  C   UNL     1       3.877   3.254  19.722  0.00  0.00    +0.000 A 
ATOM      7  C   UNL     1       2.679   3.115  20.412  0.00  0.00    +0.000 A 
ATOM      8  C   UNL     1       1.919   4.241  20.723  0.00  0.00    +0.000 A 
ATOM      9  C   UNL     1       2.359   5.517  20.359  0.00  0.00    +0.000 A 
ATOM     10  C   UNL     1       3.543   5.641  19.615  0.00  0.00    +0.000 A 
BRANCH   5  16
ATOM     11  C   UNL     1       5.001   4.128  16.205  0.00  0.00    +0.000 C 
ATOM     12  N   UNL     1       5.900   4.422  17.284  0.00  0.00    +0.000 N 
ATOM     13  C   UNL     1       7.253   4.507  17.168  0.00  0.00    +0.000 A 
ATOM     14  N   UNL     1       7.789   4.716  18.336  0.00  0.00    +0.000 NA
ATOM     15  N   UNL     1       6.774   4.758  19.251  0.00  0.00    +0.000 NA
ATOM     16  C   UNL     1       5.618   4.582  18.624  0.00  0.00    +0.000 A 
ENDBRANCH   5  16
ENDBRANCH   1   9
BRANCH   2  17
ATOM     17  C   UNL     1       0.969   9.050  20.729  0.00  0.00    +0.000 C 
BRANCH  17  18
ATOM     18  O   UNL     1       0.971  10.316  20.067  0.00  0.00    +0.000 OA
BRANCH  18  19
ATOM     19  C   UNL     1      -0.194  10.622  19.381  0.00  0.00    +0.000 A 
ATOM     20  C   UNL     1      -0.515  10.036  18.147  0.00  0.00    +0.000 A 
ATOM     21  C   UNL     1      -1.699  10.349  17.495  0.00  0.00    +0.000 A 
ATOM     22  C   UNL     1      -2.638  11.166  18.110  0.00  0.00    +0.000 A 
ATOM     23 CL   UNL     1      -4.045  11.573  17.182  0.00  0.00    +0.000 Cl
ATOM     24  C   UNL     1      -2.373  11.753  19.364  0.00  0.00    +0.000 A 
ATOM     25  C   UNL     1      -3.335  12.551  20.018  0.00  0.00    +0.000 A 
ATOM     26  C   UNL     1      -2.964  13.426  21.034  0.00  0.00    +0.000 A 
ATOM     27  C   UNL     1      -1.661  13.415  21.486  0.00  0.00    +0.000 A 
ATOM     28  C   UNL     1      -0.760  12.445  21.019  0.00  0.00    +0.000 A 
ATOM     29  C   UNL     1      -1.088  11.586  19.945  0.00  0.00    +0.000 A 
ENDBRANCH  18  19
ENDBRANCH  17  18
ENDBRANCH   2  17
TORSDOF 5
ENDMDL
