MODEL 1
REMARK VINA RESULT:      -8.2      0.000      0.000
REMARK  Name = 
REMARK  7 active torsions:
REMARK  status: ('A' for Active; 'I' for Inactive)
REMARK    1  A    between atoms: C_1  and  C_2
REMARK    2  A    between atoms: C_2  and  C_3
REMARK    3  A    between atoms: C_2  and  C_27
REMARK    4  A    between atoms: C_7  and  N_8
REMARK    5  A    between atoms: C_13  and  N_14
REMARK    6  A    between atoms: C_19  and  C_20
REMARK    7  A    between atoms: N_31  and  C_32
REMARK                            x       y       z     vdW  Elec       q    Type
REMARK                         _______ _______ _______ _____ _____    ______ ____
ROOT
ATOM      1  N   UNL     1       3.709   5.070  19.183  0.00  0.00    +0.000 N 
ATOM      2  C   UNL     1       5.098   5.562  19.368  0.00  0.00    +0.000 C 
ATOM      3  C   UNL     1       5.716   5.248  18.039  0.00  0.00    +0.000 A 
ATOM      4  C   UNL     1       5.028   4.157  17.508  0.00  0.00    +0.000 A 
ATOM      5  C   UNL     1       5.252   3.675  16.232  0.00  0.00    +0.000 A 
ATOM      6  C   UNL     1       6.196   4.329  15.434  0.00  0.00    +0.000 A 
ATOM      7  C   UNL     1       6.864   5.459  15.955  0.00  0.00    +0.000 A 
ATOM      8  C   UNL     1       6.638   5.942  17.266  0.00  0.00    +0.000 A 
ATOM      9  C   UNL     1       3.806   3.951  18.326  0.00  0.00    +0.000 C 
ATOM     10  O   UNL     1       2.980   3.089  18.106  0.00  0.00    +0.000 OA
ENDROOT
BRANCH   1  15
ATOM     11  C   UNL     1       1.911   8.267  19.461  0.00  0.00    +0.000 A 
ATOM     12  C   UNL     1       2.447   8.881  18.319  0.00  0.00    +0.000 A 
ATOM     13  C   UNL     1       3.006   8.114  17.303  0.00  0.00    +0.000 A 
ATOM     14  C   UNL     1       3.138   6.741  17.462  0.00  0.00    +0.000 A 
ATOM     15  C   UNL     1       2.866   6.162  18.710  0.00  0.00    +0.000 A 
ATOM     16  C   UNL     1       2.137   6.894  19.656  0.00  0.00    +0.000 A 
BRANCH  11  18
ATOM     17  C   UNL     1       0.404   8.216  21.469  0.00  0.00    +0.000 C 
ATOM     18  C   UNL     1       1.154   9.110  20.476  0.00  0.00    +0.000 C 
BRANCH  18  19
ATOM     19  C   UNL     1       0.243  10.123  19.838  0.00  0.00    +0.000 A 
ATOM     20  N   UNL     1      -0.873   9.874  19.173  0.00  0.00    +0.000 NA
ATOM     21  N   UNL     1      -1.404  11.067  18.760  0.00  0.00    +0.000 NA
ATOM     22  C   UNL     1      -0.610  12.024  19.171  0.00  0.00    +0.000 A 
ATOM     23  N   UNL     1       0.437  11.485  19.857  0.00  0.00    +0.000 N 
ATOM     24  C   UNL     1       1.516  12.227  20.454  0.00  0.00    +0.000 C 
ENDBRANCH  18  19
ENDBRANCH  11  18
ENDBRANCH   1  15
BRANCH   6  25
ATOM     25  N   UNL     1       6.413   3.906  14.110  0.00  0.00    +0.000 N 
ATOM     26  C   UNL     1       5.507   3.370  13.146  0.00  0.00    +0.000 C 
ATOM     27  C   UNL     1       6.285   4.116  12.066  0.00  0.00    +0.000 C 
ATOM     28  C   UNL     1       7.311   4.455  13.143  0.00  0.00    +0.000 C 
ENDBRANCH   6  25
BRANCH   8  29
ATOM     29  C   UNL     1       7.311   7.220  17.695  0.00  0.00    +0.000 C 
ATOM     30  F   UNL     1       6.455   8.251  17.929  0.00  0.00    +0.000 F 
ATOM     31  F   UNL     1       8.022   7.065  18.845  0.00  0.00    +0.000 F 
ATOM     32  F   UNL     1       8.195   7.678  16.767  0.00  0.00    +0.000 F 
ENDBRANCH   8  29
TORSDOF 5
ENDMDL
MODEL 2
REMARK VINA RESULT:      -8.1      4.121      8.971
REMARK  Name = 
REMARK  7 active torsions:
REMARK  status: ('A' for Active; 'I' for Inactive)
REMARK    1  A    between atoms: C_1  and  C_2
REMARK    2  A    between atoms: C_2  and  C_3
REMARK    3  A    between atoms: C_2  and  C_27
REMARK    4  A    between atoms: C_7  and  N_8
REMARK    5  A    between atoms: C_13  and  N_14
REMARK    6  A    between atoms: C_19  and  C_20
REMARK    7  A    between atoms: N_31  and  C_32
REMARK                            x       y       z     vdW  Elec       q    Type
REMARK                         _______ _______ _______ _____ _____    ______ ____
ROOT
ATOM      1  N   UNL     1       0.531   8.624  21.005  0.00  0.00    +0.000 N 
ATOM      2  C   UNL     1      -0.746   8.754  20.258  0.00  0.00    +0.000 C 
ATOM      3  C   UNL     1      -0.810  10.231  20.014  0.00  0.00    +0.000 A 
ATOM      4  C   UNL     1      -0.103  10.854  21.042  0.00  0.00    +0.000 A 
ATOM      5  C   UNL     1       0.148  12.213  21.067  0.00  0.00    +0.000 A 
ATOM      6  C   UNL     1      -0.310  12.990  19.998  0.00  0.00    +0.000 A 
ATOM      7  C   UNL     1      -0.991  12.355  18.937  0.00  0.00    +0.000 A 
ATOM      8  C   UNL     1      -1.255  10.965  18.922  0.00  0.00    +0.000 A 
ATOM      9  C   UNL     1       0.653   9.804  21.771  0.00  0.00    +0.000 C 
ATOM     10  O   UNL     1       1.389  10.028  22.711  0.00  0.00    +0.000 OA
ENDROOT
BRANCH   1  15
ATOM     11  C   UNL     1       2.650   6.524  18.853  0.00  0.00    +0.000 A 
ATOM     12  C   UNL     1       2.514   7.271  17.674  0.00  0.00    +0.000 A 
ATOM     13  C   UNL     1       2.123   8.604  17.726  0.00  0.00    +0.000 A 
ATOM     14  C   UNL     1       1.756   9.174  18.938  0.00  0.00    +0.000 A 
ATOM     15  C   UNL     1       1.617   8.357  20.069  0.00  0.00    +0.000 A 
ATOM     16  C   UNL     1       2.183   7.076  20.058  0.00  0.00    +0.000 A 
BRANCH  11  18
ATOM     17  C   UNL     1       4.138   4.974  17.553  0.00  0.00    +0.000 C 
ATOM     18  C   UNL     1       3.241   5.124  18.786  0.00  0.00    +0.000 C 
BRANCH  18  19
ATOM     19  C   UNL     1       2.199   4.041  18.854  0.00  0.00    +0.000 A 
ATOM     20  N   UNL     1       1.515   3.538  17.840  0.00  0.00    +0.000 NA
ATOM     21  N   UNL     1       0.674   2.572  18.325  0.00  0.00    +0.000 NA
ATOM     22  C   UNL     1       0.850   2.499  19.620  0.00  0.00    +0.000 A 
ATOM     23  N   UNL     1       1.801   3.397  20.003  0.00  0.00    +0.000 N 
ATOM     24  C   UNL     1       2.257   3.609  21.351  0.00  0.00    +0.000 C 
ENDBRANCH  18  19
ENDBRANCH  11  18
ENDBRANCH   1  15
BRANCH   6  25
ATOM     25  N   UNL     1      -0.026  14.367  19.956  0.00  0.00    +0.000 N 
ATOM     26  C   UNL     1       0.902  15.099  19.155  0.00  0.00    +0.000 C 
ATOM     27  C   UNL     1      -0.111  16.239  19.104  0.00  0.00    +0.000 C 
ATOM     28  C   UNL     1      -0.928  15.461  20.133  0.00  0.00    +0.000 C 
ENDBRANCH   6  25
BRANCH   8  29
ATOM     29  C   UNL     1      -1.885  10.358  17.695  0.00  0.00    +0.000 C 
ATOM     30  F   UNL     1      -1.080   9.493  17.022  0.00  0.00    +0.000 F 
ATOM     31  F   UNL     1      -3.013   9.655  17.992  0.00  0.00    +0.000 F 
ATOM     32  F   UNL     1      -2.260  11.298  16.785  0.00  0.00    +0.000 F 
ENDBRANCH   8  29
TORSDOF 5
ENDMDL
MODEL 3
REMARK VINA RESULT:      -8.0      4.325      9.075
REMARK  Name = 
REMARK  7 active torsions:
REMARK  status: ('A' for Active; 'I' for Inactive)
REMARK    1  A    between atoms: C_1  and  C_2
REMARK    2  A    between atoms: C_2  and  C_3
REMARK    3  A    between atoms: C_2  and  C_27
REMARK    4  A    between atoms: C_7  and  N_8
REMARK    5  A    between atoms: C_13  and  N_14
REMARK    6  A    between atoms: C_19  and  C_20
REMARK    7  A    between atoms: N_31  and  C_32
REMARK                            x       y       z     vdW  Elec       q    Type
REMARK                         _______ _______ _______ _____ _____    ______ ____
ROOT
ATOM      1  N   UNL     1       0.178   9.013  20.934  0.00  0.00    +0.000 N 
ATOM      2  C   UNL     1      -1.024   9.016  20.062  0.00  0.00    +0.000 C 
ATOM      3  C   UNL     1      -1.107  10.456  19.657  0.00  0.00    +0.000 A 
ATOM      4  C   UNL     1      -0.520  11.209  20.673  0.00  0.00    +0.000 A 
ATOM      5  C   UNL     1      -0.310  12.572  20.575  0.00  0.00    +0.000 A 
ATOM      6  C   UNL     1      -0.686  13.216  19.392  0.00  0.00    +0.000 A 
ATOM      7  C   UNL     1      -1.244  12.448  18.346  0.00  0.00    +0.000 A 
ATOM      8  C   UNL     1      -1.465  11.055  18.456  0.00  0.00    +0.000 A 
ATOM      9  C   UNL     1       0.193  10.271  21.577  0.00  0.00    +0.000 C 
ATOM     10  O   UNL     1       0.829  10.618  22.551  0.00  0.00    +0.000 OA
ENDROOT
BRANCH   1  15
ATOM     11  C   UNL     1       2.625   6.782  19.332  0.00  0.00    +0.000 A 
ATOM     12  C   UNL     1       2.532   7.306  18.035  0.00  0.00    +0.000 A 
ATOM     13  C   UNL     1       2.035   8.588  17.826  0.00  0.00    +0.000 A 
ATOM     14  C   UNL     1       1.526   9.317  18.892  0.00  0.00    +0.000 A 
ATOM     15  C   UNL     1       1.356   8.692  20.136  0.00  0.00    +0.000 A 
ATOM     16  C   UNL     1       2.018   7.484  20.388  0.00  0.00    +0.000 A 
BRANCH  11  18
ATOM     17  C   UNL     1       4.800   5.540  19.142  0.00  0.00    +0.000 C 
ATOM     18  C   UNL     1       3.326   5.450  19.551  0.00  0.00    +0.000 C 
BRANCH  18  19
ATOM     19  C   UNL     1       2.629   4.301  18.876  0.00  0.00    +0.000 A 
ATOM     20  N   UNL     1       2.825   3.873  17.639  0.00  0.00    +0.000 NA
ATOM     21  N   UNL     1       1.997   2.805  17.416  0.00  0.00    +0.000 NA
ATOM     22  C   UNL     1       1.308   2.595  18.509  0.00  0.00    +0.000 A 
ATOM     23  N   UNL     1       1.670   3.504  19.459  0.00  0.00    +0.000 N 
ATOM     24  C   UNL     1       1.123   3.588  20.787  0.00  0.00    +0.000 C 
ENDBRANCH  18  19
ENDBRANCH  11  18
ENDBRANCH   1  15
BRANCH   6  25
ATOM     25  N   UNL     1      -0.438  14.590  19.228  0.00  0.00    +0.000 N 
ATOM     26  C   UNL     1      -0.986  15.720  19.908  0.00  0.00    +0.000 C 
ATOM     27  C   UNL     1       0.379  16.394  19.792  0.00  0.00    +0.000 C 
ATOM     28  C   UNL     1       0.794  15.232  18.894  0.00  0.00    +0.000 C 
ENDBRANCH   6  25
BRANCH   8  29
ATOM     29  C   UNL     1      -1.958  10.300  17.248  0.00  0.00    +0.000 C 
ATOM     30  F   UNL     1      -2.237  11.086  16.174  0.00  0.00    +0.000 F 
ATOM     31  F   UNL     1      -1.051   9.385  16.809  0.00  0.00    +0.000 F 
ATOM     32  F   UNL     1      -3.099   9.603  17.502  0.00  0.00    +0.000 F 
ENDBRANCH   8  29
TORSDOF 5
ENDMDL
MODEL 4
REMARK VINA RESULT:      -8.0      3.628      8.937
REMARK  Name = 
REMARK  7 active torsions:
REMARK  status: ('A' for Active; 'I' for Inactive)
REMARK    1  A    between atoms: C_1  and  C_2
REMARK    2  A    between atoms: C_2  and  C_3
REMARK    3  A    between atoms: C_2  and  C_27
REMARK    4  A    between atoms: C_7  and  N_8
REMARK    5  A    between atoms: C_13  and  N_14
REMARK    6  A    between atoms: C_19  and  C_20
REMARK    7  A    between atoms: N_31  and  C_32
REMARK                            x       y       z     vdW  Elec       q    Type
REMARK                         _______ _______ _______ _____ _____    ______ ____
ROOT
ATOM      1  N   UNL     1       0.716   8.371  21.131  0.00  0.00    +0.000 N 
ATOM      2  C   UNL     1      -0.555   8.624  20.406  0.00  0.00    +0.000 C 
ATOM      3  C   UNL     1      -0.517  10.112  20.228  0.00  0.00    +0.000 A 
ATOM      4  C   UNL     1       0.242  10.637  21.274  0.00  0.00    +0.000 A 
ATOM      5  C   UNL     1       0.590  11.972  21.355  0.00  0.00    +0.000 A 
ATOM      6  C   UNL     1       0.178  12.826  20.327  0.00  0.00    +0.000 A 
ATOM      7  C   UNL     1      -0.556  12.289  19.247  0.00  0.00    +0.000 A 
ATOM      8  C   UNL     1      -0.918  10.922  19.174  0.00  0.00    +0.000 A 
ATOM      9  C   UNL     1       0.929   9.505  21.946  0.00  0.00    +0.000 C 
ATOM     10  O   UNL     1       1.687   9.633  22.886  0.00  0.00    +0.000 OA
ENDROOT
BRANCH   1  15
ATOM     11  C   UNL     1       2.773   6.193  18.997  0.00  0.00    +0.000 A 
ATOM     12  C   UNL     1       2.595   6.891  17.794  0.00  0.00    +0.000 A 
ATOM     13  C   UNL     1       2.198   8.224  17.804  0.00  0.00    +0.000 A 
ATOM     14  C   UNL     1       1.869   8.841  19.004  0.00  0.00    +0.000 A 
ATOM     15  C   UNL     1       1.772   8.070  20.171  0.00  0.00    +0.000 A 
ATOM     16  C   UNL     1       2.343   6.792  20.193  0.00  0.00    +0.000 A 
BRANCH  11  18
ATOM     17  C   UNL     1       2.969   4.008  20.220  0.00  0.00    +0.000 C 
ATOM     18  C   UNL     1       3.368   4.794  18.967  0.00  0.00    +0.000 C 
BRANCH  18  19
ATOM     19  C   UNL     1       4.858   4.793  18.758  0.00  0.00    +0.000 A 
ATOM     20  N   UNL     1       5.785   5.028  19.672  0.00  0.00    +0.000 NA
ATOM     21  N   UNL     1       7.014   4.927  19.076  0.00  0.00    +0.000 NA
ATOM     22  C   UNL     1       6.825   4.635  17.813  0.00  0.00    +0.000 A 
ATOM     23  N   UNL     1       5.489   4.535  17.562  0.00  0.00    +0.000 N 
ATOM     24  C   UNL     1       4.899   4.233  16.285  0.00  0.00    +0.000 C 
ENDBRANCH  18  19
ENDBRANCH  11  18
ENDBRANCH   1  15
BRANCH   6  25
ATOM     25  N   UNL     1       0.559  14.180  20.341  0.00  0.00    +0.000 N 
ATOM     26  C   UNL     1       1.361  14.909  21.269  0.00  0.00    +0.000 C 
ATOM     27  C   UNL     1       1.907  15.716  20.094  0.00  0.00    +0.000 C 
ATOM     28  C   UNL     1       0.857  15.025  19.228  0.00  0.00    +0.000 C 
ENDBRANCH   6  25
BRANCH   8  29
ATOM     29  C   UNL     1      -1.601  10.417  17.930  0.00  0.00    +0.000 C 
ATOM     30  F   UNL     1      -1.959  11.393  17.053  0.00  0.00    +0.000 F 
ATOM     31  F   UNL     1      -0.815   9.559  17.224  0.00  0.00    +0.000 F 
ATOM     32  F   UNL     1      -2.745   9.733  18.207  0.00  0.00    +0.000 F 
ENDBRANCH   8  29
TORSDOF 5
ENDMDL
MODEL 5
REMARK VINA RESULT:      -7.9      0.744      1.484
REMARK  Name = 
REMARK  7 active torsions:
REMARK  status: ('A' for Active; 'I' for Inactive)
REMARK    1  A    between atoms: C_1  and  C_2
REMARK    2  A    between atoms: C_2  and  C_3
REMARK    3  A    between atoms: C_2  and  C_27
REMARK    4  A    between atoms: C_7  and  N_8
REMARK    5  A    between atoms: C_13  and  N_14
REMARK    6  A    between atoms: C_19  and  C_20
REMARK    7  A    between atoms: N_31  and  C_32
REMARK                            x       y       z     vdW  Elec       q    Type
REMARK                         _______ _______ _______ _____ _____    ______ ____
ROOT
ATOM      1  N   UNL     1       3.622   4.853  19.091  0.00  0.00    +0.000 N 
ATOM      2  C   UNL     1       5.028   5.311  19.231  0.00  0.00    +0.000 C 
ATOM      3  C   UNL     1       5.542   5.161  17.831  0.00  0.00    +0.000 A 
ATOM      4  C   UNL     1       4.802   4.148  17.222  0.00  0.00    +0.000 A 
ATOM      5  C   UNL     1       4.925   3.826  15.883  0.00  0.00    +0.000 A 
ATOM      6  C   UNL     1       5.817   4.569  15.104  0.00  0.00    +0.000 A 
ATOM      7  C   UNL     1       6.537   5.622  15.710  0.00  0.00    +0.000 A 
ATOM      8  C   UNL     1       6.415   5.940  17.083  0.00  0.00    +0.000 A 
ATOM      9  C   UNL     1       3.640   3.848  18.098  0.00  0.00    +0.000 C 
ATOM     10  O   UNL     1       2.788   3.025  17.835  0.00  0.00    +0.000 OA
ENDROOT
BRANCH   1  15
ATOM     11  C   UNL     1       1.831   7.957  19.918  0.00  0.00    +0.000 A 
ATOM     12  C   UNL     1       2.328   8.743  18.867  0.00  0.00    +0.000 A 
ATOM     13  C   UNL     1       2.853   8.145  17.727  0.00  0.00    +0.000 A 
ATOM     14  C   UNL     1       2.991   6.765  17.668  0.00  0.00    +0.000 A 
ATOM     15  C   UNL     1       2.762   6.000  18.820  0.00  0.00    +0.000 A 
ATOM     16  C   UNL     1       2.065   6.572  19.891  0.00  0.00    +0.000 A 
BRANCH  11  18
ATOM     17  C   UNL     1      -0.217   7.920  21.371  0.00  0.00    +0.000 C 
ATOM     18  C   UNL     1       1.109   8.629  21.075  0.00  0.00    +0.000 C 
BRANCH  18  19
ATOM     19  C   UNL     1       0.918  10.107  20.872  0.00  0.00    +0.000 A 
ATOM     20  N   UNL     1       1.580  11.081  21.475  0.00  0.00    +0.000 NA
ATOM     21  N   UNL     1       1.109  12.278  21.007  0.00  0.00    +0.000 NA
ATOM     22  C   UNL     1       0.169  12.025  20.130  0.00  0.00    +0.000 A 
ATOM     23  N   UNL     1       0.014  10.677  20.004  0.00  0.00    +0.000 N 
ATOM     24  C   UNL     1      -0.930  10.021  19.138  0.00  0.00    +0.000 C 
ENDBRANCH  18  19
ENDBRANCH  11  18
ENDBRANCH   1  15
BRANCH   6  25
ATOM     25  N   UNL     1       5.930   4.314  13.726  0.00  0.00    +0.000 N 
ATOM     26  C   UNL     1       7.086   4.169  12.900  0.00  0.00    +0.000 C 
ATOM     27  C   UNL     1       6.327   3.111  12.103  0.00  0.00    +0.000 C 
ATOM     28  C   UNL     1       5.089   3.499  12.906  0.00  0.00    +0.000 C 
ENDBRANCH   6  25
BRANCH   8  29
ATOM     29  C   UNL     1       7.136   7.152  17.616  0.00  0.00    +0.000 C 
ATOM     30  F   UNL     1       7.804   6.937  18.781  0.00  0.00    +0.000 F 
ATOM     31  F   UNL     1       8.065   7.622  16.740  0.00  0.00    +0.000 F 
ATOM     32  F   UNL     1       6.292   8.192  17.860  0.00  0.00    +0.000 F 
ENDBRANCH   8  29
TORSDOF 5
ENDMDL
MODEL 6
REMARK VINA RESULT:      -7.8      3.509      8.685
REMARK  Name = 
REMARK  7 active torsions:
REMARK  status: ('A' for Active; 'I' for Inactive)
REMARK    1  A    between atoms: C_1  and  C_2
REMARK    2  A    between atoms: C_2  and  C_3
REMARK    3  A    between atoms: C_2  and  C_27
REMARK    4  A    between atoms: C_7  and  N_8
REMARK    5  A    between atoms: C_13  and  N_14
REMARK    6  A    between atoms: C_19  and  C_20
REMARK    7  A    between atoms: N_31  and  C_32
REMARK                            x       y       z     vdW  Elec       q    Type
REMARK                         _______ _______ _______ _____ _____    ______ ____
ROOT
ATOM      1  N   UNL     1       2.540   8.513  19.279  0.00  0.00    +0.000 N 
ATOM      2  C   UNL     1       2.142   9.173  20.548  0.00  0.00    +0.000 C 
ATOM      3  C   UNL     1       0.800   9.739  20.193  0.00  0.00    +0.000 A 
ATOM      4  C   UNL     1       0.797   9.972  18.818  0.00  0.00    +0.000 A 
ATOM      5  C   UNL     1      -0.329  10.378  18.125  0.00  0.00    +0.000 A 
ATOM      6  C   UNL     1      -1.521  10.538  18.838  0.00  0.00    +0.000 A 
ATOM      7  C   UNL     1      -1.530  10.263  20.223  0.00  0.00    +0.000 A 
ATOM      8  C   UNL     1      -0.372   9.858  20.928  0.00  0.00    +0.000 A 
ATOM      9  C   UNL     1       1.991   9.302  18.244  0.00  0.00    +0.000 C 
ATOM     10  O   UNL     1       2.263   9.298  17.060  0.00  0.00    +0.000 OA
ENDROOT
BRANCH   1  15
ATOM     11  C   UNL     1       2.965   4.885  18.846  0.00  0.00    +0.000 A 
ATOM     12  C   UNL     1       2.539   4.495  20.124  0.00  0.00    +0.000 A 
ATOM     13  C   UNL     1       1.746   5.341  20.892  0.00  0.00    +0.000 A 
ATOM     14  C   UNL     1       1.464   6.624  20.443  0.00  0.00    +0.000 A 
ATOM     15  C   UNL     1       2.120   7.116  19.305  0.00  0.00    +0.000 A 
ATOM     16  C   UNL     1       2.759   6.215  18.444  0.00  0.00    +0.000 A 
BRANCH  11  18
ATOM     17  C   UNL     1       3.394   2.447  18.421  0.00  0.00    +0.000 C 
ATOM     18  C   UNL     1       3.685   3.879  17.961  0.00  0.00    +0.000 C 
BRANCH  18  19
ATOM     19  C   UNL     1       5.162   4.142  17.853  0.00  0.00    +0.000 A 
ATOM     20  N   UNL     1       6.023   4.240  18.852  0.00  0.00    +0.000 NA
ATOM     21  N   UNL     1       7.266   4.478  18.329  0.00  0.00    +0.000 NA
ATOM     22  C   UNL     1       7.151   4.526  17.025  0.00  0.00    +0.000 A 
ATOM     23  N   UNL     1       5.851   4.316  16.674  0.00  0.00    +0.000 N 
ATOM     24  C   UNL     1       5.340   4.302  15.329  0.00  0.00    +0.000 C 
ENDBRANCH  18  19
ENDBRANCH  11  18
ENDBRANCH   1  15
BRANCH   6  25
ATOM     25  N   UNL     1      -2.703  10.894  18.163  0.00  0.00    +0.000 N 
ATOM     26  C   UNL     1      -3.498  10.159  17.233  0.00  0.00    +0.000 C 
ATOM     27  C   UNL     1      -4.735  10.816  17.841  0.00  0.00    +0.000 C 
ATOM     28  C   UNL     1      -3.781  11.704  18.636  0.00  0.00    +0.000 C 
ENDBRANCH   6  25
BRANCH   8  29
ATOM     29  C   UNL     1      -0.502   9.477  22.380  0.00  0.00    +0.000 C 
ATOM     30  F   UNL     1       0.665   9.525  23.078  0.00  0.00    +0.000 F 
ATOM     31  F   UNL     1      -1.365  10.289  23.050  0.00  0.00    +0.000 F 
ATOM     32  F   UNL     1      -0.978   8.212  22.544  0.00  0.00    +0.000 F 
ENDBRANCH   8  29
TORSDOF 5
ENDMDL
MODEL 7
REMARK VINA RESULT:      -7.8      7.103     10.204
REMARK  Name = 
REMARK  7 active torsions:
REMARK  status: ('A' for Active; 'I' for Inactive)
REMARK    1  A    between atoms: C_1  and  C_2
REMARK    2  A    between atoms: C_2  and  C_3
REMARK    3  A    between atoms: C_2  and  C_27
REMARK    4  A    between atoms: C_7  and  N_8
REMARK    5  A    between atoms: C_13  and  N_14
REMARK    6  A    between atoms: C_19  and  C_20
REMARK    7  A    between atoms: N_31  and  C_32
REMARK                            x       y       z     vdW  Elec       q    Type
REMARK                         _______ _______ _______ _____ _____    ______ ____
ROOT
ATOM      1  N   UNL     1      -0.408  11.564  18.576  0.00  0.00    +0.000 N 
ATOM      2  C   UNL     1       0.396  10.795  19.561  0.00  0.00    +0.000 C 
ATOM      3  C   UNL     1      -0.137  11.311  20.863  0.00  0.00    +0.000 A 
ATOM      4  C   UNL     1      -0.601  12.607  20.639  0.00  0.00    +0.000 A 
ATOM      5  C   UNL     1      -1.274  13.342  21.597  0.00  0.00    +0.000 A 
ATOM      6  C   UNL     1      -1.518  12.744  22.839  0.00  0.00    +0.000 A 
ATOM      7  C   UNL     1      -1.084  11.418  23.053  0.00  0.00    +0.000 A 
ATOM      8  C   UNL     1      -0.387  10.674  22.071  0.00  0.00    +0.000 A 
ATOM      9  C   UNL     1      -0.645  12.824  19.171  0.00  0.00    +0.000 C 
ATOM     10  O   UNL     1      -1.030  13.850  18.648  0.00  0.00    +0.000 OA
ENDROOT
BRANCH   1  15
ATOM     11  C   UNL     1      -3.966  11.092  17.772  0.00  0.00    +0.000 A 
ATOM     12  C   UNL     1      -3.792  10.410  16.559  0.00  0.00    +0.000 A 
ATOM     13  C   UNL     1      -2.592   9.767  16.277  0.00  0.00    +0.000 A 
ATOM     14  C   UNL     1      -1.517   9.889  17.148  0.00  0.00    +0.000 A 
ATOM     15  C   UNL     1      -1.594  10.798  18.213  0.00  0.00    +0.000 A 
ATOM     16  C   UNL     1      -2.847  11.293  18.598  0.00  0.00    +0.000 A 
BRANCH  11  18
ATOM     17  C   UNL     1      -5.820  12.632  17.067  0.00  0.00    +0.000 C 
ATOM     18  C   UNL     1      -5.338  11.640  18.131  0.00  0.00    +0.000 C 
BRANCH  18  19
ATOM     19  C   UNL     1      -5.393  12.232  19.512  0.00  0.00    +0.000 A 
ATOM     20  N   UNL     1      -4.624  13.197  19.990  0.00  0.00    +0.000 NA
ATOM     21  N   UNL     1      -4.998  13.446  21.283  0.00  0.00    +0.000 NA
ATOM     22  C   UNL     1      -5.983  12.636  21.580  0.00  0.00    +0.000 A 
ATOM     23  N   UNL     1      -6.273  11.856  20.501  0.00  0.00    +0.000 N 
ATOM     24  C   UNL     1      -7.293  10.842  20.452  0.00  0.00    +0.000 C 
ENDBRANCH  18  19
ENDBRANCH  11  18
ENDBRANCH   1  15
BRANCH   6  25
ATOM     25  N   UNL     1      -2.249  13.435  23.821  0.00  0.00    +0.000 N 
ATOM     26  C   UNL     1      -2.359  14.834  24.086  0.00  0.00    +0.000 C 
ATOM     27  C   UNL     1      -3.817  14.601  24.470  0.00  0.00    +0.000 C 
ATOM     28  C   UNL     1      -3.529  13.105  24.365  0.00  0.00    +0.000 C 
ENDBRANCH   6  25
BRANCH   8  29
ATOM     29  C   UNL     1      -0.065   9.228  22.348  0.00  0.00    +0.000 C 
ATOM     30  F   UNL     1       1.238   8.896  22.141  0.00  0.00    +0.000 F 
ATOM     31  F   UNL     1      -0.332   8.880  23.637  0.00  0.00    +0.000 F 
ATOM     32  F   UNL     1      -0.791   8.377  21.573  0.00  0.00    +0.000 F 
ENDBRANCH   8  29
TORSDOF 5
ENDMDL
MODEL 8
REMARK VINA RESULT:      -7.7      4.529      8.838
REMARK  Name = 
REMARK  7 active torsions:
REMARK  status: ('A' for Active; 'I' for Inactive)
REMARK    1  A    between atoms: C_1  and  C_2
REMARK    2  A    between atoms: C_2  and  C_3
REMARK    3  A    between atoms: C_2  and  C_27
REMARK    4  A    between atoms: C_7  and  N_8
REMARK    5  A    between atoms: C_13  and  N_14
REMARK    6  A    between atoms: C_19  and  C_20
REMARK    7  A    between atoms: N_31  and  C_32
REMARK                            x       y       z     vdW  Elec       q    Type
REMARK                         _______ _______ _______ _____ _____    ______ ____
ROOT
ATOM      1  N   UNL     1       0.754   8.357  21.164  0.00  0.00    +0.000 N 
ATOM      2  C   UNL     1      -0.519   8.652  20.458  0.00  0.00    +0.000 C 
ATOM      3  C   UNL     1      -0.378  10.116  20.168  0.00  0.00    +0.000 A 
ATOM      4  C   UNL     1       0.452  10.657  21.151  0.00  0.00    +0.000 A 
ATOM      5  C   UNL     1       0.898  11.965  21.123  0.00  0.00    +0.000 A 
ATOM      6  C   UNL     1       0.516  12.771  20.046  0.00  0.00    +0.000 A 
ATOM      7  C   UNL     1      -0.291  12.214  19.029  0.00  0.00    +0.000 A 
ATOM      8  C   UNL     1      -0.753  10.877  19.069  0.00  0.00    +0.000 A 
ATOM      9  C   UNL     1       1.076   9.528  21.886  0.00  0.00    +0.000 C 
ATOM     10  O   UNL     1       1.872   9.666  22.792  0.00  0.00    +0.000 OA
ENDROOT
BRANCH   1  15
ATOM     11  C   UNL     1       2.341   5.970  18.859  0.00  0.00    +0.000 A 
ATOM     12  C   UNL     1       2.383   6.802  17.731  0.00  0.00    +0.000 A 
ATOM     13  C   UNL     1       2.307   8.184  17.871  0.00  0.00    +0.000 A 
ATOM     14  C   UNL     1       2.078   8.744  19.120  0.00  0.00    +0.000 A 
ATOM     15  C   UNL     1       1.752   7.909  20.200  0.00  0.00    +0.000 A 
ATOM     16  C   UNL     1       2.010   6.536  20.102  0.00  0.00    +0.000 A 
BRANCH  11  18
ATOM     17  C   UNL     1       1.874   3.938  17.459  0.00  0.00    +0.000 C 
ATOM     18  C   UNL     1       2.596   4.480  18.697  0.00  0.00    +0.000 C 
BRANCH  18  19
ATOM     19  C   UNL     1       2.260   3.687  19.931  0.00  0.00    +0.000 A 
ATOM     20  N   UNL     1       1.123   3.721  20.607  0.00  0.00    +0.000 NA
ATOM     21  N   UNL     1       1.220   2.851  21.659  0.00  0.00    +0.000 NA
ATOM     22  C   UNL     1       2.408   2.300  21.616  0.00  0.00    +0.000 A 
ATOM     23  N   UNL     1       3.098   2.787  20.547  0.00  0.00    +0.000 N 
ATOM     24  C   UNL     1       4.440   2.419  20.181  0.00  0.00    +0.000 C 
ENDBRANCH  18  19
ENDBRANCH  11  18
ENDBRANCH   1  15
BRANCH   6  25
ATOM     25  N   UNL     1       0.995  14.090  19.949  0.00  0.00    +0.000 N 
ATOM     26  C   UNL     1       0.342  15.287  19.526  0.00  0.00    +0.000 C 
ATOM     27  C   UNL     1       1.148  16.044  20.577  0.00  0.00    +0.000 C 
ATOM     28  C   UNL     1       1.933  14.754  20.798  0.00  0.00    +0.000 C 
ENDBRANCH   6  25
BRANCH   8  29
ATOM     29  C   UNL     1      -1.513  10.336  17.885  0.00  0.00    +0.000 C 
ATOM     30  F   UNL     1      -0.825   9.421  17.150  0.00  0.00    +0.000 F 
ATOM     31  F   UNL     1      -2.667   9.717  18.255  0.00  0.00    +0.000 F 
ATOM     32  F   UNL     1      -1.877  11.314  17.011  0.00  0.00    +0.000 F 
ENDBRANCH   8  29
TORSDOF 5
ENDMDL
MODEL 9
REMARK VINA RESULT:      -7.7      4.332      9.359
REMARK  Name = 
REMARK  7 active torsions:
REMARK  status: ('A' for Active; 'I' for Inactive)
REMARK    1  A    between atoms: C_1  and  C_2
REMARK    2  A    between atoms: C_2  and  C_3
REMARK    3  A    between atoms: C_2  and  C_27
REMARK    4  A    between atoms: C_7  and  N_8
REMARK    5  A    between atoms: C_13  and  N_14
REMARK    6  A    between atoms: C_19  and  C_20
REMARK    7  A    between atoms: N_31  and  C_32
REMARK                            x       y       z     vdW  Elec       q    Type
REMARK                         _______ _______ _______ _____ _____    ______ ____
ROOT
ATOM      1  N   UNL     1      -0.002   9.148  21.007  0.00  0.00    +0.000 N 
ATOM      2  C   UNL     1      -1.144   9.569  20.156  0.00  0.00    +0.000 C 
ATOM      3  C   UNL     1      -1.068  11.062  20.257  0.00  0.00    +0.000 A 
ATOM      4  C   UNL     1      -0.478  11.368  21.482  0.00  0.00    +0.000 A 
ATOM      5  C   UNL     1      -0.138  12.655  21.854  0.00  0.00    +0.000 A 
ATOM      6  C   UNL     1      -0.380  13.691  20.947  0.00  0.00    +0.000 A 
ATOM      7  C   UNL     1      -0.941  13.379  19.689  0.00  0.00    +0.000 A 
ATOM      8  C   UNL     1      -1.296  12.060  19.318  0.00  0.00    +0.000 A 
ATOM      9  C   UNL     1       0.089  10.111  22.036  0.00  0.00    +0.000 C 
ATOM     10  O   UNL     1       0.694  10.046  23.087  0.00  0.00    +0.000 OA
ENDROOT
BRANCH   1  15
ATOM     11  C   UNL     1       2.508   7.259  19.094  0.00  0.00    +0.000 A 
ATOM     12  C   UNL     1       2.409   7.980  17.896  0.00  0.00    +0.000 A 
ATOM     13  C   UNL     1       1.883   9.267  17.889  0.00  0.00    +0.000 A 
ATOM     14  C   UNL     1       1.349   9.805  19.053  0.00  0.00    +0.000 A 
ATOM     15  C   UNL     1       1.188   8.986  20.179  0.00  0.00    +0.000 A 
ATOM     16  C   UNL     1       1.878   7.769  20.242  0.00  0.00    +0.000 A 
BRANCH  11  18
ATOM     17  C   UNL     1       4.388   5.931  18.090  0.00  0.00    +0.000 C 
ATOM     18  C   UNL     1       3.241   5.926  19.105  0.00  0.00    +0.000 C 
BRANCH  18  19
ATOM     19  C   UNL     1       2.324   4.749  18.906  0.00  0.00    +0.000 A 
ATOM     20  N   UNL     1       1.839   4.310  17.756  0.00  0.00    +0.000 NA
ATOM     21  N   UNL     1       1.053   3.218  18.008  0.00  0.00    +0.000 NA
ATOM     22  C   UNL     1       1.064   3.005  19.301  0.00  0.00    +0.000 A 
ATOM     23  N   UNL     1       1.852   3.936  19.910  0.00  0.00    +0.000 N 
ATOM     24  C   UNL     1       2.100   4.024  21.325  0.00  0.00    +0.000 C 
ENDBRANCH  18  19
ENDBRANCH  11  18
ENDBRANCH   1  15
BRANCH   6  25
ATOM     25  N   UNL     1       0.003  15.007  21.262  0.00  0.00    +0.000 N 
ATOM     26  C   UNL     1       0.656  15.533  22.418  0.00  0.00    +0.000 C 
ATOM     27  C   UNL     1       1.383  16.516  21.504  0.00  0.00    +0.000 C 
ATOM     28  C   UNL     1       0.476  16.025  20.378  0.00  0.00    +0.000 C 
ENDBRANCH   6  25
BRANCH   8  29
ATOM     29  C   UNL     1      -1.782  11.806  17.914  0.00  0.00    +0.000 C 
ATOM     30  F   UNL     1      -3.132  11.888  17.766  0.00  0.00    +0.000 F 
ATOM     31  F   UNL     1      -1.260  12.692  17.022  0.00  0.00    +0.000 F 
ATOM     32  F   UNL     1      -1.435  10.571  17.460  0.00  0.00    +0.000 F 
ENDBRANCH   8  29
TORSDOF 5
ENDMDL
