MODEL 1
REMARK VINA RESULT:      -9.6      0.000      0.000
REMARK  Name = 
REMARK  3 active torsions:
REMARK  status: ('A' for Active; 'I' for Inactive)
REMARK    1  A    between atoms: C_2  and  C_20
REMARK    2  A    between atoms: N_3  and  C_4
REMARK    3  A    between atoms: C_7  and  C_8
REMARK                            x       y       z     vdW  Elec       q    Type
REMARK                         _______ _______ _______ _____ _____    ______ ____
ROOT
ATOM      1  C   UNL     1       7.811   7.271  18.377  0.00  0.00    +0.000 A 
ATOM      2  C   UNL     1       6.918   7.287  17.304  0.00  0.00    +0.000 A 
ATOM      3  C   UNL     1       5.969   6.274  17.151  0.00  0.00    +0.000 A 
ATOM      4  C   UNL     1       5.900   5.214  18.060  0.00  0.00    +0.000 A 
ATOM      5  C   UNL     1       6.871   5.146  19.068  0.00  0.00    +0.000 A 
ATOM      6  C   UNL     1       7.806   6.173  19.238  0.00  0.00    +0.000 A 
ENDROOT
BRANCH   4   7
ATOM      7  C   UNL     1       4.823   4.230  17.922  0.00  0.00    +0.000 A 
ATOM      8  N   UNL     1       4.704   3.376  16.921  0.00  0.00    +0.000 NA
ATOM      9  N   UNL     1       3.582   2.619  17.116  0.00  0.00    +0.000 NA
ATOM     10  C   UNL     1       3.000   3.023  18.225  0.00  0.00    +0.000 A 
ATOM     11  N   UNL     1       3.720   4.077  18.739  0.00  0.00    +0.000 N 
ATOM     12  C   UNL     1       3.368   4.895  19.882  0.00  0.00    +0.000 C 
ATOM     13  C   UNL     1       1.880   5.173  20.036  0.00  0.00    +0.000 C 
ATOM     14  C   UNL     1       1.104   4.024  20.674  0.00  0.00    +0.000 C 
ATOM     15  C   UNL     1       1.567   2.622  20.282  0.00  0.00    +0.000 C 
ATOM     16  C   UNL     1       1.744   2.441  18.779  0.00  0.00    +0.000 C 
ENDBRANCH   4   7
BRANCH   1  19
ATOM     17  O   UNL     1       7.562  10.119  17.703  0.00  0.00    +0.000 OA
ATOM     18  C   UNL     1       8.531   9.638  18.282  0.00  0.00    +0.000 C 
ATOM     19  N   UNL     1       8.716   8.318  18.646  0.00  0.00    +0.000 N 
ATOM     20  H   UNL     1       9.468   8.106  19.289  0.00  0.00    +0.000 HD
BRANCH  18  21
ATOM     21  C   UNL     1       9.590  10.581  18.706  0.00  0.00    +0.000 A 
ATOM     22  C   UNL     1       9.603  10.984  20.047  0.00  0.00    +0.000 A 
ATOM     23  C   UNL     1      10.553  11.903  20.476  0.00  0.00    +0.000 A 
ATOM     24  F   UNL     1      10.568  12.280  21.760  0.00  0.00    +0.000 F 
ATOM     25  C   UNL     1      11.481  12.433  19.593  0.00  0.00    +0.000 A 
ATOM     26  C   UNL     1      11.449  12.033  18.262  0.00  0.00    +0.000 A 
ATOM     27  F   UNL     1      12.333  12.553  17.400  0.00  0.00    +0.000 F 
ATOM     28  C   UNL     1      10.513  11.112  17.802  0.00  0.00    +0.000 A 
ENDBRANCH  18  21
ENDBRANCH   1  19
TORSDOF 3
ENDMDL
MODEL 2
REMARK VINA RESULT:      -9.0      6.830      9.039
REMARK  Name = 
REMARK  3 active torsions:
REMARK  status: ('A' for Active; 'I' for Inactive)
REMARK    1  A    between atoms: C_2  and  C_20
REMARK    2  A    between atoms: N_3  and  C_4
REMARK    3  A    between atoms: C_7  and  C_8
REMARK                            x       y       z     vdW  Elec       q    Type
REMARK                         _______ _______ _______ _____ _____    ______ ____
ROOT
ATOM      1  C   UNL     1       0.440   9.660  19.951  0.00  0.00    +0.000 A 
ATOM      2  C   UNL     1       0.859   9.825  18.630  0.00  0.00    +0.000 A 
ATOM      3  C   UNL     1       1.763   8.934  18.051  0.00  0.00    +0.000 A 
ATOM      4  C   UNL     1       2.281   7.861  18.784  0.00  0.00    +0.000 A 
ATOM      5  C   UNL     1       1.943   7.767  20.141  0.00  0.00    +0.000 A 
ATOM      6  C   UNL     1       1.018   8.645  20.716  0.00  0.00    +0.000 A 
ENDROOT
BRANCH   4   7
ATOM      7  C   UNL     1       3.144   6.890  18.107  0.00  0.00    +0.000 A 
ATOM      8  N   UNL     1       4.180   7.200  17.348  0.00  0.00    +0.000 NA
ATOM      9  N   UNL     1       4.744   6.047  16.877  0.00  0.00    +0.000 NA
ATOM     10  C   UNL     1       4.043   5.029  17.330  0.00  0.00    +0.000 A 
ATOM     11  N   UNL     1       2.989   5.518  18.067  0.00  0.00    +0.000 N 
ATOM     12  C   UNL     1       1.904   4.751  18.646  0.00  0.00    +0.000 C 
ATOM     13  C   UNL     1       1.435   3.572  17.807  0.00  0.00    +0.000 C 
ATOM     14  C   UNL     1       2.320   2.336  17.937  0.00  0.00    +0.000 C 
ATOM     15  C   UNL     1       3.817   2.612  18.068  0.00  0.00    +0.000 C 
ATOM     16  C   UNL     1       4.344   3.600  17.034  0.00  0.00    +0.000 C 
ENDBRANCH   4   7
BRANCH   1  19
ATOM     17  O   UNL     1       0.791  12.052  21.620  0.00  0.00    +0.000 OA
ATOM     18  C   UNL     1      -0.302  11.569  21.342  0.00  0.00    +0.000 C 
ATOM     19  N   UNL     1      -0.551  10.461  20.555  0.00  0.00    +0.000 N 
ATOM     20  H   UNL     1      -1.502  10.300  20.253  0.00  0.00    +0.000 HD
BRANCH  18  21
ATOM     21  C   UNL     1      -1.494  12.291  21.839  0.00  0.00    +0.000 A 
ATOM     22  C   UNL     1      -2.110  11.806  23.001  0.00  0.00    +0.000 A 
ATOM     23  C   UNL     1      -3.258  12.426  23.476  0.00  0.00    +0.000 A 
ATOM     24  F   UNL     1      -3.840  11.966  24.590  0.00  0.00    +0.000 F 
ATOM     25  C   UNL     1      -3.808  13.513  22.812  0.00  0.00    +0.000 A 
ATOM     26  C   UNL     1      -3.193  13.976  21.655  0.00  0.00    +0.000 A 
ATOM     27  F   UNL     1      -3.728  15.016  21.000  0.00  0.00    +0.000 F 
ATOM     28  C   UNL     1      -2.041  13.379  21.155  0.00  0.00    +0.000 A 
ENDBRANCH  18  21
ENDBRANCH   1  19
TORSDOF 3
ENDMDL
MODEL 3
REMARK VINA RESULT:      -9.0      6.837      9.154
REMARK  Name = 
REMARK  3 active torsions:
REMARK  status: ('A' for Active; 'I' for Inactive)
REMARK    1  A    between atoms: C_2  and  C_20
REMARK    2  A    between atoms: N_3  and  C_4
REMARK    3  A    between atoms: C_7  and  C_8
REMARK                            x       y       z     vdW  Elec       q    Type
REMARK                         _______ _______ _______ _____ _____    ______ ____
ROOT
ATOM      1  C   UNL     1       0.408   9.627  19.994  0.00  0.00    +0.000 A 
ATOM      2  C   UNL     1       0.801   9.806  18.667  0.00  0.00    +0.000 A 
ATOM      3  C   UNL     1       1.713   8.935  18.069  0.00  0.00    +0.000 A 
ATOM      4  C   UNL     1       2.265   7.871  18.789  0.00  0.00    +0.000 A 
ATOM      5  C   UNL     1       1.952   7.765  20.151  0.00  0.00    +0.000 A 
ATOM      6  C   UNL     1       1.019   8.622  20.745  0.00  0.00    +0.000 A 
ENDROOT
BRANCH   4   7
ATOM      7  C   UNL     1       3.136   6.920  18.094  0.00  0.00    +0.000 A 
ATOM      8  N   UNL     1       4.164   7.254  17.333  0.00  0.00    +0.000 NA
ATOM      9  N   UNL     1       4.740   6.114  16.843  0.00  0.00    +0.000 NA
ATOM     10  C   UNL     1       4.053   5.082  17.285  0.00  0.00    +0.000 A 
ATOM     11  N   UNL     1       2.997   5.547  18.035  0.00  0.00    +0.000 N 
ATOM     12  C   UNL     1       1.925   4.759  18.609  0.00  0.00    +0.000 C 
ATOM     13  C   UNL     1       1.466   3.586  17.755  0.00  0.00    +0.000 C 
ATOM     14  C   UNL     1       2.366   2.359  17.863  0.00  0.00    +0.000 C 
ATOM     15  C   UNL     1       3.861   2.651  17.990  0.00  0.00    +0.000 C 
ATOM     16  C   UNL     1       4.370   3.660  16.968  0.00  0.00    +0.000 C 
ENDBRANCH   4   7
BRANCH   1  19
ATOM     17  O   UNL     1       0.739  12.012  21.676  0.00  0.00    +0.000 OA
ATOM     18  C   UNL     1      -0.349  11.513  21.409  0.00  0.00    +0.000 C 
ATOM     19  N   UNL     1      -0.588  10.405  20.618  0.00  0.00    +0.000 N 
ATOM     20  H   UNL     1      -1.541  10.230  20.327  0.00  0.00    +0.000 HD
BRANCH  18  21
ATOM     21  C   UNL     1      -1.547  12.208  21.929  0.00  0.00    +0.000 A 
ATOM     22  C   UNL     1      -1.984  13.350  21.245  0.00  0.00    +0.000 A 
ATOM     23  C   UNL     1      -3.078  14.059  21.725  0.00  0.00    +0.000 A 
ATOM     24  F   UNL     1      -3.498  15.144  21.065  0.00  0.00    +0.000 F 
ATOM     25  C   UNL     1      -3.737  13.656  22.877  0.00  0.00    +0.000 A 
ATOM     26  C   UNL     1      -3.286  12.529  23.553  0.00  0.00    +0.000 A 
ATOM     27  F   UNL     1      -3.908  12.144  24.675  0.00  0.00    +0.000 F 
ATOM     28  C   UNL     1      -2.195  11.796  23.096  0.00  0.00    +0.000 A 
ENDBRANCH  18  21
ENDBRANCH   1  19
TORSDOF 3
ENDMDL
MODEL 4
REMARK VINA RESULT:      -8.8      0.937      1.501
REMARK  Name = 
REMARK  3 active torsions:
REMARK  status: ('A' for Active; 'I' for Inactive)
REMARK    1  A    between atoms: C_2  and  C_20
REMARK    2  A    between atoms: N_3  and  C_4
REMARK    3  A    between atoms: C_7  and  C_8
REMARK                            x       y       z     vdW  Elec       q    Type
REMARK                         _______ _______ _______ _____ _____    ______ ____
ROOT
ATOM      1  C   UNL     1       7.850   7.685  18.111  0.00  0.00    +0.000 A 
ATOM      2  C   UNL     1       6.877   7.645  17.112  0.00  0.00    +0.000 A 
ATOM      3  C   UNL     1       5.982   6.577  17.029  0.00  0.00    +0.000 A 
ATOM      4  C   UNL     1       6.049   5.515  17.937  0.00  0.00    +0.000 A 
ATOM      5  C   UNL     1       7.098   5.507  18.866  0.00  0.00    +0.000 A 
ATOM      6  C   UNL     1       7.980   6.589  18.966  0.00  0.00    +0.000 A 
ENDROOT
BRANCH   4   7
ATOM      7  C   UNL     1       5.026   4.467  17.879  0.00  0.00    +0.000 A 
ATOM      8  N   UNL     1       4.913   3.575  16.912  0.00  0.00    +0.000 NA
ATOM      9  N   UNL     1       3.847   2.762  17.183  0.00  0.00    +0.000 NA
ATOM     10  C   UNL     1       3.293   3.168  18.305  0.00  0.00    +0.000 A 
ATOM     11  N   UNL     1       3.972   4.278  18.752  0.00  0.00    +0.000 N 
ATOM     12  C   UNL     1       3.624   5.113  19.885  0.00  0.00    +0.000 C 
ATOM     13  C   UNL     1       2.131   5.310  20.099  0.00  0.00    +0.000 C 
ATOM     14  C   UNL     1       1.454   4.141  20.808  0.00  0.00    +0.000 C 
ATOM     15  C   UNL     1       1.980   2.755  20.438  0.00  0.00    +0.000 C 
ATOM     16  C   UNL     1       2.099   2.535  18.934  0.00  0.00    +0.000 C 
ENDBRANCH   4   7
BRANCH   1  19
ATOM     17  O   UNL     1       7.350  10.522  17.534  0.00  0.00    +0.000 OA
ATOM     18  C   UNL     1       8.402  10.097  18.001  0.00  0.00    +0.000 C 
ATOM     19  N   UNL     1       8.708   8.786  18.313  0.00  0.00    +0.000 N 
ATOM     20  H   UNL     1       9.533   8.614  18.873  0.00  0.00    +0.000 HD
BRANCH  18  21
ATOM     21  C   UNL     1       9.435  11.101  18.339  0.00  0.00    +0.000 A 
ATOM     22  C   UNL     1       9.444  12.295  17.606  0.00  0.00    +0.000 A 
ATOM     23  C   UNL     1      10.425  13.245  17.860  0.00  0.00    +0.000 A 
ATOM     24  F   UNL     1      10.428  14.388  17.164  0.00  0.00    +0.000 F 
ATOM     25  C   UNL     1      11.399  13.024  18.822  0.00  0.00    +0.000 A 
ATOM     26  C   UNL     1      11.384  11.830  19.534  0.00  0.00    +0.000 A 
ATOM     27  F   UNL     1      12.332  11.604  20.454  0.00  0.00    +0.000 F 
ATOM     28  C   UNL     1      10.414  10.860  19.305  0.00  0.00    +0.000 A 
ENDBRANCH  18  21
ENDBRANCH   1  19
TORSDOF 3
ENDMDL
MODEL 5
REMARK VINA RESULT:      -8.7      6.768      8.921
REMARK  Name = 
REMARK  3 active torsions:
REMARK  status: ('A' for Active; 'I' for Inactive)
REMARK    1  A    between atoms: C_2  and  C_20
REMARK    2  A    between atoms: N_3  and  C_4
REMARK    3  A    between atoms: C_7  and  C_8
REMARK                            x       y       z     vdW  Elec       q    Type
REMARK                         _______ _______ _______ _____ _____    ______ ____
ROOT
ATOM      1  C   UNL     1       0.510   9.755  20.185  0.00  0.00    +0.000 A 
ATOM      2  C   UNL     1       1.084   8.655  20.823  0.00  0.00    +0.000 A 
ATOM      3  C   UNL     1       1.896   7.765  20.118  0.00  0.00    +0.000 A 
ATOM      4  C   UNL     1       2.142   7.947  18.753  0.00  0.00    +0.000 A 
ATOM      5  C   UNL     1       1.474   8.989  18.097  0.00  0.00    +0.000 A 
ATOM      6  C   UNL     1       0.679   9.896  18.807  0.00  0.00    +0.000 A 
ENDROOT
BRANCH   4   7
ATOM      7  C   UNL     1       3.084   7.051  18.076  0.00  0.00    +0.000 A 
ATOM      8  N   UNL     1       4.121   7.448  17.361  0.00  0.00    +0.000 NA
ATOM      9  N   UNL     1       4.770   6.346  16.875  0.00  0.00    +0.000 NA
ATOM     10  C   UNL     1       4.119   5.274  17.275  0.00  0.00    +0.000 A 
ATOM     11  N   UNL     1       3.015   5.674  17.991  0.00  0.00    +0.000 N 
ATOM     12  C   UNL     1       1.962   4.826  18.512  0.00  0.00    +0.000 C 
ATOM     13  C   UNL     1       1.593   3.647  17.624  0.00  0.00    +0.000 C 
ATOM     14  C   UNL     1       2.548   2.463  17.746  0.00  0.00    +0.000 C 
ATOM     15  C   UNL     1       4.020   2.825  17.935  0.00  0.00    +0.000 C 
ATOM     16  C   UNL     1       4.517   3.875  16.947  0.00  0.00    +0.000 C 
ENDBRANCH   4   7
BRANCH   1  19
ATOM     17  O   UNL     1       0.248  10.173  23.081  0.00  0.00    +0.000 OA
ATOM     18  C   UNL     1      -0.311  10.869  22.239  0.00  0.00    +0.000 C 
ATOM     19  N   UNL     1      -0.227  10.746  20.865  0.00  0.00    +0.000 N 
ATOM     20  H   UNL     1      -0.580  11.509  20.300  0.00  0.00    +0.000 HD
BRANCH  18  21
ATOM     21  C   UNL     1      -1.106  12.012  22.740  0.00  0.00    +0.000 A 
ATOM     22  C   UNL     1      -2.357  11.735  23.306  0.00  0.00    +0.000 A 
ATOM     23  C   UNL     1      -3.155  12.783  23.748  0.00  0.00    +0.000 A 
ATOM     24  F   UNL     1      -4.347  12.515  24.295  0.00  0.00    +0.000 F 
ATOM     25  C   UNL     1      -2.734  14.098  23.628  0.00  0.00    +0.000 A 
ATOM     26  C   UNL     1      -1.495  14.359  23.054  0.00  0.00    +0.000 A 
ATOM     27  F   UNL     1      -1.089  15.629  22.921  0.00  0.00    +0.000 F 
ATOM     28  C   UNL     1      -0.671  13.332  22.604  0.00  0.00    +0.000 A 
ENDBRANCH  18  21
ENDBRANCH   1  19
TORSDOF 3
ENDMDL
MODEL 6
REMARK VINA RESULT:      -8.7      0.992      1.018
REMARK  Name = 
REMARK  3 active torsions:
REMARK  status: ('A' for Active; 'I' for Inactive)
REMARK    1  A    between atoms: C_2  and  C_20
REMARK    2  A    between atoms: N_3  and  C_4
REMARK    3  A    between atoms: C_7  and  C_8
REMARK                            x       y       z     vdW  Elec       q    Type
REMARK                         _______ _______ _______ _____ _____    ______ ____
ROOT
ATOM      1  C   UNL     1       7.873   7.768  18.094  0.00  0.00    +0.000 A 
ATOM      2  C   UNL     1       6.847   7.729  17.149  0.00  0.00    +0.000 A 
ATOM      3  C   UNL     1       5.966   6.647  17.097  0.00  0.00    +0.000 A 
ATOM      4  C   UNL     1       6.099   5.572  17.981  0.00  0.00    +0.000 A 
ATOM      5  C   UNL     1       7.198   5.567  18.851  0.00  0.00    +0.000 A 
ATOM      6  C   UNL     1       8.067   6.662  18.922  0.00  0.00    +0.000 A 
ENDROOT
BRANCH   4   7
ATOM      7  C   UNL     1       5.091   4.509  17.962  0.00  0.00    +0.000 A 
ATOM      8  N   UNL     1       5.044   3.530  17.076  0.00  0.00    +0.000 NA
ATOM      9  N   UNL     1       3.971   2.729  17.359  0.00  0.00    +0.000 NA
ATOM     10  C   UNL     1       3.348   3.229  18.405  0.00  0.00    +0.000 A 
ATOM     11  N   UNL     1       3.990   4.385  18.786  0.00  0.00    +0.000 N 
ATOM     12  C   UNL     1       3.568   5.315  19.815  0.00  0.00    +0.000 C 
ATOM     13  C   UNL     1       2.063   5.509  19.923  0.00  0.00    +0.000 C 
ATOM     14  C   UNL     1       1.356   4.400  20.697  0.00  0.00    +0.000 C 
ATOM     15  C   UNL     1       1.916   2.994  20.487  0.00  0.00    +0.000 C 
ATOM     16  C   UNL     1       2.125   2.638  19.020  0.00  0.00    +0.000 C 
ENDBRANCH   4   7
BRANCH   1  19
ATOM     17  O   UNL     1       7.350  10.587  17.451  0.00  0.00    +0.000 OA
ATOM     18  C   UNL     1       8.407  10.181  17.926  0.00  0.00    +0.000 C 
ATOM     19  N   UNL     1       8.724   8.880  18.267  0.00  0.00    +0.000 N 
ATOM     20  H   UNL     1       9.551   8.727  18.829  0.00  0.00    +0.000 HD
BRANCH  18  21
ATOM     21  C   UNL     1       9.433  11.200  18.237  0.00  0.00    +0.000 A 
ATOM     22  C   UNL     1      10.384  10.888  19.217  0.00  0.00    +0.000 A 
ATOM     23  C   UNL     1      11.337  11.834  19.571  0.00  0.00    +0.000 A 
ATOM     24  F   UNL     1      12.249  11.531  20.503  0.00  0.00    +0.000 F 
ATOM     25  C   UNL     1      11.355  13.086  18.974  0.00  0.00    +0.000 A 
ATOM     26  C   UNL     1      10.399  13.386  18.010  0.00  0.00    +0.000 A 
ATOM     27  F   UNL     1      10.401  14.599  17.440  0.00  0.00    +0.000 F 
ATOM     28  C   UNL     1       9.433  12.459  17.632  0.00  0.00    +0.000 A 
ENDBRANCH  18  21
ENDBRANCH   1  19
TORSDOF 3
ENDMDL
MODEL 7
REMARK VINA RESULT:      -8.6      6.095      8.436
REMARK  Name = 
REMARK  3 active torsions:
REMARK  status: ('A' for Active; 'I' for Inactive)
REMARK    1  A    between atoms: C_2  and  C_20
REMARK    2  A    between atoms: N_3  and  C_4
REMARK    3  A    between atoms: C_7  and  C_8
REMARK                            x       y       z     vdW  Elec       q    Type
REMARK                         _______ _______ _______ _____ _____    ______ ____
ROOT
ATOM      1  C   UNL     1       1.212   9.026  19.758  0.00  0.00    +0.000 A 
ATOM      2  C   UNL     1       1.618   9.076  18.424  0.00  0.00    +0.000 A 
ATOM      3  C   UNL     1       2.269   7.990  17.835  0.00  0.00    +0.000 A 
ATOM      4  C   UNL     1       2.540   6.833  18.572  0.00  0.00    +0.000 A 
ATOM      5  C   UNL     1       2.230   6.834  19.939  0.00  0.00    +0.000 A 
ATOM      6  C   UNL     1       1.556   7.912  20.524  0.00  0.00    +0.000 A 
ENDROOT
BRANCH   4   7
ATOM      7  C   UNL     1       3.128   5.678  17.888  0.00  0.00    +0.000 A 
ATOM      8  N   UNL     1       2.592   4.471  17.846  0.00  0.00    +0.000 NA
ATOM      9  N   UNL     1       3.415   3.646  17.131  0.00  0.00    +0.000 NA
ATOM     10  C   UNL     1       4.468   4.340  16.752  0.00  0.00    +0.000 A 
ATOM     11  N   UNL     1       4.355   5.616  17.255  0.00  0.00    +0.000 N 
ATOM     12  C   UNL     1       5.345   6.671  17.180  0.00  0.00    +0.000 C 
ATOM     13  C   UNL     1       6.788   6.203  17.297  0.00  0.00    +0.000 C 
ATOM     14  C   UNL     1       7.357   5.636  16.000  0.00  0.00    +0.000 C 
ATOM     15  C   UNL     1       6.375   4.829  15.151  0.00  0.00    +0.000 C 
ATOM     16  C   UNL     1       5.597   3.790  15.949  0.00  0.00    +0.000 C 
ENDBRANCH   4   7
BRANCH   1  19
ATOM     17  O   UNL     1       1.180   9.818  22.587  0.00  0.00    +0.000 OA
ATOM     18  C   UNL     1       0.488  10.348  21.723  0.00  0.00    +0.000 C 
ATOM     19  N   UNL     1       0.457  10.045  20.376  0.00  0.00    +0.000 N 
ATOM     20  H   UNL     1      -0.011  10.694  19.756  0.00  0.00    +0.000 HD
BRANCH  18  21
ATOM     21  C   UNL     1      -0.353  11.488  22.151  0.00  0.00    +0.000 A 
ATOM     22  C   UNL     1      -1.469  11.208  22.950  0.00  0.00    +0.000 A 
ATOM     23  C   UNL     1      -2.311  12.243  23.336  0.00  0.00    +0.000 A 
ATOM     24  F   UNL     1      -3.372  11.974  24.106  0.00  0.00    +0.000 F 
ATOM     25  C   UNL     1      -2.067  13.547  22.933  0.00  0.00    +0.000 A 
ATOM     26  C   UNL     1      -0.963  13.809  22.130  0.00  0.00    +0.000 A 
ATOM     27  F   UNL     1      -0.731  15.065  21.724  0.00  0.00    +0.000 F 
ATOM     28  C   UNL     1      -0.099  12.795  21.730  0.00  0.00    +0.000 A 
ENDBRANCH  18  21
ENDBRANCH   1  19
TORSDOF 3
ENDMDL
MODEL 8
REMARK VINA RESULT:      -8.6      6.772      8.976
REMARK  Name = 
REMARK  3 active torsions:
REMARK  status: ('A' for Active; 'I' for Inactive)
REMARK    1  A    between atoms: C_2  and  C_20
REMARK    2  A    between atoms: N_3  and  C_4
REMARK    3  A    between atoms: C_7  and  C_8
REMARK                            x       y       z     vdW  Elec       q    Type
REMARK                         _______ _______ _______ _____ _____    ______ ____
ROOT
ATOM      1  C   UNL     1       0.486   9.781  20.172  0.00  0.00    +0.000 A 
ATOM      2  C   UNL     1       1.063   8.687  20.817  0.00  0.00    +0.000 A 
ATOM      3  C   UNL     1       1.884   7.798  20.120  0.00  0.00    +0.000 A 
ATOM      4  C   UNL     1       2.137   7.977  18.756  0.00  0.00    +0.000 A 
ATOM      5  C   UNL     1       1.465   9.012  18.092  0.00  0.00    +0.000 A 
ATOM      6  C   UNL     1       0.662   9.917  18.794  0.00  0.00    +0.000 A 
ENDROOT
BRANCH   4   7
ATOM      7  C   UNL     1       3.087   7.084  18.088  0.00  0.00    +0.000 A 
ATOM      8  N   UNL     1       4.147   7.482  17.408  0.00  0.00    +0.000 NA
ATOM      9  N   UNL     1       4.798   6.383  16.919  0.00  0.00    +0.000 NA
ATOM     10  C   UNL     1       4.126   5.311  17.281  0.00  0.00    +0.000 A 
ATOM     11  N   UNL     1       3.006   5.709  17.976  0.00  0.00    +0.000 N 
ATOM     12  C   UNL     1       1.932   4.862  18.452  0.00  0.00    +0.000 C 
ATOM     13  C   UNL     1       1.575   3.704  17.533  0.00  0.00    +0.000 C 
ATOM     14  C   UNL     1       2.514   2.509  17.658  0.00  0.00    +0.000 C 
ATOM     15  C   UNL     1       3.985   2.851  17.893  0.00  0.00    +0.000 C 
ATOM     16  C   UNL     1       4.518   3.914  16.939  0.00  0.00    +0.000 C 
ENDBRANCH   4   7
BRANCH   1  19
ATOM     17  O   UNL     1       0.208  10.211  23.065  0.00  0.00    +0.000 OA
ATOM     18  C   UNL     1      -0.351  10.899  22.217  0.00  0.00    +0.000 C 
ATOM     19  N   UNL     1      -0.261  10.771  20.844  0.00  0.00    +0.000 N 
ATOM     20  H   UNL     1      -0.616  11.528  20.274  0.00  0.00    +0.000 HD
BRANCH  18  21
ATOM     21  C   UNL     1      -1.156  12.039  22.709  0.00  0.00    +0.000 A 
ATOM     22  C   UNL     1      -0.594  13.319  22.617  0.00  0.00    +0.000 A 
ATOM     23  C   UNL     1      -1.298  14.412  23.108  0.00  0.00    +0.000 A 
ATOM     24  F   UNL     1      -0.762  15.634  23.012  0.00  0.00    +0.000 F 
ATOM     25  C   UNL     1      -2.543  14.251  23.697  0.00  0.00    +0.000 A 
ATOM     26  C   UNL     1      -3.083  12.974  23.791  0.00  0.00    +0.000 A 
ATOM     27  F   UNL     1      -4.279  12.810  24.373  0.00  0.00    +0.000 F 
ATOM     28  C   UNL     1      -2.406  11.860  23.306  0.00  0.00    +0.000 A 
ENDBRANCH  18  21
ENDBRANCH   1  19
TORSDOF 3
ENDMDL
MODEL 9
REMARK VINA RESULT:      -8.5      1.230      1.707
REMARK  Name = 
REMARK  3 active torsions:
REMARK  status: ('A' for Active; 'I' for Inactive)
REMARK    1  A    between atoms: C_2  and  C_20
REMARK    2  A    between atoms: N_3  and  C_4
REMARK    3  A    between atoms: C_7  and  C_8
REMARK                            x       y       z     vdW  Elec       q    Type
REMARK                         _______ _______ _______ _____ _____    ______ ____
ROOT
ATOM      1  C   UNL     1       8.089   8.539  18.047  0.00  0.00    +0.000 A 
ATOM      2  C   UNL     1       8.406   7.346  18.696  0.00  0.00    +0.000 A 
ATOM      3  C   UNL     1       7.579   6.227  18.578  0.00  0.00    +0.000 A 
ATOM      4  C   UNL     1       6.407   6.281  17.818  0.00  0.00    +0.000 A 
ATOM      5  C   UNL     1       6.038   7.514  17.262  0.00  0.00    +0.000 A 
ATOM      6  C   UNL     1       6.878   8.628  17.359  0.00  0.00    +0.000 A 
ENDROOT
BRANCH   4   7
ATOM      7  C   UNL     1       5.623   5.056  17.634  0.00  0.00    +0.000 A 
ATOM      8  N   UNL     1       5.779   4.203  16.638  0.00  0.00    +0.000 NA
ATOM      9  N   UNL     1       4.877   3.185  16.783  0.00  0.00    +0.000 NA
ATOM     10  C   UNL     1       4.154   3.424  17.856  0.00  0.00    +0.000 A 
ATOM     11  N   UNL     1       4.554   4.625  18.395  0.00  0.00    +0.000 N 
ATOM     12  C   UNL     1       3.945   5.324  19.509  0.00  0.00    +0.000 C 
ATOM     13  C   UNL     1       2.430   5.213  19.582  0.00  0.00    +0.000 C 
ATOM     14  C   UNL     1       1.939   3.903  20.192  0.00  0.00    +0.000 C 
ATOM     15  C   UNL     1       2.763   2.666  19.839  0.00  0.00    +0.000 C 
ATOM     16  C   UNL     1       3.059   2.541  18.349  0.00  0.00    +0.000 C 
ENDBRANCH   4   7
BRANCH   1  19
ATOM     17  O   UNL     1       8.953  10.193  20.317  0.00  0.00    +0.000 OA
ATOM     18  C   UNL     1       9.288  10.402  19.155  0.00  0.00    +0.000 C 
ATOM     19  N   UNL     1       8.938   9.666  18.039  0.00  0.00    +0.000 N 
ATOM     20  H   UNL     1       9.447   9.837  17.181  0.00  0.00    +0.000 HD
BRANCH  18  21
ATOM     21  C   UNL     1      10.229  11.520  18.924  0.00  0.00    +0.000 A 
ATOM     22  C   UNL     1      10.406  12.445  19.960  0.00  0.00    +0.000 A 
ATOM     23  C   UNL     1      11.247  13.535  19.768  0.00  0.00    +0.000 A 
ATOM     24  F   UNL     1      11.420  14.414  20.763  0.00  0.00    +0.000 F 
ATOM     25  C   UNL     1      11.904  13.723  18.562  0.00  0.00    +0.000 A 
ATOM     26  C   UNL     1      11.711  12.803  17.539  0.00  0.00    +0.000 A 
ATOM     27  F   UNL     1      12.331  12.988  16.365  0.00  0.00    +0.000 F 
ATOM     28  C   UNL     1      10.878  11.700  17.700  0.00  0.00    +0.000 A 
ENDBRANCH  18  21
ENDBRANCH   1  19
TORSDOF 3
ENDMDL
