MODEL 1
REMARK VINA RESULT:      -8.5      0.000      0.000
REMARK  Name = 
REMARK  6 active torsions:
REMARK  status: ('A' for Active; 'I' for Inactive)
REMARK    1  A    between atoms: C_1  and  C_2
REMARK    2  A    between atoms: C_5  and  N_6
REMARK    3  A    between atoms: C_7  and  C_9
REMARK    4  A    between atoms: C_18  and  S_19
REMARK    5  A    between atoms: S_19  and  N_22
REMARK    6  A    between atoms: N_22  and  C_23
REMARK                            x       y       z     vdW  Elec       q    Type
REMARK                         _______ _______ _______ _____ _____    ______ ____
ROOT
ATOM      1  C   UNL     1      -0.253   9.011  22.208  0.00  0.00    +0.000 C 
ATOM      2  C   UNL     1       0.660   8.475  21.142  0.00  0.00    +0.000 A 
ATOM      3  C   UNL     1       1.121   7.157  21.285  0.00  0.00    +0.000 A 
ATOM      4  C   UNL     1       1.962   6.568  20.336  0.00  0.00    +0.000 A 
ATOM      5  C   UNL     1       2.368   7.271  19.205  0.00  0.00    +0.000 A 
ATOM      6  C   UNL     1       1.959   8.599  19.073  0.00  0.00    +0.000 A 
ATOM      7  C   UNL     1       1.107   9.206  20.025  0.00  0.00    +0.000 A 
ENDROOT
BRANCH   5   8
ATOM      8  N   UNL     1       3.191   6.720  18.192  0.00  0.00    +0.000 N 
ATOM      9  C   UNL     1       4.327   5.942  18.385  0.00  0.00    +0.000 C 
ATOM     10  O   UNL     1       4.751   5.566  19.471  0.00  0.00    +0.000 OA
ATOM     11  H   UNL     1       2.871   6.852  17.237  0.00  0.00    +0.000 HD
BRANCH   9  12
ATOM     12  C   UNL     1       5.050   5.489  17.165  0.00  0.00    +0.000 A 
ATOM     13  C   UNL     1       4.585   4.379  16.453  0.00  0.00    +0.000 A 
ATOM     14  F   UNL     1       3.436   3.774  16.796  0.00  0.00    +0.000 F 
ATOM     15  C   UNL     1       5.294   3.856  15.370  0.00  0.00    +0.000 A 
ATOM     16  C   UNL     1       6.495   4.441  14.980  0.00  0.00    +0.000 A 
ATOM     17  C   UNL     1       6.967   5.560  15.665  0.00  0.00    +0.000 A 
ATOM     18  C   UNL     1       6.252   6.087  16.750  0.00  0.00    +0.000 A 
ATOM     19 CL   UNL     1       6.913   7.517  17.469  0.00  0.00    +0.000 Cl
ENDBRANCH   9  12
ENDBRANCH   5   8
BRANCH   7  20
ATOM     20  S   UNL     1       0.787  10.954  19.805  0.00  0.00    +0.000 S 
ATOM     21  O   UNL     1       1.386  11.684  20.901  0.00  0.00    +0.000 OA
ATOM     22  O   UNL     1       1.126  11.292  18.436  0.00  0.00    +0.000 OA
BRANCH  20  23
ATOM     23  N   UNL     1      -0.892  11.101  20.020  0.00  0.00    +0.000 N 
ATOM     24  H   UNL     1      -1.063  11.962  20.546  0.00  0.00    +0.000 HD
BRANCH  23  25
ATOM     25  C   UNL     1      -1.718  10.938  18.857  0.00  0.00    +0.000 A 
ATOM     26  C   UNL     1      -1.286  10.063  17.859  0.00  0.00    +0.000 A 
ATOM     27  C   UNL     1      -2.042   9.894  16.697  0.00  0.00    +0.000 A 
ATOM     28  C   UNL     1      -3.230  10.605  16.523  0.00  0.00    +0.000 A 
ATOM     29  C   UNL     1      -3.665  11.487  17.513  0.00  0.00    +0.000 A 
ATOM     30  C   UNL     1      -2.912  11.656  18.679  0.00  0.00    +0.000 A 
ATOM     31 CL   UNL     1      -3.509  12.727  19.894  0.00  0.00    +0.000 Cl
ENDBRANCH  23  25
ENDBRANCH  20  23
ENDBRANCH   7  20
TORSDOF 5
ENDMDL
MODEL 2
REMARK VINA RESULT:      -8.3      3.521      8.259
REMARK  Name = 
REMARK  6 active torsions:
REMARK  status: ('A' for Active; 'I' for Inactive)
REMARK    1  A    between atoms: C_1  and  C_2
REMARK    2  A    between atoms: C_5  and  N_6
REMARK    3  A    between atoms: C_7  and  C_9
REMARK    4  A    between atoms: C_18  and  S_19
REMARK    5  A    between atoms: S_19  and  N_22
REMARK    6  A    between atoms: N_22  and  C_23
REMARK                            x       y       z     vdW  Elec       q    Type
REMARK                         _______ _______ _______ _____ _____    ______ ____
ROOT
ATOM      1  C   UNL     1       5.308   5.566  15.620  0.00  0.00    +0.000 C 
ATOM      2  C   UNL     1       4.538   6.211  16.736  0.00  0.00    +0.000 A 
ATOM      3  C   UNL     1       3.819   7.379  16.439  0.00  0.00    +0.000 A 
ATOM      4  C   UNL     1       3.061   8.040  17.409  0.00  0.00    +0.000 A 
ATOM      5  C   UNL     1       2.988   7.556  18.713  0.00  0.00    +0.000 A 
ATOM      6  C   UNL     1       3.737   6.423  19.038  0.00  0.00    +0.000 A 
ATOM      7  C   UNL     1       4.506   5.745  18.064  0.00  0.00    +0.000 A 
ENDROOT
BRANCH   5   8
ATOM      8  N   UNL     1       2.212   8.161  19.732  0.00  0.00    +0.000 N 
ATOM      9  C   UNL     1       1.217   9.116  19.553  0.00  0.00    +0.000 C 
ATOM     10  O   UNL     1       0.821   9.532  18.471  0.00  0.00    +0.000 OA
ATOM     11  H   UNL     1       2.355   7.804  20.672  0.00  0.00    +0.000 HD
BRANCH   9  12
ATOM     12  C   UNL     1       0.546   9.628  20.779  0.00  0.00    +0.000 A 
ATOM     13  C   UNL     1      -0.072   8.735  21.660  0.00  0.00    +0.000 A 
ATOM     14  F   UNL     1       0.017   7.408  21.467  0.00  0.00    +0.000 F 
ATOM     15  C   UNL     1      -0.805   9.182  22.760  0.00  0.00    +0.000 A 
ATOM     16  C   UNL     1      -0.935  10.547  22.998  0.00  0.00    +0.000 A 
ATOM     17  C   UNL     1      -0.311  11.455  22.144  0.00  0.00    +0.000 A 
ATOM     18  C   UNL     1       0.428  11.004  21.040  0.00  0.00    +0.000 A 
ATOM     19 CL   UNL     1       1.207  12.232  20.100  0.00  0.00    +0.000 Cl
ENDBRANCH   9  12
ENDBRANCH   5   8
BRANCH   7  20
ATOM     20  S   UNL     1       5.530   4.400  18.656  0.00  0.00    +0.000 S 
ATOM     21  O   UNL     1       6.593   4.163  17.705  0.00  0.00    +0.000 OA
ATOM     22  O   UNL     1       5.845   4.670  20.046  0.00  0.00    +0.000 OA
BRANCH  20  23
ATOM     23  N   UNL     1       4.521   3.036  18.565  0.00  0.00    +0.000 N 
ATOM     24  H   UNL     1       5.116   2.206  18.625  0.00  0.00    +0.000 HD
BRANCH  23  25
ATOM     25  C   UNL     1       3.373   3.012  19.428  0.00  0.00    +0.000 A 
ATOM     26  C   UNL     1       3.557   2.636  20.759  0.00  0.00    +0.000 A 
ATOM     27  C   UNL     1       2.465   2.570  21.627  0.00  0.00    +0.000 A 
ATOM     28  C   UNL     1       1.183   2.871  21.167  0.00  0.00    +0.000 A 
ATOM     29  C   UNL     1       0.989   3.241  19.835  0.00  0.00    +0.000 A 
ATOM     30  C   UNL     1       2.081   3.311  18.964  0.00  0.00    +0.000 A 
ATOM     31 CL   UNL     1       1.801   3.813  17.336  0.00  0.00    +0.000 Cl
ENDBRANCH  23  25
ENDBRANCH  20  23
ENDBRANCH   7  20
TORSDOF 5
ENDMDL
MODEL 3
REMARK VINA RESULT:      -8.1      2.376      2.873
REMARK  Name = 
REMARK  6 active torsions:
REMARK  status: ('A' for Active; 'I' for Inactive)
REMARK    1  A    between atoms: C_1  and  C_2
REMARK    2  A    between atoms: C_5  and  N_6
REMARK    3  A    between atoms: C_7  and  C_9
REMARK    4  A    between atoms: C_18  and  S_19
REMARK    5  A    between atoms: S_19  and  N_22
REMARK    6  A    between atoms: N_22  and  C_23
REMARK                            x       y       z     vdW  Elec       q    Type
REMARK                         _______ _______ _______ _____ _____    ______ ____
ROOT
ATOM      1  C   UNL     1      -0.221   8.975  21.936  0.00  0.00    +0.000 C 
ATOM      2  C   UNL     1       0.719   8.431  20.898  0.00  0.00    +0.000 A 
ATOM      3  C   UNL     1       1.259   7.154  21.117  0.00  0.00    +0.000 A 
ATOM      4  C   UNL     1       2.129   6.559  20.199  0.00  0.00    +0.000 A 
ATOM      5  C   UNL     1       2.490   7.216  19.025  0.00  0.00    +0.000 A 
ATOM      6  C   UNL     1       2.001   8.507  18.816  0.00  0.00    +0.000 A 
ATOM      7  C   UNL     1       1.117   9.118  19.736  0.00  0.00    +0.000 A 
ENDROOT
BRANCH   5   8
ATOM      8  N   UNL     1       3.340   6.655  18.042  0.00  0.00    +0.000 N 
ATOM      9  C   UNL     1       4.463   5.867  18.274  0.00  0.00    +0.000 C 
ATOM     10  O   UNL     1       4.847   5.491  19.375  0.00  0.00    +0.000 OA
ATOM     11  H   UNL     1       3.054   6.787  17.076  0.00  0.00    +0.000 HD
BRANCH   9  12
ATOM     12  C   UNL     1       5.221   5.404  17.080  0.00  0.00    +0.000 A 
ATOM     13  C   UNL     1       4.750   4.321  16.333  0.00  0.00    +0.000 A 
ATOM     14  F   UNL     1       3.566   3.753  16.618  0.00  0.00    +0.000 F 
ATOM     15  C   UNL     1       5.486   3.786  15.274  0.00  0.00    +0.000 A 
ATOM     16  C   UNL     1       6.722   4.334  14.945  0.00  0.00    +0.000 A 
ATOM     17  C   UNL     1       7.203   5.426  15.664  0.00  0.00    +0.000 A 
ATOM     18  C   UNL     1       6.461   5.965  16.725  0.00  0.00    +0.000 A 
ATOM     19 CL   UNL     1       7.140   7.361  17.491  0.00  0.00    +0.000 Cl
ENDBRANCH   9  12
ENDBRANCH   5   8
BRANCH   7  20
ATOM     20  S   UNL     1       0.693  10.828  19.414  0.00  0.00    +0.000 S 
ATOM     21  O   UNL     1       1.550  11.336  18.365  0.00  0.00    +0.000 OA
ATOM     22  O   UNL     1      -0.748  10.902  19.274  0.00  0.00    +0.000 OA
BRANCH  20  23
ATOM     23  N   UNL     1       1.162  11.648  20.826  0.00  0.00    +0.000 N 
ATOM     24  H   UNL     1       2.135  11.942  20.705  0.00  0.00    +0.000 HD
BRANCH  23  25
ATOM     25  C   UNL     1       0.284  12.674  21.310  0.00  0.00    +0.000 A 
ATOM     26  C   UNL     1      -0.631  12.342  22.311  0.00  0.00    +0.000 A 
ATOM     27  C   UNL     1      -1.525  13.302  22.791  0.00  0.00    +0.000 A 
ATOM     28  C   UNL     1      -1.515  14.595  22.269  0.00  0.00    +0.000 A 
ATOM     29  C   UNL     1      -0.609  14.933  21.263  0.00  0.00    +0.000 A 
ATOM     30  C   UNL     1       0.290  13.976  20.782  0.00  0.00    +0.000 A 
ATOM     31 CL   UNL     1       1.421  14.450  19.566  0.00  0.00    +0.000 Cl
ENDBRANCH  23  25
ENDBRANCH  20  23
ENDBRANCH   7  20
TORSDOF 5
ENDMDL
MODEL 4
REMARK VINA RESULT:      -8.0      2.366      2.910
REMARK  Name = 
REMARK  6 active torsions:
REMARK  status: ('A' for Active; 'I' for Inactive)
REMARK    1  A    between atoms: C_1  and  C_2
REMARK    2  A    between atoms: C_5  and  N_6
REMARK    3  A    between atoms: C_7  and  C_9
REMARK    4  A    between atoms: C_18  and  S_19
REMARK    5  A    between atoms: S_19  and  N_22
REMARK    6  A    between atoms: N_22  and  C_23
REMARK                            x       y       z     vdW  Elec       q    Type
REMARK                         _______ _______ _______ _____ _____    ______ ____
ROOT
ATOM      1  C   UNL     1      -0.196   8.835  21.923  0.00  0.00    +0.000 C 
ATOM      2  C   UNL     1       0.745   8.306  20.879  0.00  0.00    +0.000 A 
ATOM      3  C   UNL     1       1.265   7.017  21.069  0.00  0.00    +0.000 A 
ATOM      4  C   UNL     1       2.136   6.435  20.143  0.00  0.00    +0.000 A 
ATOM      5  C   UNL     1       2.516   7.117  18.990  0.00  0.00    +0.000 A 
ATOM      6  C   UNL     1       2.046   8.420  18.811  0.00  0.00    +0.000 A 
ATOM      7  C   UNL     1       1.163   9.018  19.739  0.00  0.00    +0.000 A 
ENDROOT
BRANCH   5   8
ATOM      8  N   UNL     1       3.368   6.570  17.999  0.00  0.00    +0.000 N 
ATOM      9  C   UNL     1       4.526   5.834  18.223  0.00  0.00    +0.000 C 
ATOM     10  O   UNL     1       4.949   5.496  19.322  0.00  0.00    +0.000 OA
ATOM     11  H   UNL     1       3.055   6.671  17.038  0.00  0.00    +0.000 HD
BRANCH   9  12
ATOM     12  C   UNL     1       5.278   5.377  17.022  0.00  0.00    +0.000 A 
ATOM     13  C   UNL     1       4.803   4.295  16.274  0.00  0.00    +0.000 A 
ATOM     14  F   UNL     1       3.623   3.723  16.565  0.00  0.00    +0.000 F 
ATOM     15  C   UNL     1       5.534   3.766  15.208  0.00  0.00    +0.000 A 
ATOM     16  C   UNL     1       6.766   4.318  14.872  0.00  0.00    +0.000 A 
ATOM     17  C   UNL     1       7.249   5.409  15.592  0.00  0.00    +0.000 A 
ATOM     18  C   UNL     1       6.513   5.942  16.660  0.00  0.00    +0.000 A 
ATOM     19 CL   UNL     1       7.193   7.337  17.426  0.00  0.00    +0.000 Cl
ENDBRANCH   9  12
ENDBRANCH   5   8
BRANCH   7  20
ATOM     20  S   UNL     1       0.765  10.742  19.458  0.00  0.00    +0.000 S 
ATOM     21  O   UNL     1       1.674  11.280  18.471  0.00  0.00    +0.000 OA
ATOM     22  O   UNL     1      -0.668  10.831  19.252  0.00  0.00    +0.000 OA
BRANCH  20  23
ATOM     23  N   UNL     1       1.170  11.507  20.921  0.00  0.00    +0.000 N 
ATOM     24  H   UNL     1       2.172  11.368  21.076  0.00  0.00    +0.000 HD
BRANCH  23  25
ATOM     25  C   UNL     1       0.719  12.858  21.099  0.00  0.00    +0.000 A 
ATOM     26  C   UNL     1       1.353  13.866  20.372  0.00  0.00    +0.000 A 
ATOM     27  C   UNL     1       0.968  15.198  20.535  0.00  0.00    +0.000 A 
ATOM     28  C   UNL     1      -0.048  15.531  21.432  0.00  0.00    +0.000 A 
ATOM     29  C   UNL     1      -0.681  14.530  22.169  0.00  0.00    +0.000 A 
ATOM     30  C   UNL     1      -0.300  13.194  22.006  0.00  0.00    +0.000 A 
ATOM     31 CL   UNL     1      -1.140  11.985  22.908  0.00  0.00    +0.000 Cl
ENDBRANCH  23  25
ENDBRANCH  20  23
ENDBRANCH   7  20
TORSDOF 5
ENDMDL
MODEL 5
REMARK VINA RESULT:      -8.0      1.767      2.256
REMARK  Name = 
REMARK  6 active torsions:
REMARK  status: ('A' for Active; 'I' for Inactive)
REMARK    1  A    between atoms: C_1  and  C_2
REMARK    2  A    between atoms: C_5  and  N_6
REMARK    3  A    between atoms: C_7  and  C_9
REMARK    4  A    between atoms: C_18  and  S_19
REMARK    5  A    between atoms: S_19  and  N_22
REMARK    6  A    between atoms: N_22  and  C_23
REMARK                            x       y       z     vdW  Elec       q    Type
REMARK                         _______ _______ _______ _____ _____    ______ ____
ROOT
ATOM      1  C   UNL     1      -0.281   8.719  22.090  0.00  0.00    +0.000 C 
ATOM      2  C   UNL     1       0.663   8.197  21.045  0.00  0.00    +0.000 A 
ATOM      3  C   UNL     1       1.046   6.850  21.132  0.00  0.00    +0.000 A 
ATOM      4  C   UNL     1       1.908   6.272  20.195  0.00  0.00    +0.000 A 
ATOM      5  C   UNL     1       2.416   7.016  19.134  0.00  0.00    +0.000 A 
ATOM      6  C   UNL     1       2.084   8.370  19.061  0.00  0.00    +0.000 A 
ATOM      7  C   UNL     1       1.211   8.966  20.002  0.00  0.00    +0.000 A 
ENDROOT
BRANCH   5   8
ATOM      8  N   UNL     1       3.265   6.481  18.135  0.00  0.00    +0.000 N 
ATOM      9  C   UNL     1       4.461   5.804  18.347  0.00  0.00    +0.000 C 
ATOM     10  O   UNL     1       4.928   5.516  19.443  0.00  0.00    +0.000 OA
ATOM     11  H   UNL     1       2.924   6.540  17.181  0.00  0.00    +0.000 HD
BRANCH   9  12
ATOM     12  C   UNL     1       5.202   5.348  17.139  0.00  0.00    +0.000 A 
ATOM     13  C   UNL     1       4.708   4.282  16.381  0.00  0.00    +0.000 A 
ATOM     14  F   UNL     1       3.520   3.726  16.670  0.00  0.00    +0.000 F 
ATOM     15  C   UNL     1       5.426   3.753  15.307  0.00  0.00    +0.000 A 
ATOM     16  C   UNL     1       6.666   4.289  14.973  0.00  0.00    +0.000 A 
ATOM     17  C   UNL     1       7.169   5.364  15.703  0.00  0.00    +0.000 A 
ATOM     18  C   UNL     1       6.445   5.897  16.779  0.00  0.00    +0.000 A 
ATOM     19 CL   UNL     1       7.150   7.273  17.558  0.00  0.00    +0.000 Cl
ENDBRANCH   9  12
ENDBRANCH   5   8
BRANCH   7  20
ATOM     20  S   UNL     1       0.996  10.740  19.872  0.00  0.00    +0.000 S 
ATOM     21  O   UNL     1       1.379  11.353  21.124  0.00  0.00    +0.000 OA
ATOM     22  O   UNL     1       1.617  11.167  18.634  0.00  0.00    +0.000 OA
BRANCH  20  23
ATOM     23  N   UNL     1      -0.687  10.948  19.756  0.00  0.00    +0.000 N 
ATOM     24  H   UNL     1      -1.127  10.056  19.999  0.00  0.00    +0.000 HD
BRANCH  23  25
ATOM     25  C   UNL     1      -1.252  12.091  20.414  0.00  0.00    +0.000 A 
ATOM     26  C   UNL     1      -1.900  11.897  21.634  0.00  0.00    +0.000 A 
ATOM     27  C   UNL     1      -2.490  12.976  22.296  0.00  0.00    +0.000 A 
ATOM     28  C   UNL     1      -2.443  14.253  21.737  0.00  0.00    +0.000 A 
ATOM     29  C   UNL     1      -1.803  14.455  20.514  0.00  0.00    +0.000 A 
ATOM     30  C   UNL     1      -1.208  13.378  19.850  0.00  0.00    +0.000 A 
ATOM     31 CL   UNL     1      -0.392  13.681  18.359  0.00  0.00    +0.000 Cl
ENDBRANCH  23  25
ENDBRANCH  20  23
ENDBRANCH   7  20
TORSDOF 5
ENDMDL
MODEL 6
REMARK VINA RESULT:      -7.9      3.584      8.322
REMARK  Name = 
REMARK  6 active torsions:
REMARK  status: ('A' for Active; 'I' for Inactive)
REMARK    1  A    between atoms: C_1  and  C_2
REMARK    2  A    between atoms: C_5  and  N_6
REMARK    3  A    between atoms: C_7  and  C_9
REMARK    4  A    between atoms: C_18  and  S_19
REMARK    5  A    between atoms: S_19  and  N_22
REMARK    6  A    between atoms: N_22  and  C_23
REMARK                            x       y       z     vdW  Elec       q    Type
REMARK                         _______ _______ _______ _____ _____    ______ ____
ROOT
ATOM      1  C   UNL     1       5.399   5.587  15.532  0.00  0.00    +0.000 C 
ATOM      2  C   UNL     1       4.628   6.223  16.653  0.00  0.00    +0.000 A 
ATOM      3  C   UNL     1       3.868   7.363  16.354  0.00  0.00    +0.000 A 
ATOM      4  C   UNL     1       3.106   8.013  17.330  0.00  0.00    +0.000 A 
ATOM      5  C   UNL     1       3.071   7.544  18.641  0.00  0.00    +0.000 A 
ATOM      6  C   UNL     1       3.861   6.440  18.966  0.00  0.00    +0.000 A 
ATOM      7  C   UNL     1       4.634   5.772  17.987  0.00  0.00    +0.000 A 
ENDROOT
BRANCH   5   8
ATOM      8  N   UNL     1       2.295   8.137  19.666  0.00  0.00    +0.000 N 
ATOM      9  C   UNL     1       1.278   9.070  19.494  0.00  0.00    +0.000 C 
ATOM     10  O   UNL     1       0.861   9.473  18.415  0.00  0.00    +0.000 OA
ATOM     11  H   UNL     1       2.455   7.788  20.606  0.00  0.00    +0.000 HD
BRANCH   9  12
ATOM     12  C   UNL     1       0.610   9.575  20.726  0.00  0.00    +0.000 A 
ATOM     13  C   UNL     1      -0.002   8.675  21.604  0.00  0.00    +0.000 A 
ATOM     14  F   UNL     1       0.089   7.350  21.404  0.00  0.00    +0.000 F 
ATOM     15  C   UNL     1      -0.733   9.114  22.710  0.00  0.00    +0.000 A 
ATOM     16  C   UNL     1      -0.864  10.478  22.955  0.00  0.00    +0.000 A 
ATOM     17  C   UNL     1      -0.246  11.392  22.104  0.00  0.00    +0.000 A 
ATOM     18  C   UNL     1       0.490  10.949  20.995  0.00  0.00    +0.000 A 
ATOM     19 CL   UNL     1       1.263  12.183  20.058  0.00  0.00    +0.000 Cl
ENDBRANCH   9  12
ENDBRANCH   5   8
BRANCH   7  20
ATOM     20  S   UNL     1       5.711   4.469  18.579  0.00  0.00    +0.000 S 
ATOM     21  O   UNL     1       6.913   4.451  17.775  0.00  0.00    +0.000 OA
ATOM     22  O   UNL     1       5.802   4.598  20.020  0.00  0.00    +0.000 OA
BRANCH  20  23
ATOM     23  N   UNL     1       4.880   3.037  18.195  0.00  0.00    +0.000 N 
ATOM     24  H   UNL     1       5.473   2.251  18.477  0.00  0.00    +0.000 HD
BRANCH  23  25
ATOM     25  C   UNL     1       3.514   2.938  18.622  0.00  0.00    +0.000 A 
ATOM     26  C   UNL     1       2.516   3.358  17.741  0.00  0.00    +0.000 A 
ATOM     27  C   UNL     1       1.174   3.307  18.125  0.00  0.00    +0.000 A 
ATOM     28  C   UNL     1       0.823   2.843  19.393  0.00  0.00    +0.000 A 
ATOM     29  C   UNL     1       1.815   2.428  20.282  0.00  0.00    +0.000 A 
ATOM     30  C   UNL     1       3.160   2.475  19.900  0.00  0.00    +0.000 A 
ATOM     31 CL   UNL     1       4.350   1.913  21.017  0.00  0.00    +0.000 Cl
ENDBRANCH  23  25
ENDBRANCH  20  23
ENDBRANCH   7  20
TORSDOF 5
ENDMDL
MODEL 7
REMARK VINA RESULT:      -7.8      3.187      4.416
REMARK  Name = 
REMARK  6 active torsions:
REMARK  status: ('A' for Active; 'I' for Inactive)
REMARK    1  A    between atoms: C_1  and  C_2
REMARK    2  A    between atoms: C_5  and  N_6
REMARK    3  A    between atoms: C_7  and  C_9
REMARK    4  A    between atoms: C_18  and  S_19
REMARK    5  A    between atoms: S_19  and  N_22
REMARK    6  A    between atoms: N_22  and  C_23
REMARK                            x       y       z     vdW  Elec       q    Type
REMARK                         _______ _______ _______ _____ _____    ______ ____
ROOT
ATOM      1  C   UNL     1       0.776  12.305  18.617  0.00  0.00    +0.000 C 
ATOM      2  C   UNL     1       1.107  10.897  19.022  0.00  0.00    +0.000 A 
ATOM      3  C   UNL     1       1.525  10.012  18.017  0.00  0.00    +0.000 A 
ATOM      4  C   UNL     1       1.869   8.688  18.302  0.00  0.00    +0.000 A 
ATOM      5  C   UNL     1       1.812   8.198  19.604  0.00  0.00    +0.000 A 
ATOM      6  C   UNL     1       1.351   9.051  20.609  0.00  0.00    +0.000 A 
ATOM      7  C   UNL     1       1.002  10.394  20.333  0.00  0.00    +0.000 A 
ENDROOT
BRANCH   5   8
ATOM      8  N   UNL     1       2.178   6.878  19.963  0.00  0.00    +0.000 N 
ATOM      9  C   UNL     1       2.316   5.797  19.098  0.00  0.00    +0.000 C 
ATOM     10  O   UNL     1       2.198   5.846  17.880  0.00  0.00    +0.000 OA
ATOM     11  H   UNL     1       2.432   6.734  20.936  0.00  0.00    +0.000 HD
BRANCH   9  12
ATOM     12  C   UNL     1       2.690   4.490  19.706  0.00  0.00    +0.000 A 
ATOM     13  C   UNL     1       1.800   3.844  20.569  0.00  0.00    +0.000 A 
ATOM     14  F   UNL     1       0.568   4.337  20.781  0.00  0.00    +0.000 F 
ATOM     15  C   UNL     1       2.155   2.675  21.244  0.00  0.00    +0.000 A 
ATOM     16  C   UNL     1       3.422   2.129  21.065  0.00  0.00    +0.000 A 
ATOM     17  C   UNL     1       4.318   2.746  20.194  0.00  0.00    +0.000 A 
ATOM     18  C   UNL     1       3.960   3.919  19.514  0.00  0.00    +0.000 A 
ATOM     19 CL   UNL     1       5.139   4.545  18.412  0.00  0.00    +0.000 Cl
ENDBRANCH   9  12
ENDBRANCH   5   8
BRANCH   7  20
ATOM     20  S   UNL     1       0.286  11.322  21.687  0.00  0.00    +0.000 S 
ATOM     21  O   UNL     1       0.213  10.472  22.855  0.00  0.00    +0.000 OA
ATOM     22  O   UNL     1       0.977  12.595  21.758  0.00  0.00    +0.000 OA
BRANCH  20  23
ATOM     23  N   UNL     1      -1.323  11.583  21.208  0.00  0.00    +0.000 N 
ATOM     24  H   UNL     1      -1.756  10.667  21.064  0.00  0.00    +0.000 HD
BRANCH  23  25
ATOM     25  C   UNL     1      -2.101  12.495  21.997  0.00  0.00    +0.000 A 
ATOM     26  C   UNL     1      -2.734  12.003  23.139  0.00  0.00    +0.000 A 
ATOM     27  C   UNL     1      -3.526  12.847  23.922  0.00  0.00    +0.000 A 
ATOM     28  C   UNL     1      -3.695  14.184  23.562  0.00  0.00    +0.000 A 
ATOM     29  C   UNL     1      -3.072  14.682  22.417  0.00  0.00    +0.000 A 
ATOM     30  C   UNL     1      -2.277  13.840  21.633  0.00  0.00    +0.000 A 
ATOM     31 CL   UNL     1      -1.492  14.509  20.248  0.00  0.00    +0.000 Cl
ENDBRANCH  23  25
ENDBRANCH  20  23
ENDBRANCH   7  20
TORSDOF 5
ENDMDL
MODEL 8
REMARK VINA RESULT:      -7.8      3.129      8.500
REMARK  Name = 
REMARK  6 active torsions:
REMARK  status: ('A' for Active; 'I' for Inactive)
REMARK    1  A    between atoms: C_1  and  C_2
REMARK    2  A    between atoms: C_5  and  N_6
REMARK    3  A    between atoms: C_7  and  C_9
REMARK    4  A    between atoms: C_18  and  S_19
REMARK    5  A    between atoms: S_19  and  N_22
REMARK    6  A    between atoms: N_22  and  C_23
REMARK                            x       y       z     vdW  Elec       q    Type
REMARK                         _______ _______ _______ _____ _____    ______ ____
ROOT
ATOM      1  C   UNL     1       3.714   2.016  19.706  0.00  0.00    +0.000 C 
ATOM      2  C   UNL     1       3.059   3.344  19.955  0.00  0.00    +0.000 A 
ATOM      3  C   UNL     1       1.741   3.337  20.436  0.00  0.00    +0.000 A 
ATOM      4  C   UNL     1       1.055   4.524  20.713  0.00  0.00    +0.000 A 
ATOM      5  C   UNL     1       1.662   5.762  20.523  0.00  0.00    +0.000 A 
ATOM      6  C   UNL     1       2.956   5.788  19.998  0.00  0.00    +0.000 A 
ATOM      7  C   UNL     1       3.661   4.594  19.717  0.00  0.00    +0.000 A 
ENDROOT
BRANCH   5   8
ATOM      8  N   UNL     1       1.034   6.997  20.815  0.00  0.00    +0.000 N 
ATOM      9  C   UNL     1       1.306   8.222  20.216  0.00  0.00    +0.000 C 
ATOM     10  O   UNL     1       2.096   8.401  19.296  0.00  0.00    +0.000 OA
ATOM     11  H   UNL     1       0.263   6.960  21.475  0.00  0.00    +0.000 HD
BRANCH   9  12
ATOM     12  C   UNL     1       0.532   9.398  20.701  0.00  0.00    +0.000 A 
ATOM     13  C   UNL     1       0.526   9.713  22.063  0.00  0.00    +0.000 A 
ATOM     14  F   UNL     1       1.291   9.028  22.930  0.00  0.00    +0.000 F 
ATOM     15  C   UNL     1      -0.273  10.738  22.574  0.00  0.00    +0.000 A 
ATOM     16  C   UNL     1      -1.090  11.470  21.718  0.00  0.00    +0.000 A 
ATOM     17  C   UNL     1      -1.086  11.186  20.354  0.00  0.00    +0.000 A 
ATOM     18  C   UNL     1      -0.279  10.158  19.841  0.00  0.00    +0.000 A 
ATOM     19 CL   UNL     1      -0.316   9.953  18.123  0.00  0.00    +0.000 Cl
ENDBRANCH   9  12
ENDBRANCH   5   8
BRANCH   7  20
ATOM     20  S   UNL     1       5.248   4.781  18.909  0.00  0.00    +0.000 S 
ATOM     21  O   UNL     1       6.091   5.634  19.718  0.00  0.00    +0.000 OA
ATOM     22  O   UNL     1       5.705   3.457  18.531  0.00  0.00    +0.000 OA
BRANCH  20  23
ATOM     23  N   UNL     1       4.899   5.675  17.507  0.00  0.00    +0.000 N 
ATOM     24  H   UNL     1       4.965   6.668  17.749  0.00  0.00    +0.000 HD
BRANCH  23  25
ATOM     25  C   UNL     1       5.592   5.306  16.306  0.00  0.00    +0.000 A 
ATOM     26  C   UNL     1       4.958   4.433  15.421  0.00  0.00    +0.000 A 
ATOM     27  C   UNL     1       5.606   4.024  14.253  0.00  0.00    +0.000 A 
ATOM     28  C   UNL     1       6.894   4.479  13.968  0.00  0.00    +0.000 A 
ATOM     29  C   UNL     1       7.537   5.346  14.851  0.00  0.00    +0.000 A 
ATOM     30  C   UNL     1       6.890   5.760  16.020  0.00  0.00    +0.000 A 
ATOM     31 CL   UNL     1       7.709   6.866  17.063  0.00  0.00    +0.000 Cl
ENDBRANCH  23  25
ENDBRANCH  20  23
ENDBRANCH   7  20
TORSDOF 5
ENDMDL
MODEL 9
REMARK VINA RESULT:      -7.7      2.787      3.377
REMARK  Name = 
REMARK  6 active torsions:
REMARK  status: ('A' for Active; 'I' for Inactive)
REMARK    1  A    between atoms: C_1  and  C_2
REMARK    2  A    between atoms: C_5  and  N_6
REMARK    3  A    between atoms: C_7  and  C_9
REMARK    4  A    between atoms: C_18  and  S_19
REMARK    5  A    between atoms: S_19  and  N_22
REMARK    6  A    between atoms: N_22  and  C_23
REMARK                            x       y       z     vdW  Elec       q    Type
REMARK                         _______ _______ _______ _____ _____    ______ ____
ROOT
ATOM      1  C   UNL     1      -0.233   9.060  21.940  0.00  0.00    +0.000 C 
ATOM      2  C   UNL     1       0.707   8.452  20.938  0.00  0.00    +0.000 A 
ATOM      3  C   UNL     1       1.184   7.159  21.197  0.00  0.00    +0.000 A 
ATOM      4  C   UNL     1       2.050   6.507  20.314  0.00  0.00    +0.000 A 
ATOM      5  C   UNL     1       2.467   7.121  19.136  0.00  0.00    +0.000 A 
ATOM      6  C   UNL     1       2.041   8.427  18.887  0.00  0.00    +0.000 A 
ATOM      7  C   UNL     1       1.163   9.096  19.772  0.00  0.00    +0.000 A 
ENDROOT
BRANCH   5   8
ATOM      8  N   UNL     1       3.316   6.502  18.186  0.00  0.00    +0.000 N 
ATOM      9  C   UNL     1       4.468   5.773  18.461  0.00  0.00    +0.000 C 
ATOM     10  O   UNL     1       4.887   5.507  19.581  0.00  0.00    +0.000 OA
ATOM     11  H   UNL     1       3.006   6.539  17.220  0.00  0.00    +0.000 HD
BRANCH   9  12
ATOM     12  C   UNL     1       5.218   5.230  17.295  0.00  0.00    +0.000 A 
ATOM     13  C   UNL     1       6.222   5.996  16.696  0.00  0.00    +0.000 A 
ATOM     14  F   UNL     1       6.590   7.177  17.219  0.00  0.00    +0.000 F 
ATOM     15  C   UNL     1       6.872   5.571  15.536  0.00  0.00    +0.000 A 
ATOM     16  C   UNL     1       6.521   4.359  14.950  0.00  0.00    +0.000 A 
ATOM     17  C   UNL     1       5.535   3.570  15.541  0.00  0.00    +0.000 A 
ATOM     18  C   UNL     1       4.885   3.997  16.709  0.00  0.00    +0.000 A 
ATOM     19 CL   UNL     1       3.731   2.893  17.378  0.00  0.00    +0.000 Cl
ENDBRANCH   9  12
ENDBRANCH   5   8
BRANCH   7  20
ATOM     20  S   UNL     1       0.822  10.815  19.402  0.00  0.00    +0.000 S 
ATOM     21  O   UNL     1       1.693  11.249  18.333  0.00  0.00    +0.000 OA
ATOM     22  O   UNL     1      -0.615  10.958  19.271  0.00  0.00    +0.000 OA
BRANCH  20  23
ATOM     23  N   UNL     1       1.343  11.650  20.787  0.00  0.00    +0.000 N 
ATOM     24  H   UNL     1       2.340  11.450  20.913  0.00  0.00    +0.000 HD
BRANCH  23  25
ATOM     25  C   UNL     1       0.997  13.040  20.883  0.00  0.00    +0.000 A 
ATOM     26  C   UNL     1       1.713  13.953  20.107  0.00  0.00    +0.000 A 
ATOM     27  C   UNL     1       1.430  15.318  20.189  0.00  0.00    +0.000 A 
ATOM     28  C   UNL     1       0.436  15.778  21.054  0.00  0.00    +0.000 A 
ATOM     29  C   UNL     1      -0.279  14.873  21.838  0.00  0.00    +0.000 A 
ATOM     30  C   UNL     1      -0.000  13.505  21.756  0.00  0.00    +0.000 A 
ATOM     31 CL   UNL     1      -0.938  12.418  22.715  0.00  0.00    +0.000 Cl
ENDBRANCH  23  25
ENDBRANCH  20  23
ENDBRANCH   7  20
TORSDOF 5
ENDMDL
