MODEL 1
REMARK VINA RESULT:      -8.1      0.000      0.000
REMARK  Name = 
REMARK  6 active torsions:
REMARK  status: ('A' for Active; 'I' for Inactive)
REMARK    1  A    between atoms: C_1  and  C_2
REMARK    2  A    between atoms: C_2  and  S_3
REMARK    3  A    between atoms: C_2  and  C_6
REMARK    4  A    between atoms: S_3  and  C_4
REMARK    5  A    between atoms: C_10  and  C_11
REMARK    6  A    between atoms: C_18  and  C_19
REMARK                            x       y       z     vdW  Elec       q    Type
REMARK                         _______ _______ _______ _____ _____    ______ ____
ROOT
ATOM      1  C   UNL     1       4.444   3.316  19.169  0.00  0.00    +0.000 C 
ATOM      2  N   UNL     1       5.698   3.678  19.242  0.00  0.00    +0.000 NA
ATOM      3  C   UNL     1       5.952   4.278  17.983  0.00  0.00    +0.000 A 
ATOM      4  C   UNL     1       4.962   4.006  17.027  0.00  0.00    +0.000 A 
ATOM      5  C   UNL     1       4.698   4.798  15.928  0.00  0.00    +0.000 A 
ATOM      6  C   UNL     1       5.500   5.924  15.777  0.00  0.00    +0.000 A 
ATOM      7  C   UNL     1       6.526   6.209  16.700  0.00  0.00    +0.000 A 
ATOM      8  C   UNL     1       6.773   5.376  17.819  0.00  0.00    +0.000 A 
ATOM      9  C   UNL     1       4.025   3.124  17.713  0.00  0.00    +0.000 C 
ATOM     10  O   UNL     1       3.094   2.495  17.270  0.00  0.00    +0.000 OA
ENDROOT
BRANCH   1  15
ATOM     11  C   UNL     1       1.859   5.680  20.127  0.00  0.00    +0.000 A 
ATOM     12  C   UNL     1       0.865   4.746  20.463  0.00  0.00    +0.000 A 
ATOM     13  C   UNL     1       1.176   3.404  20.732  0.00  0.00    +0.000 A 
ATOM     14  C   UNL     1       2.478   2.946  20.601  0.00  0.00    +0.000 A 
ATOM     15  C   UNL     1       3.447   3.823  20.131  0.00  0.00    +0.000 A 
ATOM     16  C   UNL     1       3.165   5.204  19.988  0.00  0.00    +0.000 A 
BRANCH  11  18
ATOM     17  C   UNL     1       1.578   8.050  21.156  0.00  0.00    +0.000 C 
ATOM     18  C   UNL     1       1.489   7.147  19.922  0.00  0.00    +0.000 C 
BRANCH  18  19
ATOM     19  S   UNL     1       2.348   7.921  18.492  0.00  0.00    +0.000 S 
BRANCH  19  20
ATOM     20  C   UNL     1       1.518   9.522  18.399  0.00  0.00    +0.000 C 
ATOM     21  F   UNL     1       0.399   9.391  17.633  0.00  0.00    +0.000 F 
ENDBRANCH  19  20
ENDBRANCH  18  19
ENDBRANCH  11  18
ENDBRANCH   1  15
BRANCH   8  22
ATOM     22  C   UNL     1       7.761   5.807  18.869  0.00  0.00    +0.000 C 
ATOM     23  F   UNL     1       8.389   6.996  18.643  0.00  0.00    +0.000 F 
ATOM     24  F   UNL     1       7.186   5.924  20.095  0.00  0.00    +0.000 F 
ATOM     25  F   UNL     1       8.766   4.893  19.015  0.00  0.00    +0.000 F 
ENDBRANCH   8  22
TORSDOF 5
ENDMDL
MODEL 2
REMARK VINA RESULT:      -8.0      1.425      1.816
REMARK  Name = 
REMARK  6 active torsions:
REMARK  status: ('A' for Active; 'I' for Inactive)
REMARK    1  A    between atoms: C_1  and  C_2
REMARK    2  A    between atoms: C_2  and  S_3
REMARK    3  A    between atoms: C_2  and  C_6
REMARK    4  A    between atoms: S_3  and  C_4
REMARK    5  A    between atoms: C_10  and  C_11
REMARK    6  A    between atoms: C_18  and  C_19
REMARK                            x       y       z     vdW  Elec       q    Type
REMARK                         _______ _______ _______ _____ _____    ______ ____
ROOT
ATOM      1  C   UNL     1       4.336   3.465  19.156  0.00  0.00    +0.000 C 
ATOM      2  N   UNL     1       5.611   3.736  19.258  0.00  0.00    +0.000 NA
ATOM      3  C   UNL     1       5.934   4.327  18.011  0.00  0.00    +0.000 A 
ATOM      4  C   UNL     1       4.948   4.133  17.031  0.00  0.00    +0.000 A 
ATOM      5  C   UNL     1       4.765   4.951  15.935  0.00  0.00    +0.000 A 
ATOM      6  C   UNL     1       5.648   6.018  15.811  0.00  0.00    +0.000 A 
ATOM      7  C   UNL     1       6.672   6.222  16.758  0.00  0.00    +0.000 A 
ATOM      8  C   UNL     1       6.834   5.364  17.874  0.00  0.00    +0.000 A 
ATOM      9  C   UNL     1       3.936   3.315  17.689  0.00  0.00    +0.000 C 
ATOM     10  O   UNL     1       2.973   2.757  17.221  0.00  0.00    +0.000 OA
ENDROOT
BRANCH   1  15
ATOM     11  C   UNL     1       2.077   6.113  20.189  0.00  0.00    +0.000 A 
ATOM     12  C   UNL     1       0.929   5.324  20.366  0.00  0.00    +0.000 A 
ATOM     13  C   UNL     1       1.009   3.930  20.514  0.00  0.00    +0.000 A 
ATOM     14  C   UNL     1       2.232   3.284  20.417  0.00  0.00    +0.000 A 
ATOM     15  C   UNL     1       3.358   4.034  20.101  0.00  0.00    +0.000 A 
ATOM     16  C   UNL     1       3.302   5.450  20.084  0.00  0.00    +0.000 A 
BRANCH  11  18
ATOM     17  C   UNL     1       1.997   8.252  18.713  0.00  0.00    +0.000 C 
ATOM     18  C   UNL     1       1.952   7.633  20.114  0.00  0.00    +0.000 C 
BRANCH  18  19
ATOM     19  S   UNL     1       0.524   8.294  21.066  0.00  0.00    +0.000 S 
BRANCH  19  20
ATOM     20  C   UNL     1       1.362   9.194  22.389  0.00  0.00    +0.000 C 
ATOM     21  F   UNL     1       0.505   9.325  23.440  0.00  0.00    +0.000 F 
ENDBRANCH  19  20
ENDBRANCH  18  19
ENDBRANCH  11  18
ENDBRANCH   1  15
BRANCH   8  22
ATOM     22  C   UNL     1       7.827   5.716  18.948  0.00  0.00    +0.000 C 
ATOM     23  F   UNL     1       8.834   4.819  19.147  0.00  0.00    +0.000 F 
ATOM     24  F   UNL     1       8.440   6.906  18.708  0.00  0.00    +0.000 F 
ATOM     25  F   UNL     1       7.221   5.849  20.166  0.00  0.00    +0.000 F 
ENDBRANCH   8  22
TORSDOF 5
ENDMDL
MODEL 3
REMARK VINA RESULT:      -7.8      3.516      5.035
REMARK  Name = 
REMARK  6 active torsions:
REMARK  status: ('A' for Active; 'I' for Inactive)
REMARK    1  A    between atoms: C_1  and  C_2
REMARK    2  A    between atoms: C_2  and  S_3
REMARK    3  A    between atoms: C_2  and  C_6
REMARK    4  A    between atoms: S_3  and  C_4
REMARK    5  A    between atoms: C_10  and  C_11
REMARK    6  A    between atoms: C_18  and  C_19
REMARK                            x       y       z     vdW  Elec       q    Type
REMARK                         _______ _______ _______ _____ _____    ______ ____
ROOT
ATOM      1  C   UNL     1       2.473   6.522  18.109  0.00  0.00    +0.000 C 
ATOM      2  N   UNL     1       1.733   5.452  18.232  0.00  0.00    +0.000 NA
ATOM      3  C   UNL     1       2.673   4.405  18.405  0.00  0.00    +0.000 A 
ATOM      4  C   UNL     1       3.985   4.777  18.073  0.00  0.00    +0.000 A 
ATOM      5  C   UNL     1       5.118   4.165  18.569  0.00  0.00    +0.000 A 
ATOM      6  C   UNL     1       4.910   3.099  19.437  0.00  0.00    +0.000 A 
ATOM      7  C   UNL     1       3.607   2.678  19.764  0.00  0.00    +0.000 A 
ATOM      8  C   UNL     1       2.461   3.327  19.239  0.00  0.00    +0.000 A 
ATOM      9  C   UNL     1       3.868   6.154  17.608  0.00  0.00    +0.000 C 
ATOM     10  O   UNL     1       4.689   6.857  17.070  0.00  0.00    +0.000 OA
ENDROOT
BRANCH   1  15
ATOM     11  C   UNL     1       0.919   9.650  19.104  0.00  0.00    +0.000 A 
ATOM     12  C   UNL     1       0.562   9.276  20.410  0.00  0.00    +0.000 A 
ATOM     13  C   UNL     1       1.159   8.179  21.051  0.00  0.00    +0.000 A 
ATOM     14  C   UNL     1       2.075   7.386  20.377  0.00  0.00    +0.000 A 
ATOM     15  C   UNL     1       2.333   7.658  19.040  0.00  0.00    +0.000 A 
ATOM     16  C   UNL     1       1.835   8.838  18.432  0.00  0.00    +0.000 A 
BRANCH  11  18
ATOM     17  C   UNL     1      -1.208  10.864  18.233  0.00  0.00    +0.000 C 
ATOM     18  C   UNL     1       0.304  10.897  18.474  0.00  0.00    +0.000 C 
BRANCH  18  19
ATOM     19  S   UNL     1       0.788  12.455  19.324  0.00  0.00    +0.000 S 
BRANCH  19  20
ATOM     20  C   UNL     1       2.167  13.008  18.297  0.00  0.00    +0.000 C 
ATOM     21  F   UNL     1       2.716  11.925  17.681  0.00  0.00    +0.000 F 
ENDBRANCH  19  20
ENDBRANCH  18  19
ENDBRANCH  11  18
ENDBRANCH   1  15
BRANCH   8  22
ATOM     22  C   UNL     1       1.094   2.956  19.746  0.00  0.00    +0.000 C 
ATOM     23  F   UNL     1       0.245   2.412  18.829  0.00  0.00    +0.000 F 
ATOM     24  F   UNL     1       1.153   2.060  20.767  0.00  0.00    +0.000 F 
ATOM     25  F   UNL     1       0.434   4.045  20.244  0.00  0.00    +0.000 F 
ENDBRANCH   8  22
TORSDOF 5
ENDMDL
MODEL 4
REMARK VINA RESULT:      -7.6      3.693      5.110
REMARK  Name = 
REMARK  6 active torsions:
REMARK  status: ('A' for Active; 'I' for Inactive)
REMARK    1  A    between atoms: C_1  and  C_2
REMARK    2  A    between atoms: C_2  and  S_3
REMARK    3  A    between atoms: C_2  and  C_6
REMARK    4  A    between atoms: S_3  and  C_4
REMARK    5  A    between atoms: C_10  and  C_11
REMARK    6  A    between atoms: C_18  and  C_19
REMARK                            x       y       z     vdW  Elec       q    Type
REMARK                         _______ _______ _______ _____ _____    ______ ____
ROOT
ATOM      1  C   UNL     1       2.452   6.620  18.085  0.00  0.00    +0.000 C 
ATOM      2  N   UNL     1       1.733   5.534  18.202  0.00  0.00    +0.000 NA
ATOM      3  C   UNL     1       2.693   4.508  18.386  0.00  0.00    +0.000 A 
ATOM      4  C   UNL     1       4.001   4.907  18.067  0.00  0.00    +0.000 A 
ATOM      5  C   UNL     1       5.141   4.319  18.575  0.00  0.00    +0.000 A 
ATOM      6  C   UNL     1       4.947   3.250  19.443  0.00  0.00    +0.000 A 
ATOM      7  C   UNL     1       3.649   2.802  19.757  0.00  0.00    +0.000 A 
ATOM      8  C   UNL     1       2.496   3.426  19.220  0.00  0.00    +0.000 A 
ATOM      9  C   UNL     1       3.860   6.280  17.598  0.00  0.00    +0.000 C 
ATOM     10  O   UNL     1       4.671   7.000  17.068  0.00  0.00    +0.000 OA
ENDROOT
BRANCH   1  15
ATOM     11  C   UNL     1       0.748   9.656  19.119  0.00  0.00    +0.000 A 
ATOM     12  C   UNL     1       0.466   9.273  20.440  0.00  0.00    +0.000 A 
ATOM     13  C   UNL     1       1.154   8.220  21.065  0.00  0.00    +0.000 A 
ATOM     14  C   UNL     1       2.091   7.479  20.361  0.00  0.00    +0.000 A 
ATOM     15  C   UNL     1       2.278   7.753  19.012  0.00  0.00    +0.000 A 
ATOM     16  C   UNL     1       1.687   8.895  18.417  0.00  0.00    +0.000 A 
BRANCH  11  18
ATOM     17  C   UNL     1      -1.397  10.621  18.013  0.00  0.00    +0.000 C 
ATOM     18  C   UNL     1       0.035  10.858  18.504  0.00  0.00    +0.000 C 
BRANCH  18  19
ATOM     19  S   UNL     1       0.116  12.366  19.553  0.00  0.00    +0.000 S 
BRANCH  19  20
ATOM     20  C   UNL     1      -1.590  12.493  20.130  0.00  0.00    +0.000 C 
ATOM     21  F   UNL     1      -1.747  11.683  21.215  0.00  0.00    +0.000 F 
ENDBRANCH  19  20
ENDBRANCH  18  19
ENDBRANCH  11  18
ENDBRANCH   1  15
BRANCH   8  22
ATOM     22  C   UNL     1       1.132   3.028  19.714  0.00  0.00    +0.000 C 
ATOM     23  F   UNL     1       0.372   4.030  20.241  0.00  0.00    +0.000 F 
ATOM     24  F   UNL     1       0.373   2.473  18.731  0.00  0.00    +0.000 F 
ATOM     25  F   UNL     1       1.213   2.084  20.699  0.00  0.00    +0.000 F 
ENDBRANCH   8  22
TORSDOF 5
ENDMDL
MODEL 5
REMARK VINA RESULT:      -7.5      3.263      6.333
REMARK  Name = 
REMARK  6 active torsions:
REMARK  status: ('A' for Active; 'I' for Inactive)
REMARK    1  A    between atoms: C_1  and  C_2
REMARK    2  A    between atoms: C_2  and  S_3
REMARK    3  A    between atoms: C_2  and  C_6
REMARK    4  A    between atoms: S_3  and  C_4
REMARK    5  A    between atoms: C_10  and  C_11
REMARK    6  A    between atoms: C_18  and  C_19
REMARK                            x       y       z     vdW  Elec       q    Type
REMARK                         _______ _______ _______ _____ _____    ______ ____
ROOT
ATOM      1  C   UNL     1       3.625   3.731  17.079  0.00  0.00    +0.000 C 
ATOM      2  N   UNL     1       2.937   4.837  17.192  0.00  0.00    +0.000 NA
ATOM      3  C   UNL     1       2.418   4.782  18.510  0.00  0.00    +0.000 A 
ATOM      4  C   UNL     1       2.519   3.510  19.094  0.00  0.00    +0.000 A 
ATOM      5  C   UNL     1       2.545   3.277  20.454  0.00  0.00    +0.000 A 
ATOM      6  C   UNL     1       2.441   4.397  21.272  0.00  0.00    +0.000 A 
ATOM      7  C   UNL     1       2.304   5.684  20.718  0.00  0.00    +0.000 A 
ATOM      8  C   UNL     1       2.281   5.893  19.317  0.00  0.00    +0.000 A 
ATOM      9  C   UNL     1       3.105   2.675  18.053  0.00  0.00    +0.000 C 
ATOM     10  O   UNL     1       3.247   1.477  18.016  0.00  0.00    +0.000 OA
ENDROOT
BRANCH   1  15
ATOM     11  C   UNL     1       6.397   4.610  14.904  0.00  0.00    +0.000 A 
ATOM     12  C   UNL     1       7.172   5.295  15.853  0.00  0.00    +0.000 A 
ATOM     13  C   UNL     1       6.964   5.129  17.232  0.00  0.00    +0.000 A 
ATOM     14  C   UNL     1       5.930   4.329  17.694  0.00  0.00    +0.000 A 
ATOM     15  C   UNL     1       5.067   3.758  16.768  0.00  0.00    +0.000 A 
ATOM     16  C   UNL     1       5.352   3.815  15.381  0.00  0.00    +0.000 A 
BRANCH  11  18
ATOM     17  C   UNL     1       8.086   5.326  13.062  0.00  0.00    +0.000 C 
ATOM     18  C   UNL     1       6.709   4.756  13.416  0.00  0.00    +0.000 C 
BRANCH  18  19
ATOM     19  S   UNL     1       6.375   3.228  12.450  0.00  0.00    +0.000 S 
BRANCH  19  20
ATOM     20  C   UNL     1       4.723   3.568  11.803  0.00  0.00    +0.000 C 
ATOM     21  F   UNL     1       4.284   2.471  11.125  0.00  0.00    +0.000 F 
ENDBRANCH  19  20
ENDBRANCH  18  19
ENDBRANCH  11  18
ENDBRANCH   1  15
BRANCH   8  22
ATOM     22  C   UNL     1       2.306   7.295  18.770  0.00  0.00    +0.000 C 
ATOM     23  F   UNL     1       1.454   7.546  17.735  0.00  0.00    +0.000 F 
ATOM     24  F   UNL     1       2.009   8.221  19.720  0.00  0.00    +0.000 F 
ATOM     25  F   UNL     1       3.546   7.627  18.300  0.00  0.00    +0.000 F 
ENDBRANCH   8  22
TORSDOF 5
ENDMDL
MODEL 6
REMARK VINA RESULT:      -7.5      3.695      5.124
REMARK  Name = 
REMARK  6 active torsions:
REMARK  status: ('A' for Active; 'I' for Inactive)
REMARK    1  A    between atoms: C_1  and  C_2
REMARK    2  A    between atoms: C_2  and  S_3
REMARK    3  A    between atoms: C_2  and  C_6
REMARK    4  A    between atoms: S_3  and  C_4
REMARK    5  A    between atoms: C_10  and  C_11
REMARK    6  A    between atoms: C_18  and  C_19
REMARK                            x       y       z     vdW  Elec       q    Type
REMARK                         _______ _______ _______ _____ _____    ______ ____
ROOT
ATOM      1  C   UNL     1       2.458   6.560  18.125  0.00  0.00    +0.000 C 
ATOM      2  N   UNL     1       1.720   5.486  18.233  0.00  0.00    +0.000 NA
ATOM      3  C   UNL     1       2.664   4.439  18.383  0.00  0.00    +0.000 A 
ATOM      4  C   UNL     1       3.973   4.818  18.051  0.00  0.00    +0.000 A 
ATOM      5  C   UNL     1       5.110   4.201  18.531  0.00  0.00    +0.000 A 
ATOM      6  C   UNL     1       4.909   3.119  19.382  0.00  0.00    +0.000 A 
ATOM      7  C   UNL     1       3.607   2.690  19.708  0.00  0.00    +0.000 A 
ATOM      8  C   UNL     1       2.458   3.345  19.200  0.00  0.00    +0.000 A 
ATOM      9  C   UNL     1       3.852   6.203  17.610  0.00  0.00    +0.000 C 
ATOM     10  O   UNL     1       4.669   6.917  17.081  0.00  0.00    +0.000 OA
ENDROOT
BRANCH   1  15
ATOM     11  C   UNL     1       0.904   9.667  19.181  0.00  0.00    +0.000 A 
ATOM     12  C   UNL     1       0.553   9.270  20.481  0.00  0.00    +0.000 A 
ATOM     13  C   UNL     1       1.155   8.164  21.101  0.00  0.00    +0.000 A 
ATOM     14  C   UNL     1       2.070   7.384  20.409  0.00  0.00    +0.000 A 
ATOM     15  C   UNL     1       2.320   7.679  19.075  0.00  0.00    +0.000 A 
ATOM     16  C   UNL     1       1.819   8.869  18.491  0.00  0.00    +0.000 A 
BRANCH  11  18
ATOM     17  C   UNL     1      -1.215  10.864  18.265  0.00  0.00    +0.000 C 
ATOM     18  C   UNL     1       0.285  10.925  18.574  0.00  0.00    +0.000 C 
BRANCH  18  19
ATOM     19  S   UNL     1       0.690  12.457  19.508  0.00  0.00    +0.000 S 
BRANCH  19  20
ATOM     20  C   UNL     1      -0.760  13.478  19.165  0.00  0.00    +0.000 C 
ATOM     21  F   UNL     1      -0.457  14.346  18.160  0.00  0.00    +0.000 F 
ENDBRANCH  19  20
ENDBRANCH  18  19
ENDBRANCH  11  18
ENDBRANCH   1  15
BRANCH   8  22
ATOM     22  C   UNL     1       1.094   2.964  19.708  0.00  0.00    +0.000 C 
ATOM     23  F   UNL     1       0.251   2.409  18.792  0.00  0.00    +0.000 F 
ATOM     24  F   UNL     1       1.161   2.071  20.731  0.00  0.00    +0.000 F 
ATOM     25  F   UNL     1       0.423   4.047  20.202  0.00  0.00    +0.000 F 
ENDBRANCH   8  22
TORSDOF 5
ENDMDL
MODEL 7
REMARK VINA RESULT:      -7.4      2.176      3.108
REMARK  Name = 
REMARK  6 active torsions:
REMARK  status: ('A' for Active; 'I' for Inactive)
REMARK    1  A    between atoms: C_1  and  C_2
REMARK    2  A    between atoms: C_2  and  S_3
REMARK    3  A    between atoms: C_2  and  C_6
REMARK    4  A    between atoms: S_3  and  C_4
REMARK    5  A    between atoms: C_10  and  C_11
REMARK    6  A    between atoms: C_18  and  C_19
REMARK                            x       y       z     vdW  Elec       q    Type
REMARK                         _______ _______ _______ _____ _____    ______ ____
ROOT
ATOM      1  C   UNL     1       3.738   5.506  19.103  0.00  0.00    +0.000 C 
ATOM      2  N   UNL     1       4.962   5.965  19.128  0.00  0.00    +0.000 NA
ATOM      3  C   UNL     1       5.609   5.270  18.076  0.00  0.00    +0.000 A 
ATOM      4  C   UNL     1       4.882   4.162  17.612  0.00  0.00    +0.000 A 
ATOM      5  C   UNL     1       5.013   3.615  16.353  0.00  0.00    +0.000 A 
ATOM      6  C   UNL     1       5.953   4.211  15.518  0.00  0.00    +0.000 A 
ATOM      7  C   UNL     1       6.723   5.303  15.964  0.00  0.00    +0.000 A 
ATOM      8  C   UNL     1       6.566   5.844  17.264  0.00  0.00    +0.000 A 
ATOM      9  C   UNL     1       3.700   4.118  18.465  0.00  0.00    +0.000 C 
ATOM     10  O   UNL     1       2.853   3.263  18.563  0.00  0.00    +0.000 OA
ENDROOT
BRANCH   1  15
ATOM     11  C   UNL     1       1.522   8.143  20.253  0.00  0.00    +0.000 A 
ATOM     12  C   UNL     1       1.654   8.996  19.145  0.00  0.00    +0.000 A 
ATOM     13  C   UNL     1       2.144   8.534  17.913  0.00  0.00    +0.000 A 
ATOM     14  C   UNL     1       2.580   7.225  17.778  0.00  0.00    +0.000 A 
ATOM     15  C   UNL     1       2.589   6.408  18.902  0.00  0.00    +0.000 A 
ATOM     16  C   UNL     1       1.974   6.829  20.108  0.00  0.00    +0.000 A 
BRANCH  11  18
ATOM     17  C   UNL     1       1.893   9.087  22.646  0.00  0.00    +0.000 C 
ATOM     18  C   UNL     1       0.909   8.666  21.550  0.00  0.00    +0.000 C 
BRANCH  18  19
ATOM     19  S   UNL     1      -0.355   9.974  21.280  0.00  0.00    +0.000 S 
BRANCH  19  20
ATOM     20  C   UNL     1      -0.783  10.413  22.979  0.00  0.00    +0.000 C 
ATOM     21  F   UNL     1      -0.867  11.769  23.072  0.00  0.00    +0.000 F 
ENDBRANCH  19  20
ENDBRANCH  18  19
ENDBRANCH  11  18
ENDBRANCH   1  15
BRANCH   8  22
ATOM     22  C   UNL     1       7.284   7.112  17.638  0.00  0.00    +0.000 C 
ATOM     23  F   UNL     1       6.497   8.208  17.833  0.00  0.00    +0.000 F 
ATOM     24  F   UNL     1       8.006   6.973  18.782  0.00  0.00    +0.000 F 
ATOM     25  F   UNL     1       8.180   7.482  16.674  0.00  0.00    +0.000 F 
ENDBRANCH   8  22
TORSDOF 5
ENDMDL
MODEL 8
REMARK VINA RESULT:      -7.3      2.521      3.999
REMARK  Name = 
REMARK  6 active torsions:
REMARK  status: ('A' for Active; 'I' for Inactive)
REMARK    1  A    between atoms: C_1  and  C_2
REMARK    2  A    between atoms: C_2  and  S_3
REMARK    3  A    between atoms: C_2  and  C_6
REMARK    4  A    between atoms: S_3  and  C_4
REMARK    5  A    between atoms: C_10  and  C_11
REMARK    6  A    between atoms: C_18  and  C_19
REMARK                            x       y       z     vdW  Elec       q    Type
REMARK                         _______ _______ _______ _____ _____    ______ ____
ROOT
ATOM      1  C   UNL     1       3.297   5.979  19.591  0.00  0.00    +0.000 C 
ATOM      2  N   UNL     1       4.340   5.695  18.857  0.00  0.00    +0.000 NA
ATOM      3  C   UNL     1       4.268   4.289  18.690  0.00  0.00    +0.000 A 
ATOM      4  C   UNL     1       3.371   3.670  19.574  0.00  0.00    +0.000 A 
ATOM      5  C   UNL     1       2.760   2.455  19.342  0.00  0.00    +0.000 A 
ATOM      6  C   UNL     1       3.093   1.818  18.151  0.00  0.00    +0.000 A 
ATOM      7  C   UNL     1       4.016   2.395  17.257  0.00  0.00    +0.000 A 
ATOM      8  C   UNL     1       4.627   3.646  17.523  0.00  0.00    +0.000 A 
ATOM      9  C   UNL     1       2.866   4.758  20.403  0.00  0.00    +0.000 C 
ATOM     10  O   UNL     1       2.190   4.714  21.403  0.00  0.00    +0.000 OA
ENDROOT
BRANCH   1  15
ATOM     11  C   UNL     1       1.229   8.932  20.029  0.00  0.00    +0.000 A 
ATOM     12  C   UNL     1       1.547   9.566  18.817  0.00  0.00    +0.000 A 
ATOM     13  C   UNL     1       2.111   8.860  17.742  0.00  0.00    +0.000 A 
ATOM     14  C   UNL     1       2.437   7.519  17.877  0.00  0.00    +0.000 A 
ATOM     15  C   UNL     1       2.261   6.913  19.115  0.00  0.00    +0.000 A 
ATOM     16  C   UNL     1       1.571   7.583  20.157  0.00  0.00    +0.000 A 
BRANCH  11  18
ATOM     17  C   UNL     1       0.899   9.317  22.578  0.00  0.00    +0.000 C 
ATOM     18  C   UNL     1       0.542   9.718  21.143  0.00  0.00    +0.000 C 
BRANCH  18  19
ATOM     19  S   UNL     1       0.668  11.540  20.931  0.00  0.00    +0.000 S 
BRANCH  19  20
ATOM     20  C   UNL     1      -0.999  11.951  20.370  0.00  0.00    +0.000 C 
ATOM     21  F   UNL     1      -1.489  10.902  19.653  0.00  0.00    +0.000 F 
ENDBRANCH  19  20
ENDBRANCH  18  19
ENDBRANCH  11  18
ENDBRANCH   1  15
BRANCH   8  22
ATOM     22  C   UNL     1       5.472   4.304  16.467  0.00  0.00    +0.000 C 
ATOM     23  F   UNL     1       5.813   3.523  15.403  0.00  0.00    +0.000 F 
ATOM     24  F   UNL     1       4.865   5.399  15.935  0.00  0.00    +0.000 F 
ATOM     25  F   UNL     1       6.659   4.748  16.980  0.00  0.00    +0.000 F 
ENDBRANCH   8  22
TORSDOF 5
ENDMDL
MODEL 9
REMARK VINA RESULT:      -7.3      3.046      6.724
REMARK  Name = 
REMARK  6 active torsions:
REMARK  status: ('A' for Active; 'I' for Inactive)
REMARK    1  A    between atoms: C_1  and  C_2
REMARK    2  A    between atoms: C_2  and  S_3
REMARK    3  A    between atoms: C_2  and  C_6
REMARK    4  A    between atoms: S_3  and  C_4
REMARK    5  A    between atoms: C_10  and  C_11
REMARK    6  A    between atoms: C_18  and  C_19
REMARK                            x       y       z     vdW  Elec       q    Type
REMARK                         _______ _______ _______ _____ _____    ______ ____
ROOT
ATOM      1  C   UNL     1       2.235   7.443  19.633  0.00  0.00    +0.000 C 
ATOM      2  N   UNL     1       1.878   8.139  20.681  0.00  0.00    +0.000 NA
ATOM      3  C   UNL     1       1.114   9.203  20.138  0.00  0.00    +0.000 A 
ATOM      4  C   UNL     1       1.264   9.343  18.750  0.00  0.00    +0.000 A 
ATOM      5  C   UNL     1       0.335   9.937  17.921  0.00  0.00    +0.000 A 
ATOM      6  C   UNL     1      -0.807  10.438  18.538  0.00  0.00    +0.000 A 
ATOM      7  C   UNL     1      -0.974  10.345  19.933  0.00  0.00    +0.000 A 
ATOM      8  C   UNL     1      -0.001   9.728  20.759  0.00  0.00    +0.000 A 
ATOM      9  C   UNL     1       2.235   8.320  18.382  0.00  0.00    +0.000 C 
ATOM     10  O   UNL     1       2.805   8.141  17.333  0.00  0.00    +0.000 OA
ENDROOT
BRANCH   1  15
ATOM     11  C   UNL     1       3.112   3.969  19.044  0.00  0.00    +0.000 A 
ATOM     12  C   UNL     1       2.512   3.425  20.192  0.00  0.00    +0.000 A 
ATOM     13  C   UNL     1       1.533   4.127  20.914  0.00  0.00    +0.000 A 
ATOM     14  C   UNL     1       1.181   5.417  20.547  0.00  0.00    +0.000 A 
ATOM     15  C   UNL     1       1.867   6.021  19.501  0.00  0.00    +0.000 A 
ATOM     16  C   UNL     1       2.756   5.272  18.690  0.00  0.00    +0.000 A 
BRANCH  11  18
ATOM     17  C   UNL     1       3.701   1.699  17.921  0.00  0.00    +0.000 C 
ATOM     18  C   UNL     1       4.113   3.140  18.243  0.00  0.00    +0.000 C 
BRANCH  18  19
ATOM     19  S   UNL     1       4.715   3.993  16.729  0.00  0.00    +0.000 S 
BRANCH  19  20
ATOM     20  C   UNL     1       6.367   4.510  17.244  0.00  0.00    +0.000 C 
ATOM     21  F   UNL     1       7.078   4.869  16.138  0.00  0.00    +0.000 F 
ENDBRANCH  19  20
ENDBRANCH  18  19
ENDBRANCH  11  18
ENDBRANCH   1  15
BRANCH   8  22
ATOM     22  C   UNL     1      -0.296   9.497  22.216  0.00  0.00    +0.000 C 
ATOM     23  F   UNL     1       0.782   9.504  23.051  0.00  0.00    +0.000 F 
ATOM     24  F   UNL     1      -1.153  10.426  22.718  0.00  0.00    +0.000 F 
ATOM     25  F   UNL     1      -0.898   8.287  22.419  0.00  0.00    +0.000 F 
ENDBRANCH   8  22
TORSDOF 5
ENDMDL
