MODEL 1
REMARK VINA RESULT:      -8.6      0.000      0.000
REMARK  Name = 
REMARK  5 active torsions:
REMARK  status: ('A' for Active; 'I' for Inactive)
REMARK    1  A    between atoms: C_2  and  C_24
REMARK    2  A    between atoms: N_3  and  C_4
REMARK    3  A    between atoms: C_4  and  C_5
REMARK    4  A    between atoms: C_5  and  C_6
REMARK    5  A    between atoms: C_12  and  C_13
REMARK                            x       y       z     vdW  Elec       q    Type
REMARK                         _______ _______ _______ _____ _____    ______ ____
ROOT
ATOM      1  C   UNL     1       5.334   4.364  19.310  0.00  0.00    +0.000 C 
ATOM      2  O   UNL     1       5.578   3.161  19.199  0.00  0.00    +0.000 OA
ATOM      3  N   UNL     1       4.035   4.862  19.297  0.00  0.00    +0.000 N 
ATOM      4  C   UNL     1       2.916   3.926  19.264  0.00  0.00    +0.000 C 
ATOM      5  C   UNL     1       2.045   4.186  18.039  0.00  0.00    +0.000 C 
ATOM      6  C   UNL     1       1.575   5.641  18.000  0.00  0.00    +0.000 C 
ATOM      7  C   UNL     1       2.756   6.624  18.110  0.00  0.00    +0.000 C 
ATOM      8  C   UNL     1       3.655   6.278  19.315  0.00  0.00    +0.000 C 
ENDROOT
BRANCH   7   9
ATOM      9  C   UNL     1       2.255   8.031  18.213  0.00  0.00    +0.000 A 
ATOM     10  N   UNL     1       2.412   8.967  17.302  0.00  0.00    +0.000 NA
ATOM     11  N   UNL     1       1.820  10.113  17.755  0.00  0.00    +0.000 NA
ATOM     12  C   UNL     1       1.309   9.876  18.947  0.00  0.00    +0.000 A 
ATOM     13  N   UNL     1       1.574   8.568  19.283  0.00  0.00    +0.000 N 
ATOM     14  C   UNL     1       1.229   7.894  20.518  0.00  0.00    +0.000 C 
ATOM     15  C   UNL     1       1.442   8.758  21.755  0.00  0.00    +0.000 C 
ATOM     16  C   UNL     1       0.292   9.726  22.031  0.00  0.00    +0.000 C 
ATOM     17  C   UNL     1      -0.378  10.327  20.794  0.00  0.00    +0.000 C 
ATOM     18  C   UNL     1       0.610  10.894  19.782  0.00  0.00    +0.000 C 
ENDBRANCH   7   9
BRANCH   1  19
ATOM     19  C   UNL     1       6.447   5.374  19.490  0.00  0.00    +0.000 C 
BRANCH  19  20
ATOM     20  C   UNL     1       7.591   5.137  18.509  0.00  0.00    +0.000 C 
BRANCH  20  23
ATOM     21  O   UNL     1       7.579   6.567  16.064  0.00  0.00    +0.000 OA
ATOM     22  C   UNL     1       7.152   5.418  16.092  0.00  0.00    +0.000 C 
ATOM     23  N   UNL     1       7.128   4.634  17.225  0.00  0.00    +0.000 N 
ATOM     24  H   UNL     1       6.866   3.659  17.161  0.00  0.00    +0.000 HD
BRANCH  22  25
ATOM     25  C   UNL     1       6.668   4.788  14.838  0.00  0.00    +0.000 A 
ATOM     26  C   UNL     1       5.420   4.152  14.856  0.00  0.00    +0.000 A 
ATOM     27  C   UNL     1       4.939   3.517  13.709  0.00  0.00    +0.000 A 
ATOM     28  C   UNL     1       5.714   3.510  12.550  0.00  0.00    +0.000 A 
ATOM     29 CL   UNL     1       5.132   2.711  11.142  0.00  0.00    +0.000 Cl
ATOM     30  C   UNL     1       6.962   4.134  12.527  0.00  0.00    +0.000 A 
ATOM     31  C   UNL     1       7.443   4.776  13.672  0.00  0.00    +0.000 A 
ENDBRANCH  22  25
ENDBRANCH  20  23
ENDBRANCH  19  20
ENDBRANCH   1  19
TORSDOF 5
ENDMDL
MODEL 2
REMARK VINA RESULT:      -8.3      5.823     10.724
REMARK  Name = 
REMARK  5 active torsions:
REMARK  status: ('A' for Active; 'I' for Inactive)
REMARK    1  A    between atoms: C_2  and  C_24
REMARK    2  A    between atoms: N_3  and  C_4
REMARK    3  A    between atoms: C_4  and  C_5
REMARK    4  A    between atoms: C_5  and  C_6
REMARK    5  A    between atoms: C_12  and  C_13
REMARK                            x       y       z     vdW  Elec       q    Type
REMARK                         _______ _______ _______ _____ _____    ______ ____
ROOT
ATOM      1  C   UNL     1       0.016   9.869  20.599  0.00  0.00    +0.000 C 
ATOM      2  O   UNL     1      -0.610  10.885  20.290  0.00  0.00    +0.000 OA
ATOM      3  N   UNL     1       1.146   9.453  19.903  0.00  0.00    +0.000 N 
ATOM      4  C   UNL     1       1.678  10.301  18.840  0.00  0.00    +0.000 C 
ATOM      5  C   UNL     1       1.713   9.538  17.521  0.00  0.00    +0.000 C 
ATOM      6  C   UNL     1       2.501   8.235  17.662  0.00  0.00    +0.000 C 
ATOM      7  C   UNL     1       1.981   7.378  18.832  0.00  0.00    +0.000 C 
ATOM      8  C   UNL     1       1.888   8.209  20.128  0.00  0.00    +0.000 C 
ENDROOT
BRANCH   7   9
ATOM      9  C   UNL     1       2.861   6.183  19.034  0.00  0.00    +0.000 A 
ATOM     10  N   UNL     1       4.071   6.033  18.538  0.00  0.00    +0.000 NA
ATOM     11  N   UNL     1       4.553   4.818  18.940  0.00  0.00    +0.000 NA
ATOM     12  C   UNL     1       3.632   4.226  19.674  0.00  0.00    +0.000 A 
ATOM     13  N   UNL     1       2.535   5.053  19.749  0.00  0.00    +0.000 N 
ATOM     14  C   UNL     1       1.281   4.785  20.423  0.00  0.00    +0.000 C 
ATOM     15  C   UNL     1       0.790   3.355  20.235  0.00  0.00    +0.000 C 
ATOM     16  C   UNL     1       1.445   2.352  21.183  0.00  0.00    +0.000 C 
ATOM     17  C   UNL     1       2.919   2.611  21.503  0.00  0.00    +0.000 C 
ATOM     18  C   UNL     1       3.773   2.865  20.268  0.00  0.00    +0.000 C 
ENDBRANCH   7   9
BRANCH   1  19
ATOM     19  C   UNL     1      -0.404   9.022  21.781  0.00  0.00    +0.000 C 
BRANCH  19  20
ATOM     20  C   UNL     1      -0.415   9.825  23.078  0.00  0.00    +0.000 C 
BRANCH  20  23
ATOM     21  O   UNL     1      -0.509  12.656  23.097  0.00  0.00    +0.000 OA
ATOM     22  C   UNL     1      -1.548  12.017  23.228  0.00  0.00    +0.000 C 
ATOM     23  N   UNL     1      -1.611  10.641  23.218  0.00  0.00    +0.000 N 
ATOM     24  H   UNL     1      -2.509  10.175  23.220  0.00  0.00    +0.000 HD
BRANCH  22  25
ATOM     25  C   UNL     1      -2.837  12.740  23.361  0.00  0.00    +0.000 A 
ATOM     26  C   UNL     1      -3.816  12.197  24.204  0.00  0.00    +0.000 A 
ATOM     27  C   UNL     1      -5.057  12.825  24.334  0.00  0.00    +0.000 A 
ATOM     28  C   UNL     1      -5.319  13.987  23.611  0.00  0.00    +0.000 A 
ATOM     29 CL   UNL     1      -6.854  14.752  23.755  0.00  0.00    +0.000 Cl
ATOM     30  C   UNL     1      -4.353  14.530  22.763  0.00  0.00    +0.000 A 
ATOM     31  C   UNL     1      -3.108  13.907  22.636  0.00  0.00    +0.000 A 
ENDBRANCH  22  25
ENDBRANCH  20  23
ENDBRANCH  19  20
ENDBRANCH   1  19
TORSDOF 5
ENDMDL
MODEL 3
REMARK VINA RESULT:      -8.3      5.287      6.472
REMARK  Name = 
REMARK  5 active torsions:
REMARK  status: ('A' for Active; 'I' for Inactive)
REMARK    1  A    between atoms: C_2  and  C_24
REMARK    2  A    between atoms: N_3  and  C_4
REMARK    3  A    between atoms: C_4  and  C_5
REMARK    4  A    between atoms: C_5  and  C_6
REMARK    5  A    between atoms: C_12  and  C_13
REMARK                            x       y       z     vdW  Elec       q    Type
REMARK                         _______ _______ _______ _____ _____    ______ ____
ROOT
ATOM      1  C   UNL     1       6.865   6.638  16.969  0.00  0.00    +0.000 C 
ATOM      2  O   UNL     1       7.574   6.170  16.076  0.00  0.00    +0.000 OA
ATOM      3  N   UNL     1       5.942   5.864  17.665  0.00  0.00    +0.000 N 
ATOM      4  C   UNL     1       5.884   4.427  17.413  0.00  0.00    +0.000 C 
ATOM      5  C   UNL     1       4.488   4.027  16.950  0.00  0.00    +0.000 C 
ATOM      6  C   UNL     1       3.427   4.473  17.957  0.00  0.00    +0.000 C 
ATOM      7  C   UNL     1       3.541   5.977  18.275  0.00  0.00    +0.000 C 
ATOM      8  C   UNL     1       4.985   6.354  18.663  0.00  0.00    +0.000 C 
ENDROOT
BRANCH   7   9
ATOM      9  C   UNL     1       2.587   6.352  19.367  0.00  0.00    +0.000 A 
ATOM     10  N   UNL     1       2.151   5.545  20.311  0.00  0.00    +0.000 NA
ATOM     11  N   UNL     1       1.300   6.248  21.118  0.00  0.00    +0.000 NA
ATOM     12  C   UNL     1       1.213   7.481  20.660  0.00  0.00    +0.000 A 
ATOM     13  N   UNL     1       2.005   7.587  19.540  0.00  0.00    +0.000 N 
ATOM     14  C   UNL     1       2.177   8.754  18.698  0.00  0.00    +0.000 C 
ATOM     15  C   UNL     1       0.878   9.506  18.438  0.00  0.00    +0.000 C 
ATOM     16  C   UNL     1       0.484  10.455  19.569  0.00  0.00    +0.000 C 
ATOM     17  C   UNL     1       0.808   9.969  20.983  0.00  0.00    +0.000 C 
ATOM     18  C   UNL     1       0.351   8.542  21.256  0.00  0.00    +0.000 C 
ENDBRANCH   7   9
BRANCH   1  19
ATOM     19  C   UNL     1       6.977   8.091  17.375  0.00  0.00    +0.000 C 
BRANCH  19  20
ATOM     20  C   UNL     1       8.313   8.389  18.049  0.00  0.00    +0.000 C 
BRANCH  20  23
ATOM     21  O   UNL     1       9.273  10.306  19.900  0.00  0.00    +0.000 OA
ATOM     22  C   UNL     1       9.251  10.580  18.704  0.00  0.00    +0.000 C 
ATOM     23  N   UNL     1       8.818   9.714  17.725  0.00  0.00    +0.000 N 
ATOM     24  H   UNL     1       8.927   9.956  16.749  0.00  0.00    +0.000 HD
BRANCH  22  25
ATOM     25  C   UNL     1       9.759  11.898  18.248  0.00  0.00    +0.000 A 
ATOM     26  C   UNL     1      11.004  11.941  17.606  0.00  0.00    +0.000 A 
ATOM     27  C   UNL     1      11.537  13.162  17.189  0.00  0.00    +0.000 A 
ATOM     28  C   UNL     1      10.829  14.339  17.427  0.00  0.00    +0.000 A 
ATOM     29 CL   UNL     1      11.493  15.847  16.932  0.00  0.00    +0.000 Cl
ATOM     30  C   UNL     1       9.592  14.306  18.073  0.00  0.00    +0.000 A 
ATOM     31  C   UNL     1       9.053  13.084  18.486  0.00  0.00    +0.000 A 
ENDBRANCH  22  25
ENDBRANCH  20  23
ENDBRANCH  19  20
ENDBRANCH   1  19
TORSDOF 5
ENDMDL
MODEL 4
REMARK VINA RESULT:      -8.1      4.516      5.818
REMARK  Name = 
REMARK  5 active torsions:
REMARK  status: ('A' for Active; 'I' for Inactive)
REMARK    1  A    between atoms: C_2  and  C_24
REMARK    2  A    between atoms: N_3  and  C_4
REMARK    3  A    between atoms: C_4  and  C_5
REMARK    4  A    between atoms: C_5  and  C_6
REMARK    5  A    between atoms: C_12  and  C_13
REMARK                            x       y       z     vdW  Elec       q    Type
REMARK                         _______ _______ _______ _____ _____    ______ ____
ROOT
ATOM      1  C   UNL     1       6.405   4.805  18.040  0.00  0.00    +0.000 C 
ATOM      2  O   UNL     1       6.926   4.059  17.209  0.00  0.00    +0.000 OA
ATOM      3  N   UNL     1       5.081   4.658  18.441  0.00  0.00    +0.000 N 
ATOM      4  C   UNL     1       4.311   3.519  17.950  0.00  0.00    +0.000 C 
ATOM      5  C   UNL     1       3.069   4.000  17.207  0.00  0.00    +0.000 C 
ATOM      6  C   UNL     1       2.226   4.921  18.089  0.00  0.00    +0.000 C 
ATOM      7  C   UNL     1       3.061   6.081  18.664  0.00  0.00    +0.000 C 
ATOM      8  C   UNL     1       4.347   5.557  19.338  0.00  0.00    +0.000 C 
ENDROOT
BRANCH   7   9
ATOM      9  C   UNL     1       2.247   6.879  19.635  0.00  0.00    +0.000 A 
ATOM     10  N   UNL     1       1.819   6.454  20.804  0.00  0.00    +0.000 NA
ATOM     11  N   UNL     1       1.112   7.464  21.397  0.00  0.00    +0.000 NA
ATOM     12  C   UNL     1       1.105   8.501  20.584  0.00  0.00    +0.000 A 
ATOM     13  N   UNL     1       1.803   8.169  19.446  0.00  0.00    +0.000 N 
ATOM     14  C   UNL     1       2.013   8.996  18.275  0.00  0.00    +0.000 C 
ATOM     15  C   UNL     1       0.774   9.782  17.864  0.00  0.00    +0.000 C 
ATOM     16  C   UNL     1       0.573  11.069  18.663  0.00  0.00    +0.000 C 
ATOM     17  C   UNL     1       0.970  11.000  20.138  0.00  0.00    +0.000 C 
ATOM     18  C   UNL     1       0.404   9.787  20.865  0.00  0.00    +0.000 C 
ENDBRANCH   7   9
BRANCH   1  19
ATOM     19  C   UNL     1       7.192   5.920  18.692  0.00  0.00    +0.000 C 
BRANCH  19  20
ATOM     20  C   UNL     1       7.720   6.917  17.664  0.00  0.00    +0.000 C 
BRANCH  20  23
ATOM     21  O   UNL     1       7.270   9.633  16.999  0.00  0.00    +0.000 OA
ATOM     22  C   UNL     1       8.083   9.353  17.875  0.00  0.00    +0.000 C 
ATOM     23  N   UNL     1       8.362   8.067  18.282  0.00  0.00    +0.000 N 
ATOM     24  H   UNL     1       8.959   7.906  19.083  0.00  0.00    +0.000 HD
BRANCH  22  25
ATOM     25  C   UNL     1       8.789  10.444  18.591  0.00  0.00    +0.000 A 
ATOM     26  C   UNL     1       8.888  11.692  17.963  0.00  0.00    +0.000 A 
ATOM     27  C   UNL     1       9.573  12.739  18.585  0.00  0.00    +0.000 A 
ATOM     28  C   UNL     1      10.167  12.529  19.828  0.00  0.00    +0.000 A 
ATOM     29 CL   UNL     1      11.028  13.812  20.587  0.00  0.00    +0.000 Cl
ATOM     30  C   UNL     1      10.080  11.287  20.457  0.00  0.00    +0.000 A 
ATOM     31  C   UNL     1       9.390  10.239  19.840  0.00  0.00    +0.000 A 
ENDBRANCH  22  25
ENDBRANCH  20  23
ENDBRANCH  19  20
ENDBRANCH   1  19
TORSDOF 5
ENDMDL
MODEL 5
REMARK VINA RESULT:      -7.9      1.430      2.273
REMARK  Name = 
REMARK  5 active torsions:
REMARK  status: ('A' for Active; 'I' for Inactive)
REMARK    1  A    between atoms: C_2  and  C_24
REMARK    2  A    between atoms: N_3  and  C_4
REMARK    3  A    between atoms: C_4  and  C_5
REMARK    4  A    between atoms: C_5  and  C_6
REMARK    5  A    between atoms: C_12  and  C_13
REMARK                            x       y       z     vdW  Elec       q    Type
REMARK                         _______ _______ _______ _____ _____    ______ ____
ROOT
ATOM      1  C   UNL     1       6.846   4.853  18.397  0.00  0.00    +0.000 C 
ATOM      2  O   UNL     1       7.485   3.991  17.790  0.00  0.00    +0.000 OA
ATOM      3  N   UNL     1       5.613   4.588  18.982  0.00  0.00    +0.000 N 
ATOM      4  C   UNL     1       5.103   3.220  18.979  0.00  0.00    +0.000 C 
ATOM      5  C   UNL     1       3.749   3.162  18.280  0.00  0.00    +0.000 C 
ATOM      6  C   UNL     1       2.760   4.138  18.917  0.00  0.00    +0.000 C 
ATOM      7  C   UNL     1       3.334   5.566  18.985  0.00  0.00    +0.000 C 
ATOM      8  C   UNL     1       4.736   5.570  19.628  0.00  0.00    +0.000 C 
ENDROOT
BRANCH   7   9
ATOM      9  C   UNL     1       2.405   6.465  19.742  0.00  0.00    +0.000 A 
ATOM     10  N   UNL     1       1.755   6.142  20.839  0.00  0.00    +0.000 NA
ATOM     11  N   UNL     1       1.011   7.221  21.232  0.00  0.00    +0.000 NA
ATOM     12  C   UNL     1       1.203   8.197  20.368  0.00  0.00    +0.000 A 
ATOM     13  N   UNL     1       2.072   7.756  19.397  0.00  0.00    +0.000 N 
ATOM     14  C   UNL     1       2.530   8.488  18.233  0.00  0.00    +0.000 C 
ATOM     15  C   UNL     1       1.428   9.295  17.558  0.00  0.00    +0.000 C 
ATOM     16  C   UNL     1       1.159  10.643  18.226  0.00  0.00    +0.000 C 
ATOM     17  C   UNL     1       1.285  10.662  19.751  0.00  0.00    +0.000 C 
ATOM     18  C   UNL     1       0.534   9.528  20.437  0.00  0.00    +0.000 C 
ENDBRANCH   7   9
BRANCH   1  19
ATOM     19  C   UNL     1       7.387   6.257  18.558  0.00  0.00    +0.000 C 
BRANCH  19  20
ATOM     20  C   UNL     1       7.439   6.999  17.225  0.00  0.00    +0.000 C 
BRANCH  20  23
ATOM     21  O   UNL     1       5.209   6.597  15.526  0.00  0.00    +0.000 OA
ATOM     22  C   UNL     1       6.242   5.965  15.325  0.00  0.00    +0.000 C 
ATOM     23  N   UNL     1       7.384   6.099  16.084  0.00  0.00    +0.000 N 
ATOM     24  H   UNL     1       8.237   5.634  15.802  0.00  0.00    +0.000 HD
BRANCH  22  25
ATOM     25  C   UNL     1       6.313   5.028  14.177  0.00  0.00    +0.000 A 
ATOM     26  C   UNL     1       5.281   4.094  14.020  0.00  0.00    +0.000 A 
ATOM     27  C   UNL     1       5.323   3.171  12.973  0.00  0.00    +0.000 A 
ATOM     28  C   UNL     1       6.404   3.177  12.093  0.00  0.00    +0.000 A 
ATOM     29 CL   UNL     1       6.468   2.027  10.814  0.00  0.00    +0.000 Cl
ATOM     30  C   UNL     1       7.440   4.099  12.247  0.00  0.00    +0.000 A 
ATOM     31  C   UNL     1       7.398   5.028  13.291  0.00  0.00    +0.000 A 
ENDBRANCH  22  25
ENDBRANCH  20  23
ENDBRANCH  19  20
ENDBRANCH   1  19
TORSDOF 5
ENDMDL
MODEL 6
REMARK VINA RESULT:      -7.9      4.245      8.296
REMARK  Name = 
REMARK  5 active torsions:
REMARK  status: ('A' for Active; 'I' for Inactive)
REMARK    1  A    between atoms: C_2  and  C_24
REMARK    2  A    between atoms: N_3  and  C_4
REMARK    3  A    between atoms: C_4  and  C_5
REMARK    4  A    between atoms: C_5  and  C_6
REMARK    5  A    between atoms: C_12  and  C_13
REMARK                            x       y       z     vdW  Elec       q    Type
REMARK                         _______ _______ _______ _____ _____    ______ ____
ROOT
ATOM      1  C   UNL     1       1.688   3.541  20.916  0.00  0.00    +0.000 C 
ATOM      2  O   UNL     1       1.042   2.713  21.562  0.00  0.00    +0.000 OA
ATOM      3  N   UNL     1       2.088   3.310  19.604  0.00  0.00    +0.000 N 
ATOM      4  C   UNL     1       1.636   2.100  18.925  0.00  0.00    +0.000 C 
ATOM      5  C   UNL     1       2.831   1.275  18.462  0.00  0.00    +0.000 C 
ATOM      6  C   UNL     1       3.764   2.108  17.583  0.00  0.00    +0.000 C 
ATOM      7  C   UNL     1       4.179   3.420  18.276  0.00  0.00    +0.000 C 
ATOM      8  C   UNL     1       2.946   4.185  18.798  0.00  0.00    +0.000 C 
ENDROOT
BRANCH   7   9
ATOM      9  C   UNL     1       4.972   4.277  17.337  0.00  0.00    +0.000 A 
ATOM     10  N   UNL     1       4.909   4.231  16.024  0.00  0.00    +0.000 NA
ATOM     11  N   UNL     1       5.776   5.160  15.519  0.00  0.00    +0.000 NA
ATOM     12  C   UNL     1       6.372   5.765  16.527  0.00  0.00    +0.000 A 
ATOM     13  N   UNL     1       5.900   5.225  17.701  0.00  0.00    +0.000 N 
ATOM     14  C   UNL     1       6.311   5.567  19.048  0.00  0.00    +0.000 C 
ATOM     15  C   UNL     1       7.814   5.772  19.186  0.00  0.00    +0.000 C 
ATOM     16  C   UNL     1       8.284   7.161  18.756  0.00  0.00    +0.000 C 
ATOM     17  C   UNL     1       7.544   7.769  17.564  0.00  0.00    +0.000 C 
ATOM     18  C   UNL     1       7.415   6.821  16.378  0.00  0.00    +0.000 C 
ENDBRANCH   7   9
BRANCH   1  19
ATOM     19  C   UNL     1       2.068   4.877  21.517  0.00  0.00    +0.000 C 
BRANCH  19  20
ATOM     20  C   UNL     1       1.851   6.022  20.533  0.00  0.00    +0.000 C 
BRANCH  20  23
ATOM     21  O   UNL     1       1.719   8.642  19.465  0.00  0.00    +0.000 OA
ATOM     22  C   UNL     1       1.191   8.405  20.547  0.00  0.00    +0.000 C 
ATOM     23  N   UNL     1       1.186   7.163  21.143  0.00  0.00    +0.000 N 
ATOM     24  H   UNL     1       0.640   7.005  21.980  0.00  0.00    +0.000 HD
BRANCH  22  25
ATOM     25  C   UNL     1       0.465   9.486  21.258  0.00  0.00    +0.000 A 
ATOM     26  C   UNL     1       0.326  10.723  20.615  0.00  0.00    +0.000 A 
ATOM     27  C   UNL     1      -0.320  11.780  21.260  0.00  0.00    +0.000 A 
ATOM     28  C   UNL     1      -0.814  11.600  22.551  0.00  0.00    +0.000 A 
ATOM     29 CL   UNL     1      -1.594  12.907  23.354  0.00  0.00    +0.000 Cl
ATOM     30  C   UNL     1      -0.673  10.374  23.201  0.00  0.00    +0.000 A 
ATOM     31  C   UNL     1      -0.032   9.312  22.556  0.00  0.00    +0.000 A 
ENDBRANCH  22  25
ENDBRANCH  20  23
ENDBRANCH  19  20
ENDBRANCH   1  19
TORSDOF 5
ENDMDL
MODEL 7
REMARK VINA RESULT:      -7.8      4.274      5.539
REMARK  Name = 
REMARK  5 active torsions:
REMARK  status: ('A' for Active; 'I' for Inactive)
REMARK    1  A    between atoms: C_2  and  C_24
REMARK    2  A    between atoms: N_3  and  C_4
REMARK    3  A    between atoms: C_4  and  C_5
REMARK    4  A    between atoms: C_5  and  C_6
REMARK    5  A    between atoms: C_12  and  C_13
REMARK                            x       y       z     vdW  Elec       q    Type
REMARK                         _______ _______ _______ _____ _____    ______ ____
ROOT
ATOM      1  C   UNL     1       6.002   4.829  17.577  0.00  0.00    +0.000 C 
ATOM      2  O   UNL     1       6.427   4.022  16.748  0.00  0.00    +0.000 OA
ATOM      3  N   UNL     1       4.780   4.658  18.218  0.00  0.00    +0.000 N 
ATOM      4  C   UNL     1       4.023   3.431  17.991  0.00  0.00    +0.000 C 
ATOM      5  C   UNL     1       2.641   3.757  17.435  0.00  0.00    +0.000 C 
ATOM      6  C   UNL     1       1.895   4.727  18.352  0.00  0.00    +0.000 C 
ATOM      7  C   UNL     1       2.730   5.987  18.648  0.00  0.00    +0.000 C 
ATOM      8  C   UNL     1       4.146   5.613  19.134  0.00  0.00    +0.000 C 
ENDROOT
BRANCH   7   9
ATOM      9  C   UNL     1       2.037   6.846  19.660  0.00  0.00    +0.000 A 
ATOM     10  N   UNL     1       1.646   6.456  20.854  0.00  0.00    +0.000 NA
ATOM     11  N   UNL     1       1.054   7.517  21.482  0.00  0.00    +0.000 NA
ATOM     12  C   UNL     1       1.079   8.552  20.665  0.00  0.00    +0.000 A 
ATOM     13  N   UNL     1       1.683   8.166  19.490  0.00  0.00    +0.000 N 
ATOM     14  C   UNL     1       1.887   8.974  18.305  0.00  0.00    +0.000 C 
ATOM     15  C   UNL     1       0.690   9.853  17.962  0.00  0.00    +0.000 C 
ATOM     16  C   UNL     1       0.634  11.152  18.764  0.00  0.00    +0.000 C 
ATOM     17  C   UNL     1       1.110  11.053  20.215  0.00  0.00    +0.000 C 
ATOM     18  C   UNL     1       0.496   9.887  20.979  0.00  0.00    +0.000 C 
ENDBRANCH   7   9
BRANCH   1  19
ATOM     19  C   UNL     1       6.806   6.052  17.961  0.00  0.00    +0.000 C 
BRANCH  19  20
ATOM     20  C   UNL     1       7.072   6.955  16.760  0.00  0.00    +0.000 C 
BRANCH  20  23
ATOM     21  O   UNL     1       8.694   7.546  19.006  0.00  0.00    +0.000 OA
ATOM     22  C   UNL     1       8.325   8.457  18.271  0.00  0.00    +0.000 C 
ATOM     23  N   UNL     1       7.548   8.273  17.149  0.00  0.00    +0.000 N 
ATOM     24  H   UNL     1       7.369   9.048  16.524  0.00  0.00    +0.000 HD
BRANCH  22  25
ATOM     25  C   UNL     1       8.763   9.846  18.556  0.00  0.00    +0.000 A 
ATOM     26  C   UNL     1       9.356  10.112  19.797  0.00  0.00    +0.000 A 
ATOM     27  C   UNL     1       9.753  11.411  20.121  0.00  0.00    +0.000 A 
ATOM     28  C   UNL     1       9.545  12.443  19.207  0.00  0.00    +0.000 A 
ATOM     29 CL   UNL     1      10.017  14.047  19.613  0.00  0.00    +0.000 Cl
ATOM     30  C   UNL     1       8.949  12.187  17.972  0.00  0.00    +0.000 A 
ATOM     31  C   UNL     1       8.555  10.887  17.642  0.00  0.00    +0.000 A 
ENDBRANCH  22  25
ENDBRANCH  20  23
ENDBRANCH  19  20
ENDBRANCH   1  19
TORSDOF 5
ENDMDL
MODEL 8
REMARK VINA RESULT:      -7.7      4.042      5.303
REMARK  Name = 
REMARK  5 active torsions:
REMARK  status: ('A' for Active; 'I' for Inactive)
REMARK    1  A    between atoms: C_2  and  C_24
REMARK    2  A    between atoms: N_3  and  C_4
REMARK    3  A    between atoms: C_4  and  C_5
REMARK    4  A    between atoms: C_5  and  C_6
REMARK    5  A    between atoms: C_12  and  C_13
REMARK                            x       y       z     vdW  Elec       q    Type
REMARK                         _______ _______ _______ _____ _____    ______ ____
ROOT
ATOM      1  C   UNL     1       4.287   5.291  17.536  0.00  0.00    +0.000 C 
ATOM      2  O   UNL     1       4.441   4.178  17.030  0.00  0.00    +0.000 OA
ATOM      3  N   UNL     1       3.675   5.465  18.773  0.00  0.00    +0.000 N 
ATOM      4  C   UNL     1       3.300   4.289  19.553  0.00  0.00    +0.000 C 
ATOM      5  C   UNL     1       1.803   4.301  19.842  0.00  0.00    +0.000 C 
ATOM      6  C   UNL     1       1.388   5.601  20.532  0.00  0.00    +0.000 C 
ATOM      7  C   UNL     1       1.851   6.839  19.741  0.00  0.00    +0.000 C 
ATOM      8  C   UNL     1       3.354   6.750  19.403  0.00  0.00    +0.000 C 
ENDROOT
BRANCH   7   9
ATOM      9  C   UNL     1       1.559   8.089  20.512  0.00  0.00    +0.000 A 
ATOM     10  N   UNL     1       1.661   8.224  21.817  0.00  0.00    +0.000 NA
ATOM     11  N   UNL     1       1.311   9.504  22.147  0.00  0.00    +0.000 NA
ATOM     12  C   UNL     1       0.989  10.146  21.042  0.00  0.00    +0.000 A 
ATOM     13  N   UNL     1       1.119   9.281  19.980  0.00  0.00    +0.000 N 
ATOM     14  C   UNL     1       0.832   9.555  18.587  0.00  0.00    +0.000 C 
ATOM     15  C   UNL     1      -0.436  10.374  18.383  0.00  0.00    +0.000 C 
ATOM     16  C   UNL     1      -0.233  11.876  18.575  0.00  0.00    +0.000 C 
ATOM     17  C   UNL     1       0.757  12.274  19.671  0.00  0.00    +0.000 C 
ATOM     18  C   UNL     1       0.518  11.560  20.996  0.00  0.00    +0.000 C 
ENDBRANCH   7   9
BRANCH   1  19
ATOM     19  C   UNL     1       4.782   6.540  16.841  0.00  0.00    +0.000 C 
BRANCH  19  20
ATOM     20  C   UNL     1       6.303   6.552  16.713  0.00  0.00    +0.000 C 
BRANCH  20  23
ATOM     21  O   UNL     1       8.296   7.074  18.656  0.00  0.00    +0.000 OA
ATOM     22  C   UNL     1       7.837   8.003  17.998  0.00  0.00    +0.000 C 
ATOM     23  N   UNL     1       6.878   7.852  17.021  0.00  0.00    +0.000 N 
ATOM     24  H   UNL     1       6.620   8.638  16.438  0.00  0.00    +0.000 HD
BRANCH  22  25
ATOM     25  C   UNL     1       8.359   9.376  18.210  0.00  0.00    +0.000 A 
ATOM     26  C   UNL     1       9.257   9.586  19.265  0.00  0.00    +0.000 A 
ATOM     27  C   UNL     1       9.748  10.868  19.523  0.00  0.00    +0.000 A 
ATOM     28  C   UNL     1       9.331  11.937  18.732  0.00  0.00    +0.000 A 
ATOM     29 CL   UNL     1       9.920  13.520  19.060  0.00  0.00    +0.000 Cl
ATOM     30  C   UNL     1       8.431  11.737  17.684  0.00  0.00    +0.000 A 
ATOM     31  C   UNL     1       7.942  10.454  17.420  0.00  0.00    +0.000 A 
ENDBRANCH  22  25
ENDBRANCH  20  23
ENDBRANCH  19  20
ENDBRANCH   1  19
TORSDOF 5
ENDMDL
MODEL 9
REMARK VINA RESULT:      -7.7      4.739      5.947
REMARK  Name = 
REMARK  5 active torsions:
REMARK  status: ('A' for Active; 'I' for Inactive)
REMARK    1  A    between atoms: C_2  and  C_24
REMARK    2  A    between atoms: N_3  and  C_4
REMARK    3  A    between atoms: C_4  and  C_5
REMARK    4  A    between atoms: C_5  and  C_6
REMARK    5  A    between atoms: C_12  and  C_13
REMARK                            x       y       z     vdW  Elec       q    Type
REMARK                         _______ _______ _______ _____ _____    ______ ____
ROOT
ATOM      1  C   UNL     1       7.193   5.543  17.288  0.00  0.00    +0.000 C 
ATOM      2  O   UNL     1       7.815   4.946  16.406  0.00  0.00    +0.000 OA
ATOM      3  N   UNL     1       5.981   5.077  17.786  0.00  0.00    +0.000 N 
ATOM      4  C   UNL     1       5.478   3.782  17.337  0.00  0.00    +0.000 C 
ATOM      5  C   UNL     1       4.102   3.941  16.700  0.00  0.00    +0.000 C 
ATOM      6  C   UNL     1       3.131   4.630  17.660  0.00  0.00    +0.000 C 
ATOM      7  C   UNL     1       3.699   5.960  18.188  0.00  0.00    +0.000 C 
ATOM      8  C   UNL     1       5.123   5.770  18.752  0.00  0.00    +0.000 C 
ENDROOT
BRANCH   7   9
ATOM      9  C   UNL     1       2.793   6.537  19.232  0.00  0.00    +0.000 A 
ATOM     10  N   UNL     1       2.414   5.928  20.336  0.00  0.00    +0.000 NA
ATOM     11  N   UNL     1       1.592   6.770  21.031  0.00  0.00    +0.000 NA
ATOM     12  C   UNL     1       1.463   7.889  20.346  0.00  0.00    +0.000 A 
ATOM     13  N   UNL     1       2.199   7.778  19.188  0.00  0.00    +0.000 N 
ATOM     14  C   UNL     1       2.313   8.757  18.126  0.00  0.00    +0.000 C 
ATOM     15  C   UNL     1       0.991   9.436  17.789  0.00  0.00    +0.000 C 
ATOM     16  C   UNL     1       0.635  10.586  18.730  0.00  0.00    +0.000 C 
ATOM     17  C   UNL     1       1.034  10.390  20.194  0.00  0.00    +0.000 C 
ATOM     18  C   UNL     1       0.613   9.041  20.763  0.00  0.00    +0.000 C 
ENDBRANCH   7   9
BRANCH   1  19
ATOM     19  C   UNL     1       7.732   6.819  17.897  0.00  0.00    +0.000 C 
BRANCH  19  20
ATOM     20  C   UNL     1       6.888   8.030  17.511  0.00  0.00    +0.000 C 
BRANCH  20  23
ATOM     21  O   UNL     1       8.811   8.973  19.365  0.00  0.00    +0.000 OA
ATOM     22  C   UNL     1       8.584   9.622  18.348  0.00  0.00    +0.000 C 
ATOM     23  N   UNL     1       7.681   9.243  17.380  0.00  0.00    +0.000 N 
ATOM     24  H   UNL     1       7.619   9.762  16.513  0.00  0.00    +0.000 HD
BRANCH  22  25
ATOM     25  C   UNL     1       9.345  10.871  18.094  0.00  0.00    +0.000 A 
ATOM     26  C   UNL     1      10.736  10.843  18.263  0.00  0.00    +0.000 A 
ATOM     27  C   UNL     1      11.489  12.003  18.068  0.00  0.00    +0.000 A 
ATOM     28  C   UNL     1      10.848  13.189  17.715  0.00  0.00    +0.000 A 
ATOM     29 CL   UNL     1      11.773  14.623  17.493  0.00  0.00    +0.000 Cl
ATOM     30  C   UNL     1       9.463  13.226  17.552  0.00  0.00    +0.000 A 
ATOM     31  C   UNL     1       8.707  12.066  17.741  0.00  0.00    +0.000 A 
ENDBRANCH  22  25
ENDBRANCH  20  23
ENDBRANCH  19  20
ENDBRANCH   1  19
TORSDOF 5
ENDMDL
