MODEL 1
REMARK VINA RESULT:      -8.4      0.000      0.000
REMARK  Name = 
REMARK  4 active torsions:
REMARK  status: ('A' for Active; 'I' for Inactive)
REMARK    1  A    between atoms: C_1  and  C_2
REMARK    2  A    between atoms: C_2  and  N_3
REMARK    3  A    between atoms: C_2  and  C_16
REMARK    4  A    between atoms: C_4  and  C_6
REMARK                            x       y       z     vdW  Elec       q    Type
REMARK                         _______ _______ _______ _____ _____    ______ ____
ROOT
ATOM      1  N   UNL     1       3.685   5.426  17.976  0.00  0.00    +0.000 N 
ATOM      2  C   UNL     1       4.794   4.624  17.841  0.00  0.00    +0.000 C 
ATOM      3  O   UNL     1       5.204   3.906  18.745  0.00  0.00    +0.000 OA
ATOM      4  H   UNL     1       3.375   5.959  17.175  0.00  0.00    +0.000 HD
ENDROOT
BRANCH   2   5
ATOM      5  C   UNL     1       5.460   4.687  16.556  0.00  0.00    +0.000 A 
ATOM      6  N   UNL     1       5.045   3.901  15.494  0.00  0.00    +0.000 N 
ATOM      7  C   UNL     1       5.833   4.105  14.385  0.00  0.00    +0.000 A 
ATOM      8  C   UNL     1       5.784   3.519  13.113  0.00  0.00    +0.000 A 
ATOM      9  C   UNL     1       6.743   3.922  12.176  0.00  0.00    +0.000 A 
ATOM     10  C   UNL     1       7.706   4.875  12.496  0.00  0.00    +0.000 A 
ATOM     11  C   UNL     1       7.733   5.456  13.767  0.00  0.00    +0.000 A 
ATOM     12  C   UNL     1       6.782   5.064  14.733  0.00  0.00    +0.000 A 
ATOM     13  C   UNL     1       6.528   5.431  16.086  0.00  0.00    +0.000 A 
ATOM     14 CL   UNL     1       7.441   6.606  16.924  0.00  0.00    +0.000 Cl
ATOM     15  H   UNL     1       4.269   3.255  15.548  0.00  0.00    +0.000 HD
ENDBRANCH   2   5
BRANCH   1  17
ATOM     16  C   UNL     1       1.729   4.389  19.050  0.00  0.00    +0.000 C 
ATOM     17  C   UNL     1       2.853   5.423  19.163  0.00  0.00    +0.000 C 
BRANCH  17  18
ATOM     18  C   UNL     1       2.298   6.813  19.448  0.00  0.00    +0.000 A 
ATOM     19  C   UNL     1       1.725   7.071  20.726  0.00  0.00    +0.000 A 
ATOM     20  C   UNL     1       1.115   8.293  21.032  0.00  0.00    +0.000 A 
ATOM     21  C   UNL     1       1.104   9.243  20.042  0.00  0.00    +0.000 A 
ATOM     22  N   UNL     1       0.545  10.516  20.039  0.00  0.00    +0.000 N 
ATOM     23  C   UNL     1       0.777  11.104  18.788  0.00  0.00    +0.000 A 
ATOM     24  O   UNL     1       0.420  12.212  18.425  0.00  0.00    +0.000 OA
ATOM     25  N   UNL     1       1.497  10.168  18.030  0.00  0.00    +0.000 N 
ATOM     26  C   UNL     1       1.688   9.023  18.797  0.00  0.00    +0.000 A 
ATOM     27  C   UNL     1       2.299   7.832  18.471  0.00  0.00    +0.000 A 
ATOM     28  H   UNL     1       0.034  10.962  20.782  0.00  0.00    +0.000 HD
ATOM     29  H   UNL     1       1.787  10.328  17.080  0.00  0.00    +0.000 HD
ENDBRANCH  17  18
ENDBRANCH   1  17
TORSDOF 3
ENDMDL
MODEL 2
REMARK VINA RESULT:      -8.3      1.001      1.589
REMARK  Name = 
REMARK  4 active torsions:
REMARK  status: ('A' for Active; 'I' for Inactive)
REMARK    1  A    between atoms: C_1  and  C_2
REMARK    2  A    between atoms: C_2  and  N_3
REMARK    3  A    between atoms: C_2  and  C_16
REMARK    4  A    between atoms: C_4  and  C_6
REMARK                            x       y       z     vdW  Elec       q    Type
REMARK                         _______ _______ _______ _____ _____    ______ ____
ROOT
ATOM      1  N   UNL     1       3.713   5.498  18.042  0.00  0.00    +0.000 N 
ATOM      2  C   UNL     1       4.832   4.708  17.917  0.00  0.00    +0.000 C 
ATOM      3  O   UNL     1       5.267   4.027  18.838  0.00  0.00    +0.000 OA
ATOM      4  H   UNL     1       3.384   5.999  17.229  0.00  0.00    +0.000 HD
ENDROOT
BRANCH   2   5
ATOM      5  C   UNL     1       5.478   4.737  16.621  0.00  0.00    +0.000 A 
ATOM      6  N   UNL     1       5.028   3.945  15.578  0.00  0.00    +0.000 N 
ATOM      7  C   UNL     1       5.802   4.115  14.453  0.00  0.00    +0.000 A 
ATOM      8  C   UNL     1       5.718   3.512  13.190  0.00  0.00    +0.000 A 
ATOM      9  C   UNL     1       6.670   3.879  12.232  0.00  0.00    +0.000 A 
ATOM     10  C   UNL     1       7.659   4.814  12.522  0.00  0.00    +0.000 A 
ATOM     11  C   UNL     1       7.721   5.414  13.783  0.00  0.00    +0.000 A 
ATOM     12  C   UNL     1       6.777   5.057  14.771  0.00  0.00    +0.000 A 
ATOM     13  C   UNL     1       6.554   5.450  16.122  0.00  0.00    +0.000 A 
ATOM     14 CL   UNL     1       7.507   6.616  16.927  0.00  0.00    +0.000 Cl
ATOM     15  H   UNL     1       4.238   3.317  15.654  0.00  0.00    +0.000 HD
ENDBRANCH   2   5
BRANCH   1  17
ATOM     16  C   UNL     1       1.854   4.405  19.226  0.00  0.00    +0.000 C 
ATOM     17  C   UNL     1       2.900   5.523  19.242  0.00  0.00    +0.000 C 
BRANCH  17  18
ATOM     18  C   UNL     1       2.247   6.887  19.434  0.00  0.00    +0.000 A 
ATOM     19  C   UNL     1       2.196   7.782  18.328  0.00  0.00    +0.000 A 
ATOM     20  C   UNL     1       1.695   9.084  18.449  0.00  0.00    +0.000 A 
ATOM     21  C   UNL     1       1.241   9.457  19.688  0.00  0.00    +0.000 A 
ATOM     22  N   UNL     1       0.732  10.677  20.118  0.00  0.00    +0.000 N 
ATOM     23  C   UNL     1       0.417  10.579  21.479  0.00  0.00    +0.000 A 
ATOM     24  O   UNL     1      -0.040  11.459  22.189  0.00  0.00    +0.000 OA
ATOM     25  N   UNL     1       0.735   9.270  21.872  0.00  0.00    +0.000 N 
ATOM     26  C   UNL     1       1.249   8.585  20.775  0.00  0.00    +0.000 A 
ATOM     27  C   UNL     1       1.733   7.299  20.682  0.00  0.00    +0.000 A 
ATOM     28  H   UNL     1       0.617  11.517  19.575  0.00  0.00    +0.000 HD
ATOM     29  H   UNL     1       0.619   8.927  22.811  0.00  0.00    +0.000 HD
ENDBRANCH  17  18
ENDBRANCH   1  17
TORSDOF 3
ENDMDL
MODEL 3
REMARK VINA RESULT:      -8.3      3.674      6.162
REMARK  Name = 
REMARK  4 active torsions:
REMARK  status: ('A' for Active; 'I' for Inactive)
REMARK    1  A    between atoms: C_1  and  C_2
REMARK    2  A    between atoms: C_2  and  N_3
REMARK    3  A    between atoms: C_2  and  C_16
REMARK    4  A    between atoms: C_4  and  C_6
REMARK                            x       y       z     vdW  Elec       q    Type
REMARK                         _______ _______ _______ _____ _____    ______ ____
ROOT
ATOM      1  N   UNL     1       0.713   9.644  19.108  0.00  0.00    +0.000 N 
ATOM      2  C   UNL     1       1.797   9.346  18.317  0.00  0.00    +0.000 C 
ATOM      3  O   UNL     1       2.263  10.139  17.507  0.00  0.00    +0.000 OA
ATOM      4  H   UNL     1       0.408   8.961  19.786  0.00  0.00    +0.000 HD
ENDROOT
BRANCH   2   5
ATOM      5  C   UNL     1       2.357   8.022  18.494  0.00  0.00    +0.000 A 
ATOM      6  N   UNL     1       3.169   7.452  17.528  0.00  0.00    +0.000 N 
ATOM      7  C   UNL     1       3.565   6.186  17.894  0.00  0.00    +0.000 A 
ATOM      8  C   UNL     1       4.367   5.253  17.222  0.00  0.00    +0.000 A 
ATOM      9  C   UNL     1       4.589   4.020  17.846  0.00  0.00    +0.000 A 
ATOM     10  C   UNL     1       4.038   3.735  19.092  0.00  0.00    +0.000 A 
ATOM     11  C   UNL     1       3.250   4.682  19.752  0.00  0.00    +0.000 A 
ATOM     12  C   UNL     1       3.005   5.931  19.143  0.00  0.00    +0.000 A 
ATOM     13  C   UNL     1       2.266   7.091  19.514  0.00  0.00    +0.000 A 
ATOM     14 CL   UNL     1       1.427   7.233  20.995  0.00  0.00    +0.000 Cl
ATOM     15  H   UNL     1       3.418   7.915  16.663  0.00  0.00    +0.000 HD
ENDBRANCH   2   5
BRANCH   1  17
ATOM     16  C   UNL     1       0.004  11.516  20.539  0.00  0.00    +0.000 C 
ATOM     17  C   UNL     1       0.083  10.950  19.118  0.00  0.00    +0.000 C 
BRANCH  17  18
ATOM     18  C   UNL     1      -1.293  10.902  18.466  0.00  0.00    +0.000 A 
ATOM     19  C   UNL     1      -1.497  10.023  17.365  0.00  0.00    +0.000 A 
ATOM     20  C   UNL     1      -2.704   9.988  16.657  0.00  0.00    +0.000 A 
ATOM     21  C   UNL     1      -3.695  10.836  17.083  0.00  0.00    +0.000 A 
ATOM     22  N   UNL     1      -4.966  11.050  16.563  0.00  0.00    +0.000 N 
ATOM     23  C   UNL     1      -5.607  12.030  17.332  0.00  0.00    +0.000 A 
ATOM     24  O   UNL     1      -6.729  12.476  17.160  0.00  0.00    +0.000 OA
ATOM     25  N   UNL     1      -4.704  12.404  18.339  0.00  0.00    +0.000 N 
ATOM     26  C   UNL     1      -3.528  11.678  18.179  0.00  0.00    +0.000 A 
ATOM     27  C   UNL     1      -2.353  11.730  18.896  0.00  0.00    +0.000 A 
ATOM     28  H   UNL     1      -5.380  10.610  15.758  0.00  0.00    +0.000 HD
ATOM     29  H   UNL     1      -4.904  13.108  19.031  0.00  0.00    +0.000 HD
ENDBRANCH  17  18
ENDBRANCH   1  17
TORSDOF 3
ENDMDL
MODEL 4
REMARK VINA RESULT:      -8.1      2.529      8.243
REMARK  Name = 
REMARK  4 active torsions:
REMARK  status: ('A' for Active; 'I' for Inactive)
REMARK    1  A    between atoms: C_1  and  C_2
REMARK    2  A    between atoms: C_2  and  N_3
REMARK    3  A    between atoms: C_2  and  C_16
REMARK    4  A    between atoms: C_4  and  C_6
REMARK                            x       y       z     vdW  Elec       q    Type
REMARK                         _______ _______ _______ _____ _____    ______ ____
ROOT
ATOM      1  N   UNL     1       3.443   5.570  18.793  0.00  0.00    +0.000 N 
ATOM      2  C   UNL     1       2.347   5.616  19.623  0.00  0.00    +0.000 C 
ATOM      3  O   UNL     1       1.790   4.607  20.038  0.00  0.00    +0.000 OA
ATOM      4  H   UNL     1       3.880   6.440  18.525  0.00  0.00    +0.000 HD
ENDROOT
BRANCH   2   5
ATOM      5  C   UNL     1       1.882   6.942  19.974  0.00  0.00    +0.000 A 
ATOM      6  N   UNL     1       1.372   7.212  21.233  0.00  0.00    +0.000 N 
ATOM      7  C   UNL     1       0.969   8.524  21.336  0.00  0.00    +0.000 A 
ATOM      8  C   UNL     1       0.390   9.217  22.408  0.00  0.00    +0.000 A 
ATOM      9  C   UNL     1       0.068  10.565  22.211  0.00  0.00    +0.000 A 
ATOM     10  C   UNL     1       0.320  11.194  20.995  0.00  0.00    +0.000 A 
ATOM     11  C   UNL     1       0.908  10.490  19.941  0.00  0.00    +0.000 A 
ATOM     12  C   UNL     1       1.238   9.128  20.110  0.00  0.00    +0.000 A 
ATOM     13  C   UNL     1       1.822   8.134  19.274  0.00  0.00    +0.000 A 
ATOM     14 CL   UNL     1       2.337   8.441  17.675  0.00  0.00    +0.000 Cl
ATOM     15  H   UNL     1       1.300   6.520  21.967  0.00  0.00    +0.000 HD
ENDBRANCH   2   5
BRANCH   1  17
ATOM     16  C   UNL     1       4.736   3.646  19.618  0.00  0.00    +0.000 C 
ATOM     17  C   UNL     1       4.088   4.330  18.411  0.00  0.00    +0.000 C 
BRANCH  17  18
ATOM     18  C   UNL     1       5.101   4.558  17.296  0.00  0.00    +0.000 A 
ATOM     19  C   UNL     1       6.185   5.452  17.531  0.00  0.00    +0.000 A 
ATOM     20  C   UNL     1       7.104   5.783  16.528  0.00  0.00    +0.000 A 
ATOM     21  C   UNL     1       6.920   5.193  15.303  0.00  0.00    +0.000 A 
ATOM     22  N   UNL     1       7.636   5.356  14.123  0.00  0.00    +0.000 N 
ATOM     23  C   UNL     1       7.056   4.553  13.131  0.00  0.00    +0.000 A 
ATOM     24  O   UNL     1       7.415   4.452  11.971  0.00  0.00    +0.000 OA
ATOM     25  N   UNL     1       5.976   3.890  13.733  0.00  0.00    +0.000 N 
ATOM     26  C   UNL     1       5.887   4.291  15.062  0.00  0.00    +0.000 A 
ATOM     27  C   UNL     1       4.971   3.944  16.031  0.00  0.00    +0.000 A 
ATOM     28  H   UNL     1       8.428   5.957  13.965  0.00  0.00    +0.000 HD
ATOM     29  H   UNL     1       5.370   3.254  13.241  0.00  0.00    +0.000 HD
ENDBRANCH  17  18
ENDBRANCH   1  17
TORSDOF 3
ENDMDL
MODEL 5
REMARK VINA RESULT:      -8.1      3.986      6.118
REMARK  Name = 
REMARK  4 active torsions:
REMARK  status: ('A' for Active; 'I' for Inactive)
REMARK    1  A    between atoms: C_1  and  C_2
REMARK    2  A    between atoms: C_2  and  N_3
REMARK    3  A    between atoms: C_2  and  C_16
REMARK    4  A    between atoms: C_4  and  C_6
REMARK                            x       y       z     vdW  Elec       q    Type
REMARK                         _______ _______ _______ _____ _____    ______ ____
ROOT
ATOM      1  N   UNL     1       1.106   9.198  19.321  0.00  0.00    +0.000 N 
ATOM      2  C   UNL     1       2.019   8.602  18.484  0.00  0.00    +0.000 C 
ATOM      3  O   UNL     1       2.473   9.162  17.493  0.00  0.00    +0.000 OA
ATOM      4  H   UNL     1       0.808   8.696  20.145  0.00  0.00    +0.000 HD
ENDROOT
BRANCH   2   5
ATOM      5  C   UNL     1       2.411   7.254  18.842  0.00  0.00    +0.000 A 
ATOM      6  N   UNL     1       1.822   6.595  19.908  0.00  0.00    +0.000 N 
ATOM      7  C   UNL     1       2.362   5.342  20.080  0.00  0.00    +0.000 A 
ATOM      8  C   UNL     1       2.081   4.352  21.031  0.00  0.00    +0.000 A 
ATOM      9  C   UNL     1       2.816   3.163  20.966  0.00  0.00    +0.000 A 
ATOM     10  C   UNL     1       3.787   2.969  19.987  0.00  0.00    +0.000 A 
ATOM     11  C   UNL     1       4.046   3.964  19.041  0.00  0.00    +0.000 A 
ATOM     12  C   UNL     1       3.324   5.176  19.087  0.00  0.00    +0.000 A 
ATOM     13  C   UNL     1       3.333   6.370  18.310  0.00  0.00    +0.000 A 
ATOM     14 CL   UNL     1       4.351   6.599  16.958  0.00  0.00    +0.000 Cl
ATOM     15  H   UNL     1       1.097   7.003  20.484  0.00  0.00    +0.000 HD
ENDBRANCH   2   5
BRANCH   1  17
ATOM     16  C   UNL     1       0.794  11.352  20.469  0.00  0.00    +0.000 C 
ATOM     17  C   UNL     1       0.669  10.571  19.158  0.00  0.00    +0.000 C 
BRANCH  17  18
ATOM     18  C   UNL     1      -0.751  10.634  18.610  0.00  0.00    +0.000 A 
ATOM     19  C   UNL     1      -1.086   9.829  17.486  0.00  0.00    +0.000 A 
ATOM     20  C   UNL     1      -2.342   9.898  16.870  0.00  0.00    +0.000 A 
ATOM     21  C   UNL     1      -3.246  10.777  17.411  0.00  0.00    +0.000 A 
ATOM     22  N   UNL     1      -4.536  11.089  17.000  0.00  0.00    +0.000 N 
ATOM     23  C   UNL     1      -5.060  12.061  17.862  0.00  0.00    +0.000 A 
ATOM     24  O   UNL     1      -6.162  12.578  17.797  0.00  0.00    +0.000 OA
ATOM     25  N   UNL     1      -4.066  12.330  18.815  0.00  0.00    +0.000 N 
ATOM     26  C   UNL     1      -2.950  11.549  18.532  0.00  0.00    +0.000 A 
ATOM     27  C   UNL     1      -1.725  11.497  19.159  0.00  0.00    +0.000 A 
ATOM     28  H   UNL     1      -5.033  10.716  16.207  0.00  0.00    +0.000 HD
ATOM     29  H   UNL     1      -4.173  13.006  19.554  0.00  0.00    +0.000 HD
ENDBRANCH  17  18
ENDBRANCH   1  17
TORSDOF 3
ENDMDL
MODEL 6
REMARK VINA RESULT:      -8.0      2.590      8.173
REMARK  Name = 
REMARK  4 active torsions:
REMARK  status: ('A' for Active; 'I' for Inactive)
REMARK    1  A    between atoms: C_1  and  C_2
REMARK    2  A    between atoms: C_2  and  N_3
REMARK    3  A    between atoms: C_2  and  C_16
REMARK    4  A    between atoms: C_4  and  C_6
REMARK                            x       y       z     vdW  Elec       q    Type
REMARK                         _______ _______ _______ _____ _____    ______ ____
ROOT
ATOM      1  N   UNL     1       2.746   5.553  19.870  0.00  0.00    +0.000 N 
ATOM      2  C   UNL     1       2.284   6.577  19.078  0.00  0.00    +0.000 C 
ATOM      3  O   UNL     1       2.368   6.557  17.855  0.00  0.00    +0.000 OA
ATOM      4  H   UNL     1       2.603   5.614  20.869  0.00  0.00    +0.000 HD
ENDROOT
BRANCH   2   5
ATOM      5  C   UNL     1       1.693   7.697  19.781  0.00  0.00    +0.000 A 
ATOM      6  N   UNL     1       1.273   7.577  21.096  0.00  0.00    +0.000 N 
ATOM      7  C   UNL     1       0.723   8.752  21.553  0.00  0.00    +0.000 A 
ATOM      8  C   UNL     1       0.165   9.072  22.798  0.00  0.00    +0.000 A 
ATOM      9  C   UNL     1      -0.338  10.367  22.969  0.00  0.00    +0.000 A 
ATOM     10  C   UNL     1      -0.280  11.303  21.941  0.00  0.00    +0.000 A 
ATOM     11  C   UNL     1       0.289  10.969  20.709  0.00  0.00    +0.000 A 
ATOM     12  C   UNL     1       0.799   9.668  20.507  0.00  0.00    +0.000 A 
ATOM     13  C   UNL     1       1.421   9.003  19.412  0.00  0.00    +0.000 A 
ATOM     14 CL   UNL     1       1.742   9.760  17.916  0.00  0.00    +0.000 Cl
ATOM     15  H   UNL     1       1.356   6.723  21.633  0.00  0.00    +0.000 HD
ENDBRANCH   2   5
BRANCH   1  17
ATOM     16  C   UNL     1       3.651   3.338  20.443  0.00  0.00    +0.000 C 
ATOM     17  C   UNL     1       3.289   4.323  19.328  0.00  0.00    +0.000 C 
BRANCH  17  18
ATOM     18  C   UNL     1       4.486   4.601  18.427  0.00  0.00    +0.000 A 
ATOM     19  C   UNL     1       5.635   5.225  18.990  0.00  0.00    +0.000 A 
ATOM     20  C   UNL     1       6.737   5.595  18.210  0.00  0.00    +0.000 A 
ATOM     21  C   UNL     1       6.664   5.316  16.868  0.00  0.00    +0.000 A 
ATOM     22  N   UNL     1       7.570   5.595  15.852  0.00  0.00    +0.000 N 
ATOM     23  C   UNL     1       7.044   5.131  14.640  0.00  0.00    +0.000 A 
ATOM     24  O   UNL     1       7.561   5.214  13.539  0.00  0.00    +0.000 OA
ATOM     25  N   UNL     1       5.800   4.552  14.937  0.00  0.00    +0.000 N 
ATOM     26  C   UNL     1       5.564   4.676  16.303  0.00  0.00    +0.000 A 
ATOM     27  C   UNL     1       4.468   4.298  17.048  0.00  0.00    +0.000 A 
ATOM     28  H   UNL     1       8.454   6.070  15.934  0.00  0.00    +0.000 HD
ATOM     29  H   UNL     1       5.195   4.148  14.242  0.00  0.00    +0.000 HD
ENDBRANCH  17  18
ENDBRANCH   1  17
TORSDOF 3
ENDMDL
MODEL 7
REMARK VINA RESULT:      -8.0      2.525      8.230
REMARK  Name = 
REMARK  4 active torsions:
REMARK  status: ('A' for Active; 'I' for Inactive)
REMARK    1  A    between atoms: C_1  and  C_2
REMARK    2  A    between atoms: C_2  and  N_3
REMARK    3  A    between atoms: C_2  and  C_16
REMARK    4  A    between atoms: C_4  and  C_6
REMARK                            x       y       z     vdW  Elec       q    Type
REMARK                         _______ _______ _______ _____ _____    ______ ____
ROOT
ATOM      1  N   UNL     1       4.462   6.181  19.294  0.00  0.00    +0.000 N 
ATOM      2  C   UNL     1       3.143   5.937  19.593  0.00  0.00    +0.000 C 
ATOM      3  O   UNL     1       2.662   4.809  19.591  0.00  0.00    +0.000 OA
ATOM      4  H   UNL     1       4.803   7.130  19.359  0.00  0.00    +0.000 HD
ENDROOT
BRANCH   2   5
ATOM      5  C   UNL     1       2.344   7.104  19.907  0.00  0.00    +0.000 A 
ATOM      6  N   UNL     1       1.812   7.290  21.171  0.00  0.00    +0.000 N 
ATOM      7  C   UNL     1       1.072   8.448  21.235  0.00  0.00    +0.000 A 
ATOM      8  C   UNL     1       0.354   9.012  22.299  0.00  0.00    +0.000 A 
ATOM      9  C   UNL     1      -0.326  10.211  22.058  0.00  0.00    +0.000 A 
ATOM     10  C   UNL     1      -0.284  10.824  20.809  0.00  0.00    +0.000 A 
ATOM     11  C   UNL     1       0.446  10.252  19.763  0.00  0.00    +0.000 A 
ATOM     12  C   UNL     1       1.136   9.040  19.976  0.00  0.00    +0.000 A 
ATOM     13  C   UNL     1       1.947   8.200  19.160  0.00  0.00    +0.000 A 
ATOM     14 CL   UNL     1       2.319   8.554  17.532  0.00  0.00    +0.000 Cl
ATOM     15  H   UNL     1       1.948   6.641  21.936  0.00  0.00    +0.000 HD
ENDBRANCH   2   5
BRANCH   1  17
ATOM     16  C   UNL     1       6.783   5.448  19.656  0.00  0.00    +0.000 C 
ATOM     17  C   UNL     1       5.420   5.123  19.039  0.00  0.00    +0.000 C 
BRANCH  17  18
ATOM     18  C   UNL     1       5.542   4.840  17.547  0.00  0.00    +0.000 A 
ATOM     19  C   UNL     1       4.674   3.876  16.961  0.00  0.00    +0.000 A 
ATOM     20  C   UNL     1       4.785   3.496  15.618  0.00  0.00    +0.000 A 
ATOM     21  C   UNL     1       5.768   4.109  14.883  0.00  0.00    +0.000 A 
ATOM     22  N   UNL     1       6.140   3.912  13.558  0.00  0.00    +0.000 N 
ATOM     23  C   UNL     1       7.215   4.761  13.262  0.00  0.00    +0.000 A 
ATOM     24  O   UNL     1       7.804   4.850  12.199  0.00  0.00    +0.000 OA
ATOM     25  N   UNL     1       7.487   5.487  14.432  0.00  0.00    +0.000 N 
ATOM     26  C   UNL     1       6.606   5.079  15.428  0.00  0.00    +0.000 A 
ATOM     27  C   UNL     1       6.516   5.474  16.745  0.00  0.00    +0.000 A 
ATOM     28  H   UNL     1       5.741   3.263  12.901  0.00  0.00    +0.000 HD
ATOM     29  H   UNL     1       8.227   6.166  14.505  0.00  0.00    +0.000 HD
ENDBRANCH  17  18
ENDBRANCH   1  17
TORSDOF 3
ENDMDL
MODEL 8
REMARK VINA RESULT:      -7.8      3.536      5.191
REMARK  Name = 
REMARK  4 active torsions:
REMARK  status: ('A' for Active; 'I' for Inactive)
REMARK    1  A    between atoms: C_1  and  C_2
REMARK    2  A    between atoms: C_2  and  N_3
REMARK    3  A    between atoms: C_2  and  C_16
REMARK    4  A    between atoms: C_4  and  C_6
REMARK                            x       y       z     vdW  Elec       q    Type
REMARK                         _______ _______ _______ _____ _____    ______ ____
ROOT
ATOM      1  N   UNL     1       1.412   8.340  19.747  0.00  0.00    +0.000 N 
ATOM      2  C   UNL     1       2.311   7.992  18.767  0.00  0.00    +0.000 C 
ATOM      3  O   UNL     1       2.920   8.823  18.103  0.00  0.00    +0.000 OA
ATOM      4  H   UNL     1       0.979   7.605  20.287  0.00  0.00    +0.000 HD
ENDROOT
BRANCH   2   5
ATOM      5  C   UNL     1       2.493   6.571  18.559  0.00  0.00    +0.000 A 
ATOM      6  N   UNL     1       1.704   5.643  19.218  0.00  0.00    +0.000 N 
ATOM      7  C   UNL     1       2.066   4.357  18.890  0.00  0.00    +0.000 A 
ATOM      8  C   UNL     1       1.554   3.127  19.326  0.00  0.00    +0.000 A 
ATOM      9  C   UNL     1       2.145   1.963  18.821  0.00  0.00    +0.000 A 
ATOM     10  C   UNL     1       3.198   2.027  17.913  0.00  0.00    +0.000 A 
ATOM     11  C   UNL     1       3.688   3.262  17.481  0.00  0.00    +0.000 A 
ATOM     12  C   UNL     1       3.116   4.452  17.979  0.00  0.00    +0.000 A 
ATOM     13  C   UNL     1       3.362   5.839  17.768  0.00  0.00    +0.000 A 
ATOM     14 CL   UNL     1       4.557   6.425  16.699  0.00  0.00    +0.000 Cl
ATOM     15  H   UNL     1       0.967   5.895  19.865  0.00  0.00    +0.000 HD
ENDBRANCH   2   5
BRANCH   1  17
ATOM     16  C   UNL     1       0.924   9.824  21.648  0.00  0.00    +0.000 C 
ATOM     17  C   UNL     1       1.172   9.715  20.141  0.00  0.00    +0.000 C 
BRANCH  17  18
ATOM     18  C   UNL     1       0.021  10.321  19.348  0.00  0.00    +0.000 A 
ATOM     19  C   UNL     1      -0.727  11.383  19.931  0.00  0.00    +0.000 A 
ATOM     20  C   UNL     1      -1.852  11.930  19.304  0.00  0.00    +0.000 A 
ATOM     21  C   UNL     1      -2.199  11.401  18.087  0.00  0.00    +0.000 A 
ATOM     22  N   UNL     1      -3.272  11.708  17.258  0.00  0.00    +0.000 N 
ATOM     23  C   UNL     1      -3.214  10.884  16.126  0.00  0.00    +0.000 A 
ATOM     24  O   UNL     1      -3.999  10.869  15.193  0.00  0.00    +0.000 OA
ATOM     25  N   UNL     1      -2.078  10.074  16.275  0.00  0.00    +0.000 N 
ATOM     26  C   UNL     1      -1.461  10.386  17.483  0.00  0.00    +0.000 A 
ATOM     27  C   UNL     1      -0.348   9.832  18.076  0.00  0.00    +0.000 A 
ATOM     28  H   UNL     1      -3.999  12.383  17.423  0.00  0.00    +0.000 HD
ATOM     29  H   UNL     1      -1.802   9.375  15.605  0.00  0.00    +0.000 HD
ENDBRANCH  17  18
ENDBRANCH   1  17
TORSDOF 3
ENDMDL
MODEL 9
REMARK VINA RESULT:      -7.7      4.158      6.037
REMARK  Name = 
REMARK  4 active torsions:
REMARK  status: ('A' for Active; 'I' for Inactive)
REMARK    1  A    between atoms: C_1  and  C_2
REMARK    2  A    between atoms: C_2  and  N_3
REMARK    3  A    between atoms: C_2  and  C_16
REMARK    4  A    between atoms: C_4  and  C_6
REMARK                            x       y       z     vdW  Elec       q    Type
REMARK                         _______ _______ _______ _____ _____    ______ ____
ROOT
ATOM      1  N   UNL     1       1.083   9.024  20.040  0.00  0.00    +0.000 N 
ATOM      2  C   UNL     1       2.034   8.496  19.198  0.00  0.00    +0.000 C 
ATOM      3  O   UNL     1       2.590   9.158  18.330  0.00  0.00    +0.000 OA
ATOM      4  H   UNL     1       0.698   8.433  20.763  0.00  0.00    +0.000 HD
ENDROOT
BRANCH   2   5
ATOM      5  C   UNL     1       2.337   7.093  19.397  0.00  0.00    +0.000 A 
ATOM      6  N   UNL     1       1.816   6.392  20.471  0.00  0.00    +0.000 N 
ATOM      7  C   UNL     1       2.254   5.088  20.475  0.00  0.00    +0.000 A 
ATOM      8  C   UNL     1       1.993   4.042  21.371  0.00  0.00    +0.000 A 
ATOM      9  C   UNL     1       2.601   2.807  21.121  0.00  0.00    +0.000 A 
ATOM     10  C   UNL     1       3.430   2.623  20.018  0.00  0.00    +0.000 A 
ATOM     11  C   UNL     1       3.670   3.674  19.129  0.00  0.00    +0.000 A 
ATOM     12  C   UNL     1       3.075   4.933  19.360  0.00  0.00    +0.000 A 
ATOM     13  C   UNL     1       3.105   6.187  18.686  0.00  0.00    +0.000 A 
ATOM     14 CL   UNL     1       3.976   6.453  17.242  0.00  0.00    +0.000 Cl
ATOM     15  H   UNL     1       1.204   6.805  21.163  0.00  0.00    +0.000 HD
ENDBRANCH   2   5
BRANCH   1  17
ATOM     16  C   UNL     1       0.450  10.936  21.453  0.00  0.00    +0.000 C 
ATOM     17  C   UNL     1       0.721  10.428  20.034  0.00  0.00    +0.000 C 
BRANCH  17  18
ATOM     18  C   UNL     1      -0.470  10.684  19.119  0.00  0.00    +0.000 A 
ATOM     19  C   UNL     1      -1.525  11.518  19.587  0.00  0.00    +0.000 A 
ATOM     20  C   UNL     1      -2.691  11.728  18.842  0.00  0.00    +0.000 A 
ATOM     21  C   UNL     1      -2.768  11.098  17.626  0.00  0.00    +0.000 A 
ATOM     22  N   UNL     1      -3.802  11.086  16.696  0.00  0.00    +0.000 N 
ATOM     23  C   UNL     1      -3.421  10.284  15.612  0.00  0.00    +0.000 A 
ATOM     24  O   UNL     1      -4.082  10.037  14.618  0.00  0.00    +0.000 OA
ATOM     25  N   UNL     1      -2.129   9.814  15.894  0.00  0.00    +0.000 N 
ATOM     26  C   UNL     1      -1.734  10.306  17.134  0.00  0.00    +0.000 A 
ATOM     27  C   UNL     1      -0.574  10.086  17.844  0.00  0.00    +0.000 A 
ATOM     28  H   UNL     1      -4.695  11.544  16.768  0.00  0.00    +0.000 HD
ATOM     29  H   UNL     1      -1.615   9.200  15.283  0.00  0.00    +0.000 HD
ENDBRANCH  17  18
ENDBRANCH   1  17
TORSDOF 3
ENDMDL
