MODEL 1
REMARK VINA RESULT:      -8.2      0.000      0.000
REMARK  Name = 
REMARK  10 active torsions:
REMARK  status: ('A' for Active; 'I' for Inactive)
REMARK    1  A    between atoms: C_1  and  C_2
REMARK    2  A    between atoms: C_5  and  C_6
REMARK    3  A    between atoms: C_7  and  C_8
REMARK    4  A    between atoms: C_8  and  C_9
REMARK    5  A    between atoms: C_9  and  C_10
REMARK    6  A    between atoms: C_9  and  N_11
REMARK    7  A    between atoms: C_12  and  C_14
REMARK    8  A    between atoms: C_18  and  C_19
REMARK    9  A    between atoms: N_23  and  C_24
REMARK   10  A    between atoms: C_24  and  C_25
REMARK                            x       y       z     vdW  Elec       q    Type
REMARK                         _______ _______ _______ _____ _____    ______ ____
ROOT
ATOM      1  C   UNL     1       0.530   9.215  20.621  0.00  0.00    +0.000 C 
ATOM      2  C   UNL     1       0.552   8.649  22.040  0.00  0.00    +0.000 C 
ATOM      3  C   UNL     1      -0.090   9.777  22.835  0.00  0.00    +0.000 C 
ATOM      4  O   UNL     1       0.182  10.997  22.123  0.00  0.00    +0.000 OA
ATOM      5  C   UNL     1       0.966  10.622  20.984  0.00  0.00    +0.000 C 
ENDROOT
BRANCH   5   6
ATOM      6  C   UNL     1       0.820  11.654  19.942  0.00  0.00    +0.000 A 
ATOM      7  C   UNL     1       1.788  12.560  19.550  0.00  0.00    +0.000 A 
ATOM      8  C   UNL     1       1.150  13.397  18.635  0.00  0.00    +0.000 A 
ATOM      9  N   UNL     1      -0.108  13.027  18.401  0.00  0.00    +0.000 NA
ATOM     10  N   UNL     1      -0.316  11.958  19.213  0.00  0.00    +0.000 N 
BRANCH  10  11
ATOM     11  C   UNL     1      -1.689  11.451  19.402  0.00  0.00    +0.000 C 
BRANCH  11  12
ATOM     12  C   UNL     1      -2.425  11.062  18.128  0.00  0.00    +0.000 A 
ATOM     13  C   UNL     1      -1.865  10.149  17.219  0.00  0.00    +0.000 A 
ATOM     14  C   UNL     1      -2.478   9.903  15.981  0.00  0.00    +0.000 A 
ATOM     15  C   UNL     1      -3.703  10.494  15.677  0.00  0.00    +0.000 A 
ATOM     16  C   UNL     1      -4.341  11.277  16.633  0.00  0.00    +0.000 A 
ATOM     17  C   UNL     1      -3.706  11.559  17.846  0.00  0.00    +0.000 A 
ENDBRANCH  11  12
ENDBRANCH  10  11
ENDBRANCH   5   6
BRANCH   1  19
ATOM     18  N   UNL     1       2.132   7.438  20.014  0.00  0.00    +0.000 N 
ATOM     19  C   UNL     1       1.515   8.630  19.637  0.00  0.00    +0.000 C 
ATOM     20  O   UNL     1       1.698   9.150  18.532  0.00  0.00    +0.000 OA
ATOM     21  H   UNL     1       1.786   6.933  20.810  0.00  0.00    +0.000 HD
BRANCH  18  22
ATOM     22  C   UNL     1       2.863   6.677  18.986  0.00  0.00    +0.000 C 
ATOM     23  C   UNL     1       1.850   5.965  18.082  0.00  0.00    +0.000 C 
BRANCH  22  24
ATOM     24  C   UNL     1       3.923   5.679  19.503  0.00  0.00    +0.000 C 
BRANCH  24  31
ATOM     25  C   UNL     1       4.608   3.675  17.026  0.00  0.00    +0.000 C 
ATOM     26  C   UNL     1       3.857   3.372  18.269  0.00  0.00    +0.000 A 
ATOM     27  N   UNL     1       3.345   2.150  18.450  0.00  0.00    +0.000 NA
ATOM     28  O   UNL     1       2.684   2.196  19.655  0.00  0.00    +0.000 OA
ATOM     29  C   UNL     1       2.799   3.437  20.199  0.00  0.00    +0.000 A 
ATOM     30  C   UNL     1       2.115   3.614  21.494  0.00  0.00    +0.000 C 
ATOM     31  C   UNL     1       3.551   4.238  19.362  0.00  0.00    +0.000 A 
ENDBRANCH  24  31
ENDBRANCH  22  24
ENDBRANCH  18  22
ENDBRANCH   1  19
TORSDOF 7
ENDMDL
MODEL 2
REMARK VINA RESULT:      -8.2      0.388      1.488
REMARK  Name = 
REMARK  10 active torsions:
REMARK  status: ('A' for Active; 'I' for Inactive)
REMARK    1  A    between atoms: C_1  and  C_2
REMARK    2  A    between atoms: C_5  and  C_6
REMARK    3  A    between atoms: C_7  and  C_8
REMARK    4  A    between atoms: C_8  and  C_9
REMARK    5  A    between atoms: C_9  and  C_10
REMARK    6  A    between atoms: C_9  and  N_11
REMARK    7  A    between atoms: C_12  and  C_14
REMARK    8  A    between atoms: C_18  and  C_19
REMARK    9  A    between atoms: N_23  and  C_24
REMARK   10  A    between atoms: C_24  and  C_25
REMARK                            x       y       z     vdW  Elec       q    Type
REMARK                         _______ _______ _______ _____ _____    ______ ____
ROOT
ATOM      1  C   UNL     1       0.494   9.230  20.691  0.00  0.00    +0.000 C 
ATOM      2  C   UNL     1       0.508   8.689  22.120  0.00  0.00    +0.000 C 
ATOM      3  C   UNL     1      -0.145   9.828  22.890  0.00  0.00    +0.000 C 
ATOM      4  O   UNL     1       0.126  11.037  22.159  0.00  0.00    +0.000 OA
ATOM      5  C   UNL     1       0.919  10.645  21.032  0.00  0.00    +0.000 C 
ENDROOT
BRANCH   5   6
ATOM      6  C   UNL     1       0.776  11.658  19.971  0.00  0.00    +0.000 A 
ATOM      7  C   UNL     1       1.733  12.578  19.586  0.00  0.00    +0.000 A 
ATOM      8  C   UNL     1       1.099  13.387  18.644  0.00  0.00    +0.000 A 
ATOM      9  N   UNL     1      -0.145  12.987  18.388  0.00  0.00    +0.000 NA
ATOM     10  N   UNL     1      -0.350  11.926  19.212  0.00  0.00    +0.000 N 
BRANCH  10  11
ATOM     11  C   UNL     1      -1.716  11.394  19.379  0.00  0.00    +0.000 C 
BRANCH  11  12
ATOM     12  C   UNL     1      -2.437  11.025  18.091  0.00  0.00    +0.000 A 
ATOM     13  C   UNL     1      -1.873  10.115  17.181  0.00  0.00    +0.000 A 
ATOM     14  C   UNL     1      -2.471   9.887  15.932  0.00  0.00    +0.000 A 
ATOM     15  C   UNL     1      -3.684  10.493  15.616  0.00  0.00    +0.000 A 
ATOM     16  C   UNL     1      -4.328  11.274  16.570  0.00  0.00    +0.000 A 
ATOM     17  C   UNL     1      -3.709  11.538  17.795  0.00  0.00    +0.000 A 
ENDBRANCH  11  12
ENDBRANCH  10  11
ENDBRANCH   5   6
BRANCH   1  19
ATOM     18  N   UNL     1       2.123   7.460  20.135  0.00  0.00    +0.000 N 
ATOM     19  C   UNL     1       1.488   8.632  19.725  0.00  0.00    +0.000 C 
ATOM     20  O   UNL     1       1.664   9.124  18.606  0.00  0.00    +0.000 OA
ATOM     21  H   UNL     1       1.783   6.973  20.945  0.00  0.00    +0.000 HD
BRANCH  18  22
ATOM     22  C   UNL     1       2.866   6.682  19.129  0.00  0.00    +0.000 C 
ATOM     23  C   UNL     1       1.873   6.122  18.103  0.00  0.00    +0.000 C 
BRANCH  22  24
ATOM     24  C   UNL     1       3.775   5.558  19.674  0.00  0.00    +0.000 C 
BRANCH  24  31
ATOM     25  C   UNL     1       1.946   3.440  21.343  0.00  0.00    +0.000 C 
ATOM     26  C   UNL     1       2.574   3.257  20.013  0.00  0.00    +0.000 A 
ATOM     27  N   UNL     1       2.437   2.092  19.372  0.00  0.00    +0.000 NA
ATOM     28  O   UNL     1       3.156   2.219  18.205  0.00  0.00    +0.000 OA
ATOM     29  C   UNL     1       3.720   3.455  18.143  0.00  0.00    +0.000 A 
ATOM     30  C   UNL     1       4.532   3.706  16.936  0.00  0.00    +0.000 C 
ATOM     31  C   UNL     1       3.376   4.175  19.269  0.00  0.00    +0.000 A 
ENDBRANCH  24  31
ENDBRANCH  22  24
ENDBRANCH  18  22
ENDBRANCH   1  19
TORSDOF 7
ENDMDL
MODEL 3
REMARK VINA RESULT:      -8.0      1.620      2.143
REMARK  Name = 
REMARK  10 active torsions:
REMARK  status: ('A' for Active; 'I' for Inactive)
REMARK    1  A    between atoms: C_1  and  C_2
REMARK    2  A    between atoms: C_5  and  C_6
REMARK    3  A    between atoms: C_7  and  C_8
REMARK    4  A    between atoms: C_8  and  C_9
REMARK    5  A    between atoms: C_9  and  C_10
REMARK    6  A    between atoms: C_9  and  N_11
REMARK    7  A    between atoms: C_12  and  C_14
REMARK    8  A    between atoms: C_18  and  C_19
REMARK    9  A    between atoms: N_23  and  C_24
REMARK   10  A    between atoms: C_24  and  C_25
REMARK                            x       y       z     vdW  Elec       q    Type
REMARK                         _______ _______ _______ _____ _____    ______ ____
ROOT
ATOM      1  C   UNL     1       0.623   9.193  20.409  0.00  0.00    +0.000 C 
ATOM      2  C   UNL     1       0.727   8.588  21.808  0.00  0.00    +0.000 C 
ATOM      3  C   UNL     1       0.141   9.698  22.671  0.00  0.00    +0.000 C 
ATOM      4  O   UNL     1       0.377  10.935  21.977  0.00  0.00    +0.000 OA
ATOM      5  C   UNL     1       1.087  10.588  20.782  0.00  0.00    +0.000 C 
ENDROOT
BRANCH   5   6
ATOM      6  C   UNL     1       0.884  11.648  19.779  0.00  0.00    +0.000 A 
ATOM      7  C   UNL     1       1.819  12.586  19.383  0.00  0.00    +0.000 A 
ATOM      8  C   UNL     1       1.133  13.437  18.517  0.00  0.00    +0.000 A 
ATOM      9  N   UNL     1      -0.125  13.047  18.315  0.00  0.00    +0.000 NA
ATOM     10  N   UNL     1      -0.283  11.949  19.099  0.00  0.00    +0.000 N 
BRANCH  10  11
ATOM     11  C   UNL     1      -1.637  11.407  19.319  0.00  0.00    +0.000 C 
BRANCH  11  12
ATOM     12  C   UNL     1      -2.407  11.036  18.060  0.00  0.00    +0.000 A 
ATOM     13  C   UNL     1      -1.895  10.095  17.150  0.00  0.00    +0.000 A 
ATOM     14  C   UNL     1      -2.535   9.862  15.924  0.00  0.00    +0.000 A 
ATOM     15  C   UNL     1      -3.742  10.494  15.633  0.00  0.00    +0.000 A 
ATOM     16  C   UNL     1      -4.336  11.308  16.592  0.00  0.00    +0.000 A 
ATOM     17  C   UNL     1      -3.674  11.576  17.793  0.00  0.00    +0.000 A 
ENDBRANCH  11  12
ENDBRANCH  10  11
ENDBRANCH   5   6
BRANCH   1  19
ATOM     18  N   UNL     1       2.243   7.473  19.692  0.00  0.00    +0.000 N 
ATOM     19  C   UNL     1       1.543   8.630  19.352  0.00  0.00    +0.000 C 
ATOM     20  O   UNL     1       1.604   9.135  18.227  0.00  0.00    +0.000 OA
ATOM     21  H   UNL     1       1.991   6.970  20.524  0.00  0.00    +0.000 HD
BRANCH  18  22
ATOM     22  C   UNL     1       2.914   6.724  18.616  0.00  0.00    +0.000 C 
ATOM     23  C   UNL     1       1.881   5.835  17.914  0.00  0.00    +0.000 C 
BRANCH  22  24
ATOM     24  C   UNL     1       4.149   5.895  19.033  0.00  0.00    +0.000 C 
BRANCH  24  31
ATOM     25  C   UNL     1       3.987   2.997  17.551  0.00  0.00    +0.000 C 
ATOM     26  C   UNL     1       4.904   4.125  17.259  0.00  0.00    +0.000 A 
ATOM     27  N   UNL     1       5.824   3.997  16.297  0.00  0.00    +0.000 NA
ATOM     28  O   UNL     1       6.533   5.176  16.297  0.00  0.00    +0.000 OA
ATOM     29  C   UNL     1       6.041   6.011  17.250  0.00  0.00    +0.000 A 
ATOM     30  C   UNL     1       6.734   7.310  17.355  0.00  0.00    +0.000 C 
ATOM     31  C   UNL     1       4.986   5.399  17.897  0.00  0.00    +0.000 A 
ENDBRANCH  24  31
ENDBRANCH  22  24
ENDBRANCH  18  22
ENDBRANCH   1  19
TORSDOF 7
ENDMDL
MODEL 4
REMARK VINA RESULT:      -8.0      0.759      1.891
REMARK  Name = 
REMARK  10 active torsions:
REMARK  status: ('A' for Active; 'I' for Inactive)
REMARK    1  A    between atoms: C_1  and  C_2
REMARK    2  A    between atoms: C_5  and  C_6
REMARK    3  A    between atoms: C_7  and  C_8
REMARK    4  A    between atoms: C_8  and  C_9
REMARK    5  A    between atoms: C_9  and  C_10
REMARK    6  A    between atoms: C_9  and  N_11
REMARK    7  A    between atoms: C_12  and  C_14
REMARK    8  A    between atoms: C_18  and  C_19
REMARK    9  A    between atoms: N_23  and  C_24
REMARK   10  A    between atoms: C_24  and  C_25
REMARK                            x       y       z     vdW  Elec       q    Type
REMARK                         _______ _______ _______ _____ _____    ______ ____
ROOT
ATOM      1  C   UNL     1       0.507   9.208  20.530  0.00  0.00    +0.000 C 
ATOM      2  C   UNL     1       0.607   8.614  21.934  0.00  0.00    +0.000 C 
ATOM      3  C   UNL     1       0.075   9.753  22.792  0.00  0.00    +0.000 C 
ATOM      4  O   UNL     1       0.347  10.974  22.081  0.00  0.00    +0.000 OA
ATOM      5  C   UNL     1       1.028  10.588  20.881  0.00  0.00    +0.000 C 
ENDROOT
BRANCH   5   6
ATOM      6  C   UNL     1       0.852  11.645  19.870  0.00  0.00    +0.000 A 
ATOM      7  C   UNL     1       1.791  12.592  19.508  0.00  0.00    +0.000 A 
ATOM      8  C   UNL     1       1.128  13.435  18.615  0.00  0.00    +0.000 A 
ATOM      9  N   UNL     1      -0.116  13.032  18.367  0.00  0.00    +0.000 NA
ATOM     10  N   UNL     1      -0.292  11.933  19.147  0.00  0.00    +0.000 N 
BRANCH  10  11
ATOM     11  C   UNL     1      -1.648  11.377  19.317  0.00  0.00    +0.000 C 
BRANCH  11  12
ATOM     12  C   UNL     1      -2.391  11.055  18.028  0.00  0.00    +0.000 A 
ATOM     13  C   UNL     1      -3.612  11.677  17.721  0.00  0.00    +0.000 A 
ATOM     14  C   UNL     1      -4.362  11.274  16.606  0.00  0.00    +0.000 A 
ATOM     15  C   UNL     1      -3.858  10.311  15.735  0.00  0.00    +0.000 A 
ATOM     16  C   UNL     1      -2.582   9.800  15.944  0.00  0.00    +0.000 A 
ATOM     17  C   UNL     1      -1.856  10.168  17.081  0.00  0.00    +0.000 A 
ENDBRANCH  11  12
ENDBRANCH  10  11
ENDBRANCH   5   6
BRANCH   1  19
ATOM     18  N   UNL     1       2.221   7.556  19.874  0.00  0.00    +0.000 N 
ATOM     19  C   UNL     1       1.391   8.600  19.467  0.00  0.00    +0.000 C 
ATOM     20  O   UNL     1       1.318   8.969  18.290  0.00  0.00    +0.000 OA
ATOM     21  H   UNL     1       2.082   7.139  20.776  0.00  0.00    +0.000 HD
BRANCH  18  22
ATOM     22  C   UNL     1       2.874   6.741  18.835  0.00  0.00    +0.000 C 
ATOM     23  C   UNL     1       3.517   7.674  17.803  0.00  0.00    +0.000 C 
BRANCH  22  24
ATOM     24  C   UNL     1       1.984   5.690  18.136  0.00  0.00    +0.000 C 
BRANCH  24  31
ATOM     25  C   UNL     1       0.885   3.283  20.038  0.00  0.00    +0.000 C 
ATOM     26  C   UNL     1       1.997   3.240  19.058  0.00  0.00    +0.000 A 
ATOM     27  N   UNL     1       2.698   2.113  18.903  0.00  0.00    +0.000 NA
ATOM     28  O   UNL     1       3.668   2.399  17.971  0.00  0.00    +0.000 OA
ATOM     29  C   UNL     1       3.550   3.692  17.564  0.00  0.00    +0.000 A 
ATOM     30  C   UNL     1       4.551   4.123  16.569  0.00  0.00    +0.000 C 
ATOM     31  C   UNL     1       2.488   4.284  18.218  0.00  0.00    +0.000 A 
ENDBRANCH  24  31
ENDBRANCH  22  24
ENDBRANCH  18  22
ENDBRANCH   1  19
TORSDOF 7
ENDMDL
MODEL 5
REMARK VINA RESULT:      -8.0      1.502      1.837
REMARK  Name = 
REMARK  10 active torsions:
REMARK  status: ('A' for Active; 'I' for Inactive)
REMARK    1  A    between atoms: C_1  and  C_2
REMARK    2  A    between atoms: C_5  and  C_6
REMARK    3  A    between atoms: C_7  and  C_8
REMARK    4  A    between atoms: C_8  and  C_9
REMARK    5  A    between atoms: C_9  and  C_10
REMARK    6  A    between atoms: C_9  and  N_11
REMARK    7  A    between atoms: C_12  and  C_14
REMARK    8  A    between atoms: C_18  and  C_19
REMARK    9  A    between atoms: N_23  and  C_24
REMARK   10  A    between atoms: C_24  and  C_25
REMARK                            x       y       z     vdW  Elec       q    Type
REMARK                         _______ _______ _______ _____ _____    ______ ____
ROOT
ATOM      1  C   UNL     1       0.623   9.190  20.515  0.00  0.00    +0.000 C 
ATOM      2  C   UNL     1       0.721   8.604  21.922  0.00  0.00    +0.000 C 
ATOM      3  C   UNL     1       0.136   9.727  22.768  0.00  0.00    +0.000 C 
ATOM      4  O   UNL     1       0.377  10.955  22.058  0.00  0.00    +0.000 OA
ATOM      5  C   UNL     1       1.090  10.588  20.870  0.00  0.00    +0.000 C 
ENDROOT
BRANCH   5   6
ATOM      6  C   UNL     1       0.894  11.636  19.852  0.00  0.00    +0.000 A 
ATOM      7  C   UNL     1       1.829  12.572  19.453  0.00  0.00    +0.000 A 
ATOM      8  C   UNL     1       1.149  13.410  18.570  0.00  0.00    +0.000 A 
ATOM      9  N   UNL     1      -0.105  13.013  18.361  0.00  0.00    +0.000 NA
ATOM     10  N   UNL     1      -0.267  11.925  19.157  0.00  0.00    +0.000 N 
BRANCH  10  11
ATOM     11  C   UNL     1      -1.622  11.381  19.371  0.00  0.00    +0.000 C 
BRANCH  11  12
ATOM     12  C   UNL     1      -2.389  11.018  18.108  0.00  0.00    +0.000 A 
ATOM     13  C   UNL     1      -1.870  10.094  17.186  0.00  0.00    +0.000 A 
ATOM     14  C   UNL     1      -2.509   9.869  15.958  0.00  0.00    +0.000 A 
ATOM     15  C   UNL     1      -3.721  10.494  15.675  0.00  0.00    +0.000 A 
ATOM     16  C   UNL     1      -4.322  11.291  16.644  0.00  0.00    +0.000 A 
ATOM     17  C   UNL     1      -3.661  11.551  17.848  0.00  0.00    +0.000 A 
ENDBRANCH  11  12
ENDBRANCH  10  11
ENDBRANCH   5   6
BRANCH   1  19
ATOM     18  N   UNL     1       2.221   7.442  19.817  0.00  0.00    +0.000 N 
ATOM     19  C   UNL     1       1.544   8.610  19.468  0.00  0.00    +0.000 C 
ATOM     20  O   UNL     1       1.626   9.112  18.343  0.00  0.00    +0.000 OA
ATOM     21  H   UNL     1       1.952   6.945  20.647  0.00  0.00    +0.000 HD
BRANCH  18  22
ATOM     22  C   UNL     1       2.890   6.680  18.750  0.00  0.00    +0.000 C 
ATOM     23  C   UNL     1       1.849   5.815  18.031  0.00  0.00    +0.000 C 
BRANCH  22  24
ATOM     24  C   UNL     1       4.101   5.823  19.182  0.00  0.00    +0.000 C 
BRANCH  24  31
ATOM     25  C   UNL     1       6.456   7.115  17.337  0.00  0.00    +0.000 C 
ATOM     26  C   UNL     1       5.874   5.754  17.258  0.00  0.00    +0.000 A 
ATOM     27  N   UNL     1       6.304   4.906  16.318  0.00  0.00    +0.000 NA
ATOM     28  O   UNL     1       5.556   3.762  16.476  0.00  0.00    +0.000 OA
ATOM     29  C   UNL     1       4.684   3.918  17.508  0.00  0.00    +0.000 A 
ATOM     30  C   UNL     1       3.813   2.755  17.767  0.00  0.00    +0.000 C 
ATOM     31  C   UNL     1       4.845   5.174  18.060  0.00  0.00    +0.000 A 
ENDBRANCH  24  31
ENDBRANCH  22  24
ENDBRANCH  18  22
ENDBRANCH   1  19
TORSDOF 7
ENDMDL
MODEL 6
REMARK VINA RESULT:      -8.0      1.560      2.485
REMARK  Name = 
REMARK  10 active torsions:
REMARK  status: ('A' for Active; 'I' for Inactive)
REMARK    1  A    between atoms: C_1  and  C_2
REMARK    2  A    between atoms: C_5  and  C_6
REMARK    3  A    between atoms: C_7  and  C_8
REMARK    4  A    between atoms: C_8  and  C_9
REMARK    5  A    between atoms: C_9  and  C_10
REMARK    6  A    between atoms: C_9  and  N_11
REMARK    7  A    between atoms: C_12  and  C_14
REMARK    8  A    between atoms: C_18  and  C_19
REMARK    9  A    between atoms: N_23  and  C_24
REMARK   10  A    between atoms: C_24  and  C_25
REMARK                            x       y       z     vdW  Elec       q    Type
REMARK                         _______ _______ _______ _____ _____    ______ ____
ROOT
ATOM      1  C   UNL     1      -0.244   9.761  21.381  0.00  0.00    +0.000 C 
ATOM      2  C   UNL     1      -0.533   9.485  22.855  0.00  0.00    +0.000 C 
ATOM      3  C   UNL     1      -1.213  10.778  23.286  0.00  0.00    +0.000 C 
ATOM      4  O   UNL     1      -0.712  11.819  22.430  0.00  0.00    +0.000 OA
ATOM      5  C   UNL     1       0.233  11.190  21.556  0.00  0.00    +0.000 C 
ENDROOT
BRANCH   5   6
ATOM      6  C   UNL     1       0.370  12.002  20.334  0.00  0.00    +0.000 A 
ATOM      7  C   UNL     1       1.464  12.769  19.982  0.00  0.00    +0.000 A 
ATOM      8  C   UNL     1       1.079  13.437  18.820  0.00  0.00    +0.000 A 
ATOM      9  N   UNL     1      -0.139  13.084  18.413  0.00  0.00    +0.000 NA
ATOM     10  N   UNL     1      -0.582  12.206  19.351  0.00  0.00    +0.000 N 
BRANCH  10  11
ATOM     11  C   UNL     1      -2.003  11.808  19.354  0.00  0.00    +0.000 C 
BRANCH  11  12
ATOM     12  C   UNL     1      -2.527  11.241  18.042  0.00  0.00    +0.000 A 
ATOM     13  C   UNL     1      -3.738  11.692  17.491  0.00  0.00    +0.000 A 
ATOM     14  C   UNL     1      -4.289  11.068  16.362  0.00  0.00    +0.000 A 
ATOM     15  C   UNL     1      -3.591  10.050  15.715  0.00  0.00    +0.000 A 
ATOM     16  C   UNL     1      -2.321   9.701  16.161  0.00  0.00    +0.000 A 
ATOM     17  C   UNL     1      -1.795  10.291  17.314  0.00  0.00    +0.000 A 
ENDBRANCH  11  12
ENDBRANCH  10  11
ENDBRANCH   5   6
BRANCH   1  19
ATOM     18  N   UNL     1       0.896   8.962  19.342  0.00  0.00    +0.000 N 
ATOM     19  C   UNL     1       0.852   8.948  20.735  0.00  0.00    +0.000 C 
ATOM     20  O   UNL     1       1.701   8.367  21.419  0.00  0.00    +0.000 OA
ATOM     21  H   UNL     1       0.335   9.626  18.837  0.00  0.00    +0.000 HD
BRANCH  18  22
ATOM     22  C   UNL     1       2.102   8.440  18.677  0.00  0.00    +0.000 C 
ATOM     23  C   UNL     1       2.522   9.417  17.574  0.00  0.00    +0.000 C 
BRANCH  22  24
ATOM     24  C   UNL     1       2.003   7.002  18.120  0.00  0.00    +0.000 C 
BRANCH  24  31
ATOM     25  C   UNL     1       2.464   4.960  20.618  0.00  0.00    +0.000 C 
ATOM     26  C   UNL     1       3.383   5.251  19.491  0.00  0.00    +0.000 A 
ATOM     27  N   UNL     1       4.579   4.656  19.445  0.00  0.00    +0.000 NA
ATOM     28  O   UNL     1       5.202   5.154  18.324  0.00  0.00    +0.000 OA
ATOM     29  C   UNL     1       4.384   6.041  17.696  0.00  0.00    +0.000 A 
ATOM     30  C   UNL     1       4.951   6.655  16.480  0.00  0.00    +0.000 C 
ATOM     31  C   UNL     1       3.195   6.140  18.391  0.00  0.00    +0.000 A 
ENDBRANCH  24  31
ENDBRANCH  22  24
ENDBRANCH  18  22
ENDBRANCH   1  19
TORSDOF 7
ENDMDL
MODEL 7
REMARK VINA RESULT:      -7.7      1.946      2.588
REMARK  Name = 
REMARK  10 active torsions:
REMARK  status: ('A' for Active; 'I' for Inactive)
REMARK    1  A    between atoms: C_1  and  C_2
REMARK    2  A    between atoms: C_5  and  C_6
REMARK    3  A    between atoms: C_7  and  C_8
REMARK    4  A    between atoms: C_8  and  C_9
REMARK    5  A    between atoms: C_9  and  C_10
REMARK    6  A    between atoms: C_9  and  N_11
REMARK    7  A    between atoms: C_12  and  C_14
REMARK    8  A    between atoms: C_18  and  C_19
REMARK    9  A    between atoms: N_23  and  C_24
REMARK   10  A    between atoms: C_24  and  C_25
REMARK                            x       y       z     vdW  Elec       q    Type
REMARK                         _______ _______ _______ _____ _____    ______ ____
ROOT
ATOM      1  C   UNL     1       0.770   9.087  20.243  0.00  0.00    +0.000 C 
ATOM      2  C   UNL     1       0.889   8.430  21.617  0.00  0.00    +0.000 C 
ATOM      3  C   UNL     1       0.319   9.508  22.528  0.00  0.00    +0.000 C 
ATOM      4  O   UNL     1       0.551  10.770  21.878  0.00  0.00    +0.000 OA
ATOM      5  C   UNL     1       1.245  10.465  20.662  0.00  0.00    +0.000 C 
ENDROOT
BRANCH   5   6
ATOM      6  C   UNL     1       1.034  11.564  19.703  0.00  0.00    +0.000 A 
ATOM      7  C   UNL     1       1.973  12.502  19.317  0.00  0.00    +0.000 A 
ATOM      8  C   UNL     1       1.279  13.393  18.499  0.00  0.00    +0.000 A 
ATOM      9  N   UNL     1       0.011  13.029  18.314  0.00  0.00    +0.000 NA
ATOM     10  N   UNL     1      -0.144  11.906  19.063  0.00  0.00    +0.000 N 
BRANCH  10  11
ATOM     11  C   UNL     1      -1.502  11.377  19.298  0.00  0.00    +0.000 C 
BRANCH  11  12
ATOM     12  C   UNL     1      -2.308  11.062  18.046  0.00  0.00    +0.000 A 
ATOM     13  C   UNL     1      -3.533  11.702  17.794  0.00  0.00    +0.000 A 
ATOM     14  C   UNL     1      -4.340  11.307  16.717  0.00  0.00    +0.000 A 
ATOM     15  C   UNL     1      -3.891  10.335  15.826  0.00  0.00    +0.000 A 
ATOM     16  C   UNL     1      -2.613   9.806  15.977  0.00  0.00    +0.000 A 
ATOM     17  C   UNL     1      -1.830  10.166  17.078  0.00  0.00    +0.000 A 
ENDBRANCH  11  12
ENDBRANCH  10  11
ENDBRANCH   5   6
BRANCH   1  19
ATOM     18  N   UNL     1       2.530   7.520  19.508  0.00  0.00    +0.000 N 
ATOM     19  C   UNL     1       1.674   8.562  19.153  0.00  0.00    +0.000 C 
ATOM     20  O   UNL     1       1.595   8.991  17.998  0.00  0.00    +0.000 OA
ATOM     21  H   UNL     1       2.399   7.050  20.387  0.00  0.00    +0.000 HD
BRANCH  18  22
ATOM     22  C   UNL     1       3.208   6.779  18.431  0.00  0.00    +0.000 C 
ATOM     23  C   UNL     1       2.245   5.725  17.871  0.00  0.00    +0.000 C 
BRANCH  22  24
ATOM     24  C   UNL     1       4.564   6.135  18.798  0.00  0.00    +0.000 C 
BRANCH  24  31
ATOM     25  C   UNL     1       7.054   7.896  17.651  0.00  0.00    +0.000 C 
ATOM     26  C   UNL     1       6.534   6.605  17.140  0.00  0.00    +0.000 A 
ATOM     27  N   UNL     1       7.092   6.049  16.060  0.00  0.00    +0.000 NA
ATOM     28  O   UNL     1       6.374   4.901  15.816  0.00  0.00    +0.000 OA
ATOM     29  C   UNL     1       5.391   4.764  16.746  0.00  0.00    +0.000 A 
ATOM     30  C   UNL     1       4.540   3.570  16.579  0.00  0.00    +0.000 C 
ATOM     31  C   UNL     1       5.447   5.821  17.633  0.00  0.00    +0.000 A 
ENDBRANCH  24  31
ENDBRANCH  22  24
ENDBRANCH  18  22
ENDBRANCH   1  19
TORSDOF 7
ENDMDL
MODEL 8
REMARK VINA RESULT:      -7.6      1.306      1.598
REMARK  Name = 
REMARK  10 active torsions:
REMARK  status: ('A' for Active; 'I' for Inactive)
REMARK    1  A    between atoms: C_1  and  C_2
REMARK    2  A    between atoms: C_5  and  C_6
REMARK    3  A    between atoms: C_7  and  C_8
REMARK    4  A    between atoms: C_8  and  C_9
REMARK    5  A    between atoms: C_9  and  C_10
REMARK    6  A    between atoms: C_9  and  N_11
REMARK    7  A    between atoms: C_12  and  C_14
REMARK    8  A    between atoms: C_18  and  C_19
REMARK    9  A    between atoms: N_23  and  C_24
REMARK   10  A    between atoms: C_24  and  C_25
REMARK                            x       y       z     vdW  Elec       q    Type
REMARK                         _______ _______ _______ _____ _____    ______ ____
ROOT
ATOM      1  C   UNL     1       0.093   9.302  21.124  0.00  0.00    +0.000 C 
ATOM      2  C   UNL     1      -0.016   8.968  22.610  0.00  0.00    +0.000 C 
ATOM      3  C   UNL     1      -0.474  10.297  23.195  0.00  0.00    +0.000 C 
ATOM      4  O   UNL     1       0.019  11.329  22.324  0.00  0.00    +0.000 OA
ATOM      5  C   UNL     1       0.754  10.657  21.293  0.00  0.00    +0.000 C 
ENDROOT
BRANCH   5   6
ATOM      6  C   UNL     1       0.812  11.524  20.103  0.00  0.00    +0.000 A 
ATOM      7  C   UNL     1       1.920  12.215  19.650  0.00  0.00    +0.000 A 
ATOM      8  C   UNL     1       1.456  12.980  18.580  0.00  0.00    +0.000 A 
ATOM      9  N   UNL     1       0.170  12.756  18.317  0.00  0.00    +0.000 NA
ATOM     10  N   UNL     1      -0.232  11.865  19.261  0.00  0.00    +0.000 N 
BRANCH  10  11
ATOM     11  C   UNL     1      -1.672  11.590  19.428  0.00  0.00    +0.000 C 
BRANCH  11  12
ATOM     12  C   UNL     1      -2.398  11.118  18.177  0.00  0.00    +0.000 A 
ATOM     13  C   UNL     1      -1.841  10.131  17.346  0.00  0.00    +0.000 A 
ATOM     14  C   UNL     1      -2.443   9.802  16.122  0.00  0.00    +0.000 A 
ATOM     15  C   UNL     1      -3.653  10.386  15.757  0.00  0.00    +0.000 A 
ATOM     16  C   UNL     1      -4.291  11.249  16.643  0.00  0.00    +0.000 A 
ATOM     17  C   UNL     1      -3.668  11.612  17.840  0.00  0.00    +0.000 A 
ENDBRANCH  11  12
ENDBRANCH  10  11
ENDBRANCH   5   6
BRANCH   1  19
ATOM     18  N   UNL     1       1.346   7.193  20.851  0.00  0.00    +0.000 N 
ATOM     19  C   UNL     1       0.986   8.416  20.288  0.00  0.00    +0.000 C 
ATOM     20  O   UNL     1       1.311   8.739  19.141  0.00  0.00    +0.000 OA
ATOM     21  H   UNL     1       0.877   6.874  21.680  0.00  0.00    +0.000 HD
BRANCH  18  22
ATOM     22  C   UNL     1       1.959   6.177  19.977  0.00  0.00    +0.000 C 
ATOM     23  C   UNL     1       1.319   4.816  20.275  0.00  0.00    +0.000 C 
BRANCH  22  24
ATOM     24  C   UNL     1       3.499   6.075  20.028  0.00  0.00    +0.000 C 
BRANCH  24  31
ATOM     25  C   UNL     1       4.252   7.263  17.089  0.00  0.00    +0.000 C 
ATOM     26  C   UNL     1       4.442   5.883  17.594  0.00  0.00    +0.000 A 
ATOM     27  N   UNL     1       4.957   4.950  16.788  0.00  0.00    +0.000 NA
ATOM     28  O   UNL     1       4.969   3.785  17.521  0.00  0.00    +0.000 OA
ATOM     29  C   UNL     1       4.467   4.017  18.764  0.00  0.00    +0.000 A 
ATOM     30  C   UNL     1       4.416   2.833  19.643  0.00  0.00    +0.000 C 
ATOM     31  C   UNL     1       4.120   5.349  18.878  0.00  0.00    +0.000 A 
ENDBRANCH  24  31
ENDBRANCH  22  24
ENDBRANCH  18  22
ENDBRANCH   1  19
TORSDOF 7
ENDMDL
MODEL 9
REMARK VINA RESULT:      -7.5      2.124      4.454
REMARK  Name = 
REMARK  10 active torsions:
REMARK  status: ('A' for Active; 'I' for Inactive)
REMARK    1  A    between atoms: C_1  and  C_2
REMARK    2  A    between atoms: C_5  and  C_6
REMARK    3  A    between atoms: C_7  and  C_8
REMARK    4  A    between atoms: C_8  and  C_9
REMARK    5  A    between atoms: C_9  and  C_10
REMARK    6  A    between atoms: C_9  and  N_11
REMARK    7  A    between atoms: C_12  and  C_14
REMARK    8  A    between atoms: C_18  and  C_19
REMARK    9  A    between atoms: N_23  and  C_24
REMARK   10  A    between atoms: C_24  and  C_25
REMARK                            x       y       z     vdW  Elec       q    Type
REMARK                         _______ _______ _______ _____ _____    ______ ____
ROOT
ATOM      1  C   UNL     1      -0.486   9.837  21.524  0.00  0.00    +0.000 C 
ATOM      2  C   UNL     1      -0.518   9.796  23.050  0.00  0.00    +0.000 C 
ATOM      3  C   UNL     1      -1.466  10.943  23.371  0.00  0.00    +0.000 C 
ATOM      4  O   UNL     1      -1.366  11.885  22.289  0.00  0.00    +0.000 OA
ATOM      5  C   UNL     1      -0.392  11.344  21.387  0.00  0.00    +0.000 C 
ENDROOT
BRANCH   5   6
ATOM      6  C   UNL     1      -0.619  11.907  20.044  0.00  0.00    +0.000 A 
ATOM      7  C   UNL     1      -1.702  11.651  19.224  0.00  0.00    +0.000 A 
ATOM      8  C   UNL     1      -1.412  12.307  18.028  0.00  0.00    +0.000 A 
ATOM      9  N   UNL     1      -0.269  12.988  18.087  0.00  0.00    +0.000 NA
ATOM     10  N   UNL     1       0.226  12.735  19.327  0.00  0.00    +0.000 N 
BRANCH  10  11
ATOM     11  C   UNL     1       1.614  13.124  19.643  0.00  0.00    +0.000 C 
BRANCH  11  12
ATOM     12  C   UNL     1       2.101  14.407  18.985  0.00  0.00    +0.000 A 
ATOM     13  C   UNL     1       1.551  15.652  19.333  0.00  0.00    +0.000 A 
ATOM     14  C   UNL     1       1.899  16.813  18.625  0.00  0.00    +0.000 A 
ATOM     15  C   UNL     1       2.868  16.759  17.626  0.00  0.00    +0.000 A 
ATOM     16  C   UNL     1       3.530  15.560  17.379  0.00  0.00    +0.000 A 
ATOM     17  C   UNL     1       3.148  14.396  18.052  0.00  0.00    +0.000 A 
ENDBRANCH  11  12
ENDBRANCH  10  11
ENDBRANCH   5   6
BRANCH   1  19
ATOM     18  N   UNL     1       0.676   9.150  19.456  0.00  0.00    +0.000 N 
ATOM     19  C   UNL     1       0.708   9.203  20.849  0.00  0.00    +0.000 C 
ATOM     20  O   UNL     1       1.683   8.824  21.505  0.00  0.00    +0.000 OA
ATOM     21  H   UNL     1      -0.022   9.673  18.958  0.00  0.00    +0.000 HD
BRANCH  18  22
ATOM     22  C   UNL     1       1.923   8.821  18.743  0.00  0.00    +0.000 C 
ATOM     23  C   UNL     1       2.283   9.985  17.813  0.00  0.00    +0.000 C 
BRANCH  22  24
ATOM     24  C   UNL     1       1.931   7.485  17.968  0.00  0.00    +0.000 C 
BRANCH  24  31
ATOM     25  C   UNL     1       1.840   5.495  20.547  0.00  0.00    +0.000 C 
ATOM     26  C   UNL     1       2.921   5.644  19.543  0.00  0.00    +0.000 A 
ATOM     27  N   UNL     1       4.039   4.922  19.665  0.00  0.00    +0.000 NA
ATOM     28  O   UNL     1       4.851   5.309  18.623  0.00  0.00    +0.000 OA
ATOM     29  C   UNL     1       4.223   6.257  17.877  0.00  0.00    +0.000 A 
ATOM     30  C   UNL     1       5.005   6.763  16.732  0.00  0.00    +0.000 C 
ATOM     31  C   UNL     1       2.974   6.509  18.409  0.00  0.00    +0.000 A 
ENDBRANCH  24  31
ENDBRANCH  22  24
ENDBRANCH  18  22
ENDBRANCH   1  19
TORSDOF 7
ENDMDL
