MODEL 1
REMARK VINA RESULT:      -8.9      0.000      0.000
REMARK  Name = 
REMARK  5 active torsions:
REMARK  status: ('A' for Active; 'I' for Inactive)
REMARK    1  A    between atoms: C_1  and  C_2
REMARK    2  A    between atoms: C_5  and  C_6
REMARK    3  A    between atoms: N_9  and  C_10
REMARK    4  A    between atoms: C_10  and  C_11
REMARK    5  A    between atoms: N_13  and  C_14
REMARK                            x       y       z     vdW  Elec       q    Type
REMARK                         _______ _______ _______ _____ _____    ______ ____
ROOT
ATOM      1  C   UNL     1       6.214   5.395  18.918  0.00  0.00    +0.000 C 
ATOM      2  O   UNL     1       6.367   4.858  20.018  0.00  0.00    +0.000 OA
ATOM      3  N   UNL     1       4.978   5.649  18.330  0.00  0.00    +0.000 N 
ATOM      4  H   UNL     1       4.970   5.893  17.346  0.00  0.00    +0.000 HD
ENDROOT
BRANCH   3   5
ATOM      5  C   UNL     1       3.707   5.430  18.951  0.00  0.00    +0.000 A 
ATOM      6  C   UNL     1       3.081   6.453  19.675  0.00  0.00    +0.000 A 
ATOM      7  C   UNL     1       1.883   6.241  20.343  0.00  0.00    +0.000 A 
ATOM      8  C   UNL     1       1.276   4.996  20.282  0.00  0.00    +0.000 A 
ATOM      9  C   UNL     1       1.824   3.961  19.548  0.00  0.00    +0.000 A 
ATOM     10  N   UNL     1       1.138   2.805  19.549  0.00  0.00    +0.000 NA
ATOM     11  C   UNL     1       1.629   1.771  18.844  0.00  0.00    +0.000 A 
ATOM     12  C   UNL     1       2.797   1.839  18.115  0.00  0.00    +0.000 A 
ATOM     13  C   UNL     1       3.508   3.040  18.119  0.00  0.00    +0.000 A 
ATOM     14  C   UNL     1       3.046   4.161  18.851  0.00  0.00    +0.000 A 
ENDBRANCH   3   5
BRANCH   1  15
ATOM     15  C   UNL     1       7.449   5.654  18.093  0.00  0.00    +0.000 C 
BRANCH  15  19
ATOM     16  C   UNL     1       8.346   8.988  18.311  0.00  0.00    +0.000 A 
ATOM     17  N   UNL     1       7.420   9.035  17.292  0.00  0.00    +0.000 NA
ATOM     18  N   UNL     1       7.045   7.793  17.040  0.00  0.00    +0.000 NA
ATOM     19  N   UNL     1       7.752   7.048  17.903  0.00  0.00    +0.000 N 
ATOM     20  N   UNL     1       8.598   7.725  18.713  0.00  0.00    +0.000 NA
BRANCH  16  25
ATOM     21  C   UNL     1      11.155  13.718  20.094  0.00  0.00    +0.000 C 
ATOM     22  C   UNL     1      10.365  12.519  19.660  0.00  0.00    +0.000 A 
ATOM     23  C   UNL     1       9.983  12.373  18.325  0.00  0.00    +0.000 A 
ATOM     24  C   UNL     1       9.295  11.230  17.910  0.00  0.00    +0.000 A 
ATOM     25  C   UNL     1       8.982  10.203  18.813  0.00  0.00    +0.000 A 
ATOM     26  C   UNL     1       9.330  10.369  20.160  0.00  0.00    +0.000 A 
ATOM     27  C   UNL     1      10.019  11.517  20.579  0.00  0.00    +0.000 A 
ENDBRANCH  16  25
ENDBRANCH  15  19
ENDBRANCH   1  15
TORSDOF 4
ENDMDL
MODEL 2
REMARK VINA RESULT:      -8.3      1.454      2.650
REMARK  Name = 
REMARK  5 active torsions:
REMARK  status: ('A' for Active; 'I' for Inactive)
REMARK    1  A    between atoms: C_1  and  C_2
REMARK    2  A    between atoms: C_5  and  C_6
REMARK    3  A    between atoms: N_9  and  C_10
REMARK    4  A    between atoms: C_10  and  C_11
REMARK    5  A    between atoms: N_13  and  C_14
REMARK                            x       y       z     vdW  Elec       q    Type
REMARK                         _______ _______ _______ _____ _____    ______ ____
ROOT
ATOM      1  C   UNL     1       5.652   4.635  16.497  0.00  0.00    +0.000 C 
ATOM      2  O   UNL     1       4.801   4.601  15.604  0.00  0.00    +0.000 OA
ATOM      3  N   UNL     1       5.447   4.189  17.799  0.00  0.00    +0.000 N 
ATOM      4  H   UNL     1       6.131   4.456  18.498  0.00  0.00    +0.000 HD
ENDROOT
BRANCH   3   5
ATOM      5  C   UNL     1       4.267   3.528  18.270  0.00  0.00    +0.000 A 
ATOM      6  C   UNL     1       4.030   2.184  17.960  0.00  0.00    +0.000 A 
ATOM      7  C   UNL     1       2.860   1.545  18.346  0.00  0.00    +0.000 A 
ATOM      8  C   UNL     1       1.907   2.243  19.073  0.00  0.00    +0.000 A 
ATOM      9  C   UNL     1       2.104   3.558  19.445  0.00  0.00    +0.000 A 
ATOM     10  N   UNL     1       1.119   4.126  20.162  0.00  0.00    +0.000 NA
ATOM     11  C   UNL     1       1.268   5.405  20.552  0.00  0.00    +0.000 A 
ATOM     12  C   UNL     1       2.384   6.159  20.260  0.00  0.00    +0.000 A 
ATOM     13  C   UNL     1       3.404   5.567  19.512  0.00  0.00    +0.000 A 
ATOM     14  C   UNL     1       3.299   4.227  19.065  0.00  0.00    +0.000 A 
ENDBRANCH   3   5
BRANCH   1  15
ATOM     15  C   UNL     1       6.948   5.343  16.195  0.00  0.00    +0.000 C 
BRANCH  15  19
ATOM     16  C   UNL     1       8.083   8.060  18.012  0.00  0.00    +0.000 A 
ATOM     17  N   UNL     1       8.248   7.046  18.931  0.00  0.00    +0.000 NA
ATOM     18  N   UNL     1       7.769   5.940  18.390  0.00  0.00    +0.000 NA
ATOM     19  N   UNL     1       7.332   6.320  17.180  0.00  0.00    +0.000 N 
ATOM     20  N   UNL     1       7.478   7.632  16.885  0.00  0.00    +0.000 NA
BRANCH  16  25
ATOM     21  C   UNL     1       9.874  13.489  18.886  0.00  0.00    +0.000 C 
ATOM     22  C   UNL     1       9.362  12.089  18.715  0.00  0.00    +0.000 A 
ATOM     23  C   UNL     1       8.487  11.782  17.670  0.00  0.00    +0.000 A 
ATOM     24  C   UNL     1       8.054  10.469  17.476  0.00  0.00    +0.000 A 
ATOM     25  C   UNL     1       8.490   9.430  18.313  0.00  0.00    +0.000 A 
ATOM     26  C   UNL     1       9.334   9.745  19.386  0.00  0.00    +0.000 A 
ATOM     27  C   UNL     1       9.769  11.065  19.582  0.00  0.00    +0.000 A 
ENDBRANCH  16  25
ENDBRANCH  15  19
ENDBRANCH   1  15
TORSDOF 4
ENDMDL
MODEL 3
REMARK VINA RESULT:      -8.2      2.156      9.330
REMARK  Name = 
REMARK  5 active torsions:
REMARK  status: ('A' for Active; 'I' for Inactive)
REMARK    1  A    between atoms: C_1  and  C_2
REMARK    2  A    between atoms: C_5  and  C_6
REMARK    3  A    between atoms: N_9  and  C_10
REMARK    4  A    between atoms: C_10  and  C_11
REMARK    5  A    between atoms: N_13  and  C_14
REMARK                            x       y       z     vdW  Elec       q    Type
REMARK                         _______ _______ _______ _____ _____    ______ ____
ROOT
ATOM      1  C   UNL     1       8.176   9.058  18.054  0.00  0.00    +0.000 C 
ATOM      2  O   UNL     1       7.408   9.933  17.644  0.00  0.00    +0.000 OA
ATOM      3  N   UNL     1       9.171   9.265  19.005  0.00  0.00    +0.000 N 
ATOM      4  H   UNL     1       9.875   8.543  19.109  0.00  0.00    +0.000 HD
ENDROOT
BRANCH   3   5
ATOM      5  C   UNL     1       9.384  10.483  19.727  0.00  0.00    +0.000 A 
ATOM      6  C   UNL     1       8.946  10.612  21.051  0.00  0.00    +0.000 A 
ATOM      7  C   UNL     1       9.079  11.807  21.746  0.00  0.00    +0.000 A 
ATOM      8  C   UNL     1       9.674  12.896  21.128  0.00  0.00    +0.000 A 
ATOM      9  C   UNL     1      10.163  12.815  19.838  0.00  0.00    +0.000 A 
ATOM     10  N   UNL     1      10.734  13.930  19.349  0.00  0.00    +0.000 NA
ATOM     11  C   UNL     1      11.230  13.898  18.100  0.00  0.00    +0.000 A 
ATOM     12  C   UNL     1      11.189  12.778  17.298  0.00  0.00    +0.000 A 
ATOM     13  C   UNL     1      10.592  11.623  17.808  0.00  0.00    +0.000 A 
ATOM     14  C   UNL     1      10.044  11.598  19.113  0.00  0.00    +0.000 A 
ENDBRANCH   3   5
BRANCH   1  15
ATOM     15  C   UNL     1       8.130   7.716  17.368  0.00  0.00    +0.000 C 
BRANCH  15  19
ATOM     16  C   UNL     1       5.925   5.611  19.004  0.00  0.00    +0.000 A 
ATOM     17  N   UNL     1       7.066   5.425  19.754  0.00  0.00    +0.000 NA
ATOM     18  N   UNL     1       8.033   6.120  19.182  0.00  0.00    +0.000 NA
ATOM     19  N   UNL     1       7.451   6.692  18.118  0.00  0.00    +0.000 N 
ATOM     20  N   UNL     1       6.142   6.403  17.934  0.00  0.00    +0.000 NA
BRANCH  16  25
ATOM     21  C   UNL     1       0.953   3.199  20.708  0.00  0.00    +0.000 C 
ATOM     22  C   UNL     1       2.231   3.797  20.199  0.00  0.00    +0.000 A 
ATOM     23  C   UNL     1       2.301   5.158  19.896  0.00  0.00    +0.000 A 
ATOM     24  C   UNL     1       3.505   5.726  19.476  0.00  0.00    +0.000 A 
ATOM     25  C   UNL     1       4.670   4.952  19.357  0.00  0.00    +0.000 A 
ATOM     26  C   UNL     1       4.590   3.579  19.621  0.00  0.00    +0.000 A 
ATOM     27  C   UNL     1       3.380   3.007  20.042  0.00  0.00    +0.000 A 
ENDBRANCH  16  25
ENDBRANCH  15  19
ENDBRANCH   1  15
TORSDOF 4
ENDMDL
MODEL 4
REMARK VINA RESULT:      -8.0      1.118      1.634
REMARK  Name = 
REMARK  5 active torsions:
REMARK  status: ('A' for Active; 'I' for Inactive)
REMARK    1  A    between atoms: C_1  and  C_2
REMARK    2  A    between atoms: C_5  and  C_6
REMARK    3  A    between atoms: N_9  and  C_10
REMARK    4  A    between atoms: C_10  and  C_11
REMARK    5  A    between atoms: N_13  and  C_14
REMARK                            x       y       z     vdW  Elec       q    Type
REMARK                         _______ _______ _______ _____ _____    ______ ____
ROOT
ATOM      1  C   UNL     1       5.246   6.227  17.083  0.00  0.00    +0.000 C 
ATOM      2  O   UNL     1       4.324   6.426  16.287  0.00  0.00    +0.000 OA
ATOM      3  N   UNL     1       5.074   5.806  18.398  0.00  0.00    +0.000 N 
ATOM      4  H   UNL     1       5.872   5.880  19.020  0.00  0.00    +0.000 HD
ENDROOT
BRANCH   3   5
ATOM      5  C   UNL     1       3.825   5.437  18.992  0.00  0.00    +0.000 A 
ATOM      6  C   UNL     1       3.090   6.364  19.742  0.00  0.00    +0.000 A 
ATOM      7  C   UNL     1       1.913   6.008  20.384  0.00  0.00    +0.000 A 
ATOM      8  C   UNL     1       1.437   4.711  20.271  0.00  0.00    +0.000 A 
ATOM      9  C   UNL     1       2.095   3.764  19.510  0.00  0.00    +0.000 A 
ATOM     10  N   UNL     1       1.531   2.545  19.460  0.00  0.00    +0.000 NA
ATOM     11  C   UNL     1       2.133   1.592  18.727  0.00  0.00    +0.000 A 
ATOM     12  C   UNL     1       3.295   1.804  18.018  0.00  0.00    +0.000 A 
ATOM     13  C   UNL     1       3.880   3.071  18.075  0.00  0.00    +0.000 A 
ATOM     14  C   UNL     1       3.298   4.112  18.838  0.00  0.00    +0.000 A 
ENDBRANCH   3   5
BRANCH   1  15
ATOM     15  C   UNL     1       6.637   6.609  16.645  0.00  0.00    +0.000 C 
BRANCH  15  19
ATOM     16  C   UNL     1       8.514   8.910  18.421  0.00  0.00    +0.000 A 
ATOM     17  N   UNL     1       8.755   7.763  19.146  0.00  0.00    +0.000 NA
ATOM     18  N   UNL     1       8.021   6.799  18.618  0.00  0.00    +0.000 NA
ATOM     19  N   UNL     1       7.366   7.391  17.608  0.00  0.00    +0.000 N 
ATOM     20  N   UNL     1       7.610   8.711  17.440  0.00  0.00    +0.000 NA
BRANCH  16  25
ATOM     21  C   UNL     1      10.752  14.014  19.962  0.00  0.00    +0.000 C 
ATOM     22  C   UNL     1      10.239  12.668  19.544  0.00  0.00    +0.000 A 
ATOM     23  C   UNL     1       9.906  11.712  20.506  0.00  0.00    +0.000 A 
ATOM     24  C   UNL     1       9.376  10.479  20.120  0.00  0.00    +0.000 A 
ATOM     25  C   UNL     1       9.157  10.174  18.767  0.00  0.00    +0.000 A 
ATOM     26  C   UNL     1       9.529  11.118  17.802  0.00  0.00    +0.000 A 
ATOM     27  C   UNL     1      10.064  12.357  18.188  0.00  0.00    +0.000 A 
ENDBRANCH  16  25
ENDBRANCH  15  19
ENDBRANCH   1  15
TORSDOF 4
ENDMDL
MODEL 5
REMARK VINA RESULT:      -8.0      5.105      7.242
REMARK  Name = 
REMARK  5 active torsions:
REMARK  status: ('A' for Active; 'I' for Inactive)
REMARK    1  A    between atoms: C_1  and  C_2
REMARK    2  A    between atoms: C_5  and  C_6
REMARK    3  A    between atoms: N_9  and  C_10
REMARK    4  A    between atoms: C_10  and  C_11
REMARK    5  A    between atoms: N_13  and  C_14
REMARK                            x       y       z     vdW  Elec       q    Type
REMARK                         _______ _______ _______ _____ _____    ______ ____
ROOT
ATOM      1  C   UNL     1       1.730   5.761  20.682  0.00  0.00    +0.000 C 
ATOM      2  O   UNL     1       0.579   5.482  20.338  0.00  0.00    +0.000 OA
ATOM      3  N   UNL     1       2.317   7.014  20.527  0.00  0.00    +0.000 N 
ATOM      4  H   UNL     1       3.322   7.077  20.644  0.00  0.00    +0.000 HD
ENDROOT
BRANCH   3   5
ATOM      5  C   UNL     1       1.648   8.187  20.051  0.00  0.00    +0.000 A 
ATOM      6  C   UNL     1       1.744   8.566  18.706  0.00  0.00    +0.000 A 
ATOM      7  C   UNL     1       1.163   9.737  18.239  0.00  0.00    +0.000 A 
ATOM      8  C   UNL     1       0.453  10.545  19.114  0.00  0.00    +0.000 A 
ATOM      9  C   UNL     1       0.288  10.201  20.442  0.00  0.00    +0.000 A 
ATOM     10  N   UNL     1      -0.433  11.054  21.190  0.00  0.00    +0.000 NA
ATOM     11  C   UNL     1      -0.625  10.758  22.488  0.00  0.00    +0.000 A 
ATOM     12  C   UNL     1      -0.126   9.622  23.087  0.00  0.00    +0.000 A 
ATOM     13  C   UNL     1       0.625   8.740  22.307  0.00  0.00    +0.000 A 
ATOM     14  C   UNL     1       0.870   9.003  20.937  0.00  0.00    +0.000 A 
ENDBRANCH   3   5
BRANCH   1  15
ATOM     15  C   UNL     1       2.605   4.632  21.164  0.00  0.00    +0.000 C 
BRANCH  15  19
ATOM     16  C   UNL     1       4.539   3.906  18.388  0.00  0.00    +0.000 A 
ATOM     17  N   UNL     1       4.274   2.638  18.859  0.00  0.00    +0.000 NA
ATOM     18  N   UNL     1       3.598   2.768  19.987  0.00  0.00    +0.000 NA
ATOM     19  N   UNL     1       3.482   4.093  20.159  0.00  0.00    +0.000 N 
ATOM     20  N   UNL     1       4.062   4.864  19.210  0.00  0.00    +0.000 NA
BRANCH  16  25
ATOM     21  C   UNL     1       7.581   5.085  13.614  0.00  0.00    +0.000 C 
ATOM     22  C   UNL     1       6.803   4.708  14.839  0.00  0.00    +0.000 A 
ATOM     23  C   UNL     1       7.377   4.836  16.106  0.00  0.00    +0.000 A 
ATOM     24  C   UNL     1       6.635   4.538  17.250  0.00  0.00    +0.000 A 
ATOM     25  C   UNL     1       5.300   4.114  17.160  0.00  0.00    +0.000 A 
ATOM     26  C   UNL     1       4.738   3.946  15.888  0.00  0.00    +0.000 A 
ATOM     27  C   UNL     1       5.483   4.244  14.737  0.00  0.00    +0.000 A 
ENDBRANCH  16  25
ENDBRANCH  15  19
ENDBRANCH   1  15
TORSDOF 4
ENDMDL
MODEL 6
REMARK VINA RESULT:      -8.0      6.776      9.751
REMARK  Name = 
REMARK  5 active torsions:
REMARK  status: ('A' for Active; 'I' for Inactive)
REMARK    1  A    between atoms: C_1  and  C_2
REMARK    2  A    between atoms: C_5  and  C_6
REMARK    3  A    between atoms: N_9  and  C_10
REMARK    4  A    between atoms: C_10  and  C_11
REMARK    5  A    between atoms: N_13  and  C_14
REMARK                            x       y       z     vdW  Elec       q    Type
REMARK                         _______ _______ _______ _____ _____    ______ ____
ROOT
ATOM      1  C   UNL     1      -0.502  11.759  19.524  0.00  0.00    +0.000 C 
ATOM      2  O   UNL     1      -0.335  12.785  18.859  0.00  0.00    +0.000 OA
ATOM      3  N   UNL     1      -1.477  10.801  19.262  0.00  0.00    +0.000 N 
ATOM      4  H   UNL     1      -1.666  10.115  19.985  0.00  0.00    +0.000 HD
ENDROOT
BRANCH   3   5
ATOM      5  C   UNL     1      -2.355  10.802  18.130  0.00  0.00    +0.000 A 
ATOM      6  C   UNL     1      -1.986  10.162  16.941  0.00  0.00    +0.000 A 
ATOM      7  C   UNL     1      -2.790  10.211  15.810  0.00  0.00    +0.000 A 
ATOM      8  C   UNL     1      -3.996  10.893  15.858  0.00  0.00    +0.000 A 
ATOM      9  C   UNL     1      -4.433  11.508  17.015  0.00  0.00    +0.000 A 
ATOM     10  N   UNL     1      -5.625  12.125  16.946  0.00  0.00    +0.000 NA
ATOM     11  C   UNL     1      -6.094  12.733  18.050  0.00  0.00    +0.000 A 
ATOM     12  C   UNL     1      -5.418  12.750  19.250  0.00  0.00    +0.000 A 
ATOM     13  C   UNL     1      -4.177  12.111  19.317  0.00  0.00    +0.000 A 
ATOM     14  C   UNL     1      -3.627  11.462  18.185  0.00  0.00    +0.000 A 
ENDBRANCH   3   5
BRANCH   1  15
ATOM     15  C   UNL     1       0.304  11.610  20.788  0.00  0.00    +0.000 C 
BRANCH  15  19
ATOM     16  C   UNL     1       1.534   8.386  20.534  0.00  0.00    +0.000 A 
ATOM     17  N   UNL     1       1.495   8.542  21.903  0.00  0.00    +0.000 NA
ATOM     18  N   UNL     1       1.114   9.783  22.149  0.00  0.00    +0.000 NA
ATOM     19  N   UNL     1       0.942  10.328  20.936  0.00  0.00    +0.000 N 
ATOM     20  N   UNL     1       1.205   9.521  19.883  0.00  0.00    +0.000 NA
BRANCH  16  25
ATOM     21  C   UNL     1       3.404   3.347  18.401  0.00  0.00    +0.000 C 
ATOM     22  C   UNL     1       2.863   4.651  18.909  0.00  0.00    +0.000 A 
ATOM     23  C   UNL     1       2.195   4.707  20.134  0.00  0.00    +0.000 A 
ATOM     24  C   UNL     1       1.739   5.929  20.632  0.00  0.00    +0.000 A 
ATOM     25  C   UNL     1       1.946   7.124  19.926  0.00  0.00    +0.000 A 
ATOM     26  C   UNL     1       2.580   7.061  18.679  0.00  0.00    +0.000 A 
ATOM     27  C   UNL     1       3.037   5.833  18.176  0.00  0.00    +0.000 A 
ENDBRANCH  16  25
ENDBRANCH  15  19
ENDBRANCH   1  15
TORSDOF 4
ENDMDL
MODEL 7
REMARK VINA RESULT:      -8.0      5.003      7.055
REMARK  Name = 
REMARK  5 active torsions:
REMARK  status: ('A' for Active; 'I' for Inactive)
REMARK    1  A    between atoms: C_1  and  C_2
REMARK    2  A    between atoms: C_5  and  C_6
REMARK    3  A    between atoms: N_9  and  C_10
REMARK    4  A    between atoms: C_10  and  C_11
REMARK    5  A    between atoms: N_13  and  C_14
REMARK                            x       y       z     vdW  Elec       q    Type
REMARK                         _______ _______ _______ _____ _____    ______ ____
ROOT
ATOM      1  C   UNL     1       2.418   5.834  19.936  0.00  0.00    +0.000 C 
ATOM      2  O   UNL     1       1.310   5.349  19.689  0.00  0.00    +0.000 OA
ATOM      3  N   UNL     1       2.730   7.185  19.818  0.00  0.00    +0.000 N 
ATOM      4  H   UNL     1       3.712   7.441  19.836  0.00  0.00    +0.000 HD
ENDROOT
BRANCH   3   5
ATOM      5  C   UNL     1       1.798   8.225  19.502  0.00  0.00    +0.000 A 
ATOM      6  C   UNL     1       1.585   8.612  18.173  0.00  0.00    +0.000 A 
ATOM      7  C   UNL     1       0.739   9.665  17.851  0.00  0.00    +0.000 A 
ATOM      8  C   UNL     1       0.073  10.342  18.861  0.00  0.00    +0.000 A 
ATOM      9  C   UNL     1       0.211   9.977  20.187  0.00  0.00    +0.000 A 
ATOM     10  N   UNL     1      -0.496  10.696  21.076  0.00  0.00    +0.000 NA
ATOM     11  C   UNL     1      -0.399  10.374  22.378  0.00  0.00    +0.000 A 
ATOM     12  C   UNL     1       0.385   9.341  22.846  0.00  0.00    +0.000 A 
ATOM     13  C   UNL     1       1.121   8.600  21.919  0.00  0.00    +0.000 A 
ATOM     14  C   UNL     1       1.066   8.897  20.536  0.00  0.00    +0.000 A 
ENDBRANCH   3   5
BRANCH   1  15
ATOM     15  C   UNL     1       3.543   4.878  20.239  0.00  0.00    +0.000 C 
BRANCH  15  19
ATOM     16  C   UNL     1       5.576   4.661  17.448  0.00  0.00    +0.000 A 
ATOM     17  N   UNL     1       6.489   4.425  18.453  0.00  0.00    +0.000 NA
ATOM     18  N   UNL     1       5.854   4.561  19.604  0.00  0.00    +0.000 NA
ATOM     19  N   UNL     1       4.597   4.875  19.259  0.00  0.00    +0.000 N 
ATOM     20  N   UNL     1       4.356   4.974  17.931  0.00  0.00    +0.000 NA
BRANCH  16  25
ATOM     21  C   UNL     1       7.173   4.115  11.917  0.00  0.00    +0.000 C 
ATOM     22  C   UNL     1       6.735   4.324  13.336  0.00  0.00    +0.000 A 
ATOM     23  C   UNL     1       5.558   3.736  13.804  0.00  0.00    +0.000 A 
ATOM     24  C   UNL     1       5.178   3.885  15.140  0.00  0.00    +0.000 A 
ATOM     25  C   UNL     1       5.968   4.614  16.042  0.00  0.00    +0.000 A 
ATOM     26  C   UNL     1       7.127   5.237  15.562  0.00  0.00    +0.000 A 
ATOM     27  C   UNL     1       7.508   5.090  14.220  0.00  0.00    +0.000 A 
ENDBRANCH  16  25
ENDBRANCH  15  19
ENDBRANCH   1  15
TORSDOF 4
ENDMDL
MODEL 8
REMARK VINA RESULT:      -7.8      5.455      8.501
REMARK  Name = 
REMARK  5 active torsions:
REMARK  status: ('A' for Active; 'I' for Inactive)
REMARK    1  A    between atoms: C_1  and  C_2
REMARK    2  A    between atoms: C_5  and  C_6
REMARK    3  A    between atoms: N_9  and  C_10
REMARK    4  A    between atoms: C_10  and  C_11
REMARK    5  A    between atoms: N_13  and  C_14
REMARK                            x       y       z     vdW  Elec       q    Type
REMARK                         _______ _______ _______ _____ _____    ______ ____
ROOT
ATOM      1  C   UNL     1       1.071   8.975  21.733  0.00  0.00    +0.000 C 
ATOM      2  O   UNL     1       1.803   9.462  22.598  0.00  0.00    +0.000 OA
ATOM      3  N   UNL     1      -0.066   9.593  21.223  0.00  0.00    +0.000 N 
ATOM      4  H   UNL     1      -0.706   9.022  20.682  0.00  0.00    +0.000 HD
ENDROOT
BRANCH   3   5
ATOM      5  C   UNL     1      -0.497  10.922  21.539  0.00  0.00    +0.000 A 
ATOM      6  C   UNL     1      -1.075  11.208  22.782  0.00  0.00    +0.000 A 
ATOM      7  C   UNL     1      -1.564  12.472  23.082  0.00  0.00    +0.000 A 
ATOM      8  C   UNL     1      -1.463  13.485  22.141  0.00  0.00    +0.000 A 
ATOM      9  C   UNL     1      -0.864  13.274  20.914  0.00  0.00    +0.000 A 
ATOM     10  N   UNL     1      -0.809  14.335  20.090  0.00  0.00    +0.000 NA
ATOM     11  C   UNL     1      -0.230  14.179  18.886  0.00  0.00    +0.000 A 
ATOM     12  C   UNL     1       0.317  12.989  18.459  0.00  0.00    +0.000 A 
ATOM     13  C   UNL     1       0.255  11.889  19.316  0.00  0.00    +0.000 A 
ATOM     14  C   UNL     1      -0.351  11.989  20.591  0.00  0.00    +0.000 A 
ENDBRANCH   3   5
BRANCH   1  15
ATOM     15  C   UNL     1       1.344   7.553  21.312  0.00  0.00    +0.000 C 
BRANCH  15  19
ATOM     16  C   UNL     1       3.068   6.780  18.414  0.00  0.00    +0.000 A 
ATOM     17  N   UNL     1       2.664   8.069  18.140  0.00  0.00    +0.000 NA
ATOM     18  N   UNL     1       1.910   8.470  19.148  0.00  0.00    +0.000 NA
ATOM     19  N   UNL     1       1.881   7.422  19.984  0.00  0.00    +0.000 N 
ATOM     20  N   UNL     1       2.565   6.326  19.581  0.00  0.00    +0.000 NA
BRANCH  16  25
ATOM     21  C   UNL     1       6.175   3.963  14.433  0.00  0.00    +0.000 C 
ATOM     22  C   UNL     1       5.420   4.676  15.515  0.00  0.00    +0.000 A 
ATOM     23  C   UNL     1       5.457   6.069  15.600  0.00  0.00    +0.000 A 
ATOM     24  C   UNL     1       4.710   6.737  16.573  0.00  0.00    +0.000 A 
ATOM     25  C   UNL     1       3.902   6.032  17.478  0.00  0.00    +0.000 A 
ATOM     26  C   UNL     1       3.897   4.632  17.418  0.00  0.00    +0.000 A 
ATOM     27  C   UNL     1       4.648   3.960  16.442  0.00  0.00    +0.000 A 
ENDBRANCH  16  25
ENDBRANCH  15  19
ENDBRANCH   1  15
TORSDOF 4
ENDMDL
MODEL 9
REMARK VINA RESULT:      -7.8      0.928      2.397
REMARK  Name = 
REMARK  5 active torsions:
REMARK  status: ('A' for Active; 'I' for Inactive)
REMARK    1  A    between atoms: C_1  and  C_2
REMARK    2  A    between atoms: C_5  and  C_6
REMARK    3  A    between atoms: N_9  and  C_10
REMARK    4  A    between atoms: C_10  and  C_11
REMARK    5  A    between atoms: N_13  and  C_14
REMARK                            x       y       z     vdW  Elec       q    Type
REMARK                         _______ _______ _______ _____ _____    ______ ____
ROOT
ATOM      1  C   UNL     1       6.294   4.645  18.541  0.00  0.00    +0.000 C 
ATOM      2  O   UNL     1       6.423   4.663  19.768  0.00  0.00    +0.000 OA
ATOM      3  N   UNL     1       5.199   4.107  17.872  0.00  0.00    +0.000 N 
ATOM      4  H   UNL     1       5.291   3.951  16.874  0.00  0.00    +0.000 HD
ENDROOT
BRANCH   3   5
ATOM      5  C   UNL     1       4.017   3.596  18.498  0.00  0.00    +0.000 A 
ATOM      6  C   UNL     1       3.706   2.232  18.431  0.00  0.00    +0.000 A 
ATOM      7  C   UNL     1       2.530   1.728  18.970  0.00  0.00    +0.000 A 
ATOM      8  C   UNL     1       1.647   2.586  19.606  0.00  0.00    +0.000 A 
ATOM      9  C   UNL     1       1.919   3.933  19.741  0.00  0.00    +0.000 A 
ATOM     10  N   UNL     1       0.996   4.663  20.391  0.00  0.00    +0.000 NA
ATOM     11  C   UNL     1       1.220   5.980  20.552  0.00  0.00    +0.000 A 
ATOM     12  C   UNL     1       2.351   6.616  20.089  0.00  0.00    +0.000 A 
ATOM     13  C   UNL     1       3.306   5.855  19.411  0.00  0.00    +0.000 A 
ATOM     14  C   UNL     1       3.121   4.467  19.203  0.00  0.00    +0.000 A 
ENDBRANCH   3   5
BRANCH   1  15
ATOM     15  C   UNL     1       7.468   5.099  17.711  0.00  0.00    +0.000 C 
BRANCH  15  19
ATOM     16  C   UNL     1       7.959   8.519  17.905  0.00  0.00    +0.000 A 
ATOM     17  N   UNL     1       6.852   8.462  17.086  0.00  0.00    +0.000 NA
ATOM     18  N   UNL     1       6.596   7.186  16.855  0.00  0.00    +0.000 NA
ATOM     19  N   UNL     1       7.547   6.525  17.530  0.00  0.00    +0.000 N 
ATOM     20  N   UNL     1       8.444   7.293  18.192  0.00  0.00    +0.000 NA
BRANCH  16  25
ATOM     21  C   UNL     1       9.959  13.575  19.873  0.00  0.00    +0.000 C 
ATOM     22  C   UNL     1       9.498  12.260  19.317  0.00  0.00    +0.000 A 
ATOM     23  C   UNL     1       9.673  11.085  20.051  0.00  0.00    +0.000 A 
ATOM     24  C   UNL     1       9.195   9.869  19.560  0.00  0.00    +0.000 A 
ATOM     25  C   UNL     1       8.522   9.797  18.330  0.00  0.00    +0.000 A 
ATOM     26  C   UNL     1       8.383  10.969  17.576  0.00  0.00    +0.000 A 
ATOM     27  C   UNL     1       8.865  12.192  18.068  0.00  0.00    +0.000 A 
ENDBRANCH  16  25
ENDBRANCH  15  19
ENDBRANCH   1  15
TORSDOF 4
ENDMDL
