MODEL 1
REMARK VINA RESULT:      -8.3      0.000      0.000
REMARK  Name = 
REMARK  5 active torsions:
REMARK  status: ('A' for Active; 'I' for Inactive)
REMARK    1  A    between atoms: C_1  and  C_2
REMARK    2  A    between atoms: C_8  and  C_9
REMARK    3  A    between atoms: N_18  and  C_19
REMARK    4  A    between atoms: N_22  and  C_23
REMARK    5  A    between atoms: C_23  and  C_24
REMARK                            x       y       z     vdW  Elec       q    Type
REMARK                         _______ _______ _______ _____ _____    ______ ____
ROOT
ATOM      1  C   UNL     1       0.434  12.093  21.284  0.00  0.00    +0.000 C 
ATOM      2  C   UNL     1      -0.019  12.383  19.840  0.00  0.00    +0.000 C 
ATOM      3  C   UNL     1      -0.311  11.047  19.096  0.00  0.00    +0.000 C 
ATOM      4  N   UNL     1       0.914  10.323  18.718  0.00  0.00    +0.000 N 
ATOM      5  C   UNL     1       1.269   9.218  19.409  0.00  0.00    +0.000 A 
ATOM      6  N   UNL     1       0.952   8.841  20.641  0.00  0.00    +0.000 NA
ATOM      7  N   UNL     1       1.485   7.593  20.869  0.00  0.00    +0.000 NA
ATOM      8  C   UNL     1       2.107   7.189  19.769  0.00  0.00    +0.000 A 
ATOM      9  N   UNL     1       1.963   8.181  18.826  0.00  0.00    +0.000 N 
ATOM     10  C   UNL     1       2.434   8.190  17.461  0.00  0.00    +0.000 C 
ATOM     11  C   UNL     1       1.952  11.174  18.109  0.00  0.00    +0.000 C 
ATOM     12  C   UNL     1       2.157  12.526  18.816  0.00  0.00    +0.000 C 
ATOM     13  N   UNL     1       0.907  13.268  19.049  0.00  0.00    +0.000 NA
ENDROOT
BRANCH   8  14
ATOM     14  C   UNL     1       2.782   5.906  19.590  0.00  0.00    +0.000 A 
ATOM     15  C   UNL     1       4.182   5.819  19.514  0.00  0.00    +0.000 A 
ATOM     16  N   UNL     1       4.932   4.727  19.239  0.00  0.00    +0.000 NA
ATOM     17  C   UNL     1       4.182   3.632  19.126  0.00  0.00    +0.000 A 
ATOM     18  N   UNL     1       4.634   2.367  18.879  0.00  0.00    +0.000 N 
ATOM     19  N   UNL     1       3.661   1.440  18.836  0.00  0.00    +0.000 NA
ATOM     20  C   UNL     1       2.549   2.153  19.067  0.00  0.00    +0.000 A 
ATOM     21  C   UNL     1       2.806   3.524  19.249  0.00  0.00    +0.000 A 
ATOM     22  C   UNL     1       2.070   4.704  19.495  0.00  0.00    +0.000 A 
ATOM     23  H   UNL     1       5.595   2.089  18.740  0.00  0.00    +0.000 HD
ENDBRANCH   8  14
BRANCH  13  24
ATOM     24  C   UNL     1       1.166  14.573  19.698  0.00  0.00    +0.000 C 
BRANCH  24  25
ATOM     25  C   UNL     1       0.900  15.815  18.846  0.00  0.00    +0.000 A 
ATOM     26  C   UNL     1      -0.383  16.342  18.650  0.00  0.00    +0.000 A 
ATOM     27  C   UNL     1      -0.592  17.467  17.842  0.00  0.00    +0.000 A 
ATOM     28  C   UNL     1       0.490  18.131  17.259  0.00  0.00    +0.000 A 
ATOM     29  C   UNL     1       1.777  17.659  17.493  0.00  0.00    +0.000 A 
ATOM     30  C   UNL     1       1.983  16.509  18.265  0.00  0.00    +0.000 A 
ENDBRANCH  24  25
ENDBRANCH  13  24
TORSDOF 3
ENDMDL
MODEL 2
REMARK VINA RESULT:      -8.1      1.055      1.394
REMARK  Name = 
REMARK  5 active torsions:
REMARK  status: ('A' for Active; 'I' for Inactive)
REMARK    1  A    between atoms: C_1  and  C_2
REMARK    2  A    between atoms: C_8  and  C_9
REMARK    3  A    between atoms: N_18  and  C_19
REMARK    4  A    between atoms: N_22  and  C_23
REMARK    5  A    between atoms: C_23  and  C_24
REMARK                            x       y       z     vdW  Elec       q    Type
REMARK                         _______ _______ _______ _____ _____    ______ ____
ROOT
ATOM      1  C   UNL     1       0.703  12.962  20.946  0.00  0.00    +0.000 C 
ATOM      2  C   UNL     1       0.292  13.118  19.469  0.00  0.00    +0.000 C 
ATOM      3  C   UNL     1      -0.176  11.746  18.900  0.00  0.00    +0.000 C 
ATOM      4  N   UNL     1       0.941  10.823  18.641  0.00  0.00    +0.000 N 
ATOM      5  C   UNL     1       1.145   9.781  19.475  0.00  0.00    +0.000 A 
ATOM      6  N   UNL     1       0.781   9.614  20.740  0.00  0.00    +0.000 NA
ATOM      7  N   UNL     1       1.143   8.347  21.137  0.00  0.00    +0.000 NA
ATOM      8  C   UNL     1       1.705   7.724  20.109  0.00  0.00    +0.000 A 
ATOM      9  N   UNL     1       1.695   8.594  19.043  0.00  0.00    +0.000 N 
ATOM     10  C   UNL     1       2.162   8.362  17.697  0.00  0.00    +0.000 C 
ATOM     11  C   UNL     1       2.083  11.443  17.944  0.00  0.00    +0.000 C 
ATOM     12  C   UNL     1       2.466  12.836  18.473  0.00  0.00    +0.000 C 
ATOM     13  N   UNL     1       1.327  13.761  18.587  0.00  0.00    +0.000 NA
ENDROOT
BRANCH   8  14
ATOM     14  C   UNL     1       2.202   6.351  20.110  0.00  0.00    +0.000 A 
ATOM     15  C   UNL     1       1.486   5.312  20.727  0.00  0.00    +0.000 A 
ATOM     16  N   UNL     1       1.873   4.028  20.904  0.00  0.00    +0.000 NA
ATOM     17  C   UNL     1       3.043   3.782  20.318  0.00  0.00    +0.000 A 
ATOM     18  N   UNL     1       3.694   2.582  20.289  0.00  0.00    +0.000 N 
ATOM     19  N   UNL     1       4.853   2.608  19.608  0.00  0.00    +0.000 NA
ATOM     20  C   UNL     1       4.933   3.879  19.190  0.00  0.00    +0.000 A 
ATOM     21  C   UNL     1       3.841   4.662  19.605  0.00  0.00    +0.000 A 
ATOM     22  C   UNL     1       3.407   6.001  19.488  0.00  0.00    +0.000 A 
ATOM     23  H   UNL     1       3.384   1.720  20.714  0.00  0.00    +0.000 HD
ENDBRANCH   8  14
BRANCH  13  24
ATOM     24  C   UNL     1       1.758  15.094  19.065  0.00  0.00    +0.000 C 
BRANCH  24  25
ATOM     25  C   UNL     1       1.099  16.299  18.391  0.00  0.00    +0.000 A 
ATOM     26  C   UNL     1      -0.259  16.608  18.546  0.00  0.00    +0.000 A 
ATOM     27  C   UNL     1      -0.835  17.705  17.894  0.00  0.00    +0.000 A 
ATOM     28  C   UNL     1      -0.048  18.559  17.116  0.00  0.00    +0.000 A 
ATOM     29  C   UNL     1       1.314  18.304  17.001  0.00  0.00    +0.000 A 
ATOM     30  C   UNL     1       1.882  17.182  17.618  0.00  0.00    +0.000 A 
ENDBRANCH  24  25
ENDBRANCH  13  24
TORSDOF 3
ENDMDL
MODEL 3
REMARK VINA RESULT:      -7.9      2.871      4.363
REMARK  Name = 
REMARK  5 active torsions:
REMARK  status: ('A' for Active; 'I' for Inactive)
REMARK    1  A    between atoms: C_1  and  C_2
REMARK    2  A    between atoms: C_8  and  C_9
REMARK    3  A    between atoms: N_18  and  C_19
REMARK    4  A    between atoms: N_22  and  C_23
REMARK    5  A    between atoms: C_23  and  C_24
REMARK                            x       y       z     vdW  Elec       q    Type
REMARK                         _______ _______ _______ _____ _____    ______ ____
ROOT
ATOM      1  C   UNL     1      -0.650  12.462  18.290  0.00  0.00    +0.000 C 
ATOM      2  C   UNL     1      -0.291  12.709  19.768  0.00  0.00    +0.000 C 
ATOM      3  C   UNL     1       1.038  11.979  20.121  0.00  0.00    +0.000 C 
ATOM      4  N   UNL     1       0.873  10.523  20.257  0.00  0.00    +0.000 N 
ATOM      5  C   UNL     1       1.333   9.711  19.281  0.00  0.00    +0.000 A 
ATOM      6  N   UNL     1       1.571   9.964  18.000  0.00  0.00    +0.000 NA
ATOM      7  N   UNL     1       2.116   8.838  17.425  0.00  0.00    +0.000 NA
ATOM      8  C   UNL     1       2.239   7.902  18.357  0.00  0.00    +0.000 A 
ATOM      9  N   UNL     1       1.779   8.434  19.540  0.00  0.00    +0.000 N 
ATOM     10  C   UNL     1       1.743   7.814  20.843  0.00  0.00    +0.000 C 
ATOM     11  C   UNL     1      -0.302  10.123  21.054  0.00  0.00    +0.000 C 
ATOM     12  C   UNL     1      -1.579  10.923  20.741  0.00  0.00    +0.000 C 
ATOM     13  N   UNL     1      -1.382  12.381  20.750  0.00  0.00    +0.000 NA
ENDROOT
BRANCH   8  14
ATOM     14  C   UNL     1       2.801   6.568  18.161  0.00  0.00    +0.000 A 
ATOM     15  C   UNL     1       4.159   6.383  17.851  0.00  0.00    +0.000 A 
ATOM     16  N   UNL     1       4.788   5.228  17.533  0.00  0.00    +0.000 NA
ATOM     17  C   UNL     1       3.971   4.181  17.634  0.00  0.00    +0.000 A 
ATOM     18  N   UNL     1       4.304   2.876  17.408  0.00  0.00    +0.000 N 
ATOM     19  N   UNL     1       3.290   2.014  17.602  0.00  0.00    +0.000 NA
ATOM     20  C   UNL     1       2.277   2.813  17.968  0.00  0.00    +0.000 A 
ATOM     21  C   UNL     1       2.635   4.172  18.000  0.00  0.00    +0.000 A 
ATOM     22  C   UNL     1       2.020   5.412  18.280  0.00  0.00    +0.000 A 
ATOM     23  H   UNL     1       5.209   2.526  17.126  0.00  0.00    +0.000 HD
ENDBRANCH   8  14
BRANCH  13  24
ATOM     24  C   UNL     1      -2.648  13.099  20.480  0.00  0.00    +0.000 C 
BRANCH  24  25
ATOM     25  C   UNL     1      -3.703  13.047  21.587  0.00  0.00    +0.000 A 
ATOM     26  C   UNL     1      -5.071  12.886  21.327  0.00  0.00    +0.000 A 
ATOM     27  C   UNL     1      -6.011  12.868  22.364  0.00  0.00    +0.000 A 
ATOM     28  C   UNL     1      -5.598  12.947  23.697  0.00  0.00    +0.000 A 
ATOM     29  C   UNL     1      -4.239  13.044  23.977  0.00  0.00    +0.000 A 
ATOM     30  C   UNL     1      -3.302  13.107  22.939  0.00  0.00    +0.000 A 
ENDBRANCH  24  25
ENDBRANCH  13  24
TORSDOF 3
ENDMDL
MODEL 4
REMARK VINA RESULT:      -7.7      0.641      1.208
REMARK  Name = 
REMARK  5 active torsions:
REMARK  status: ('A' for Active; 'I' for Inactive)
REMARK    1  A    between atoms: C_1  and  C_2
REMARK    2  A    between atoms: C_8  and  C_9
REMARK    3  A    between atoms: N_18  and  C_19
REMARK    4  A    between atoms: N_22  and  C_23
REMARK    5  A    between atoms: C_23  and  C_24
REMARK                            x       y       z     vdW  Elec       q    Type
REMARK                         _______ _______ _______ _____ _____    ______ ____
ROOT
ATOM      1  C   UNL     1       0.247  12.118  21.338  0.00  0.00    +0.000 C 
ATOM      2  C   UNL     1      -0.139  12.437  19.881  0.00  0.00    +0.000 C 
ATOM      3  C   UNL     1      -0.379  11.115  19.093  0.00  0.00    +0.000 C 
ATOM      4  N   UNL     1       0.871  10.413  18.759  0.00  0.00    +0.000 N 
ATOM      5  C   UNL     1       1.204   9.296  19.441  0.00  0.00    +0.000 A 
ATOM      6  N   UNL     1       0.833   8.888  20.647  0.00  0.00    +0.000 NA
ATOM      7  N   UNL     1       1.369   7.641  20.873  0.00  0.00    +0.000 NA
ATOM      8  C   UNL     1       2.048   7.268  19.795  0.00  0.00    +0.000 A 
ATOM      9  N   UNL     1       1.938   8.280  18.869  0.00  0.00    +0.000 N 
ATOM     10  C   UNL     1       2.474   8.326  17.529  0.00  0.00    +0.000 C 
ATOM     11  C   UNL     1       1.927  11.289  18.220  0.00  0.00    +0.000 C 
ATOM     12  C   UNL     1       2.081  12.626  18.967  0.00  0.00    +0.000 C 
ATOM     13  N   UNL     1       0.813  13.349  19.156  0.00  0.00    +0.000 NA
ENDROOT
BRANCH   8  14
ATOM     14  C   UNL     1       2.745   5.997  19.620  0.00  0.00    +0.000 A 
ATOM     15  C   UNL     1       4.144   5.937  19.514  0.00  0.00    +0.000 A 
ATOM     16  N   UNL     1       4.911   4.857  19.239  0.00  0.00    +0.000 NA
ATOM     17  C   UNL     1       4.181   3.745  19.159  0.00  0.00    +0.000 A 
ATOM     18  N   UNL     1       4.654   2.487  18.920  0.00  0.00    +0.000 N 
ATOM     19  N   UNL     1       3.700   1.539  18.912  0.00  0.00    +0.000 NA
ATOM     20  C   UNL     1       2.579   2.232  19.158  0.00  0.00    +0.000 A 
ATOM     21  C   UNL     1       2.811   3.611  19.313  0.00  0.00    +0.000 A 
ATOM     22  C   UNL     1       2.056   4.779  19.559  0.00  0.00    +0.000 A 
ATOM     23  H   UNL     1       5.617   2.226  18.763  0.00  0.00    +0.000 HD
ENDBRANCH   8  14
BRANCH  13  24
ATOM     24  C   UNL     1       1.026  14.642  19.846  0.00  0.00    +0.000 C 
BRANCH  24  25
ATOM     25  C   UNL     1       0.087  15.782  19.448  0.00  0.00    +0.000 A 
ATOM     26  C   UNL     1       0.255  16.531  18.276  0.00  0.00    +0.000 A 
ATOM     27  C   UNL     1      -0.610  17.584  17.955  0.00  0.00    +0.000 A 
ATOM     28  C   UNL     1      -1.706  17.875  18.772  0.00  0.00    +0.000 A 
ATOM     29  C   UNL     1      -1.925  17.102  19.907  0.00  0.00    +0.000 A 
ATOM     30  C   UNL     1      -1.035  16.077  20.251  0.00  0.00    +0.000 A 
ENDBRANCH  24  25
ENDBRANCH  13  24
TORSDOF 3
ENDMDL
MODEL 5
REMARK VINA RESULT:      -7.7      2.658      4.238
REMARK  Name = 
REMARK  5 active torsions:
REMARK  status: ('A' for Active; 'I' for Inactive)
REMARK    1  A    between atoms: C_1  and  C_2
REMARK    2  A    between atoms: C_8  and  C_9
REMARK    3  A    between atoms: N_18  and  C_19
REMARK    4  A    between atoms: N_22  and  C_23
REMARK    5  A    between atoms: C_23  and  C_24
REMARK                            x       y       z     vdW  Elec       q    Type
REMARK                         _______ _______ _______ _____ _____    ______ ____
ROOT
ATOM      1  C   UNL     1      -0.409  12.686  18.164  0.00  0.00    +0.000 C 
ATOM      2  C   UNL     1      -0.174  12.888  19.674  0.00  0.00    +0.000 C 
ATOM      3  C   UNL     1       1.081  12.087  20.129  0.00  0.00    +0.000 C 
ATOM      4  N   UNL     1       0.834  10.638  20.216  0.00  0.00    +0.000 N 
ATOM      5  C   UNL     1       1.342   9.823  19.267  0.00  0.00    +0.000 A 
ATOM      6  N   UNL     1       1.707  10.087  18.019  0.00  0.00    +0.000 NA
ATOM      7  N   UNL     1       2.248   8.947  17.470  0.00  0.00    +0.000 NA
ATOM      8  C   UNL     1       2.241   7.988  18.387  0.00  0.00    +0.000 A 
ATOM      9  N   UNL     1       1.701   8.520  19.535  0.00  0.00    +0.000 N 
ATOM     10  C   UNL     1       1.517   7.879  20.816  0.00  0.00    +0.000 C 
ATOM     11  C   UNL     1      -0.426  10.283  20.894  0.00  0.00    +0.000 C 
ATOM     12  C   UNL     1      -1.630  11.150  20.487  0.00  0.00    +0.000 C 
ATOM     13  N   UNL     1      -1.365  12.597  20.546  0.00  0.00    +0.000 NA
ENDROOT
BRANCH   8  14
ATOM     14  C   UNL     1       2.754   6.632  18.211  0.00  0.00    +0.000 A 
ATOM     15  C   UNL     1       4.117   6.389  17.972  0.00  0.00    +0.000 A 
ATOM     16  N   UNL     1       4.711   5.210  17.681  0.00  0.00    +0.000 NA
ATOM     17  C   UNL     1       3.846   4.198  17.731  0.00  0.00    +0.000 A 
ATOM     18  N   UNL     1       4.133   2.881  17.514  0.00  0.00    +0.000 N 
ATOM     19  N   UNL     1       3.073   2.064  17.650  0.00  0.00    +0.000 NA
ATOM     20  C   UNL     1       2.078   2.904  17.967  0.00  0.00    +0.000 A 
ATOM     21  C   UNL     1       2.493   4.247  18.026  0.00  0.00    +0.000 A 
ATOM     22  C   UNL     1       1.918   5.511  18.282  0.00  0.00    +0.000 A 
ATOM     23  H   UNL     1       5.035   2.493  17.277  0.00  0.00    +0.000 HD
ENDBRANCH   8  14
BRANCH  13  24
ATOM     24  C   UNL     1      -2.566  13.382  20.180  0.00  0.00    +0.000 C 
BRANCH  24  25
ATOM     25  C   UNL     1      -3.829  12.577  19.869  0.00  0.00    +0.000 A 
ATOM     26  C   UNL     1      -4.939  12.544  20.723  0.00  0.00    +0.000 A 
ATOM     27  C   UNL     1      -6.069  11.776  20.419  0.00  0.00    +0.000 A 
ATOM     28  C   UNL     1      -6.141  11.069  19.215  0.00  0.00    +0.000 A 
ATOM     29  C   UNL     1      -5.075  11.140  18.326  0.00  0.00    +0.000 A 
ATOM     30  C   UNL     1      -3.927  11.872  18.650  0.00  0.00    +0.000 A 
ENDBRANCH  24  25
ENDBRANCH  13  24
TORSDOF 3
ENDMDL
MODEL 6
REMARK VINA RESULT:      -7.6      3.149      4.882
REMARK  Name = 
REMARK  5 active torsions:
REMARK  status: ('A' for Active; 'I' for Inactive)
REMARK    1  A    between atoms: C_1  and  C_2
REMARK    2  A    between atoms: C_8  and  C_9
REMARK    3  A    between atoms: N_18  and  C_19
REMARK    4  A    between atoms: N_22  and  C_23
REMARK    5  A    between atoms: C_23  and  C_24
REMARK                            x       y       z     vdW  Elec       q    Type
REMARK                         _______ _______ _______ _____ _____    ______ ____
ROOT
ATOM      1  C   UNL     1      -0.655  12.633  18.733  0.00  0.00    +0.000 C 
ATOM      2  C   UNL     1      -0.329  12.666  20.239  0.00  0.00    +0.000 C 
ATOM      3  C   UNL     1       1.018  11.933  20.508  0.00  0.00    +0.000 C 
ATOM      4  N   UNL     1       0.900  10.468  20.420  0.00  0.00    +0.000 N 
ATOM      5  C   UNL     1       1.403   9.827  19.343  0.00  0.00    +0.000 A 
ATOM      6  N   UNL     1       1.654  10.277  18.121  0.00  0.00    +0.000 NA
ATOM      7  N   UNL     1       2.247   9.269  17.395  0.00  0.00    +0.000 NA
ATOM      8  C   UNL     1       2.386   8.207  18.178  0.00  0.00    +0.000 A 
ATOM      9  N   UNL     1       1.889   8.540  19.417  0.00  0.00    +0.000 N 
ATOM     10  C   UNL     1       1.852   7.730  20.612  0.00  0.00    +0.000 C 
ATOM     11  C   UNL     1      -0.274   9.916  21.122  0.00  0.00    +0.000 C 
ATOM     12  C   UNL     1      -1.573  10.714  20.905  0.00  0.00    +0.000 C 
ATOM     13  N   UNL     1      -1.425  12.160  21.137  0.00  0.00    +0.000 NA
ENDROOT
BRANCH   8  14
ATOM     14  C   UNL     1       2.996   6.936  17.797  0.00  0.00    +0.000 A 
ATOM     15  C   UNL     1       2.387   5.708  18.105  0.00  0.00    +0.000 A 
ATOM     16  N   UNL     1       2.885   4.464  17.918  0.00  0.00    +0.000 NA
ATOM     17  C   UNL     1       4.055   4.494  17.282  0.00  0.00    +0.000 A 
ATOM     18  N   UNL     1       4.802   3.410  16.920  0.00  0.00    +0.000 N 
ATOM     19  N   UNL     1       5.936   3.725  16.268  0.00  0.00    +0.000 NA
ATOM     20  C   UNL     1       5.898   5.064  16.218  0.00  0.00    +0.000 A 
ATOM     21  C   UNL     1       4.756   5.603  16.838  0.00  0.00    +0.000 A 
ATOM     22  C   UNL     1       4.209   6.879  17.098  0.00  0.00    +0.000 A 
ATOM     23  H   UNL     1       4.577   2.441  17.090  0.00  0.00    +0.000 HD
ENDBRANCH   8  14
BRANCH  13  24
ATOM     24  C   UNL     1      -2.711  12.871  20.950  0.00  0.00    +0.000 C 
BRANCH  24  25
ATOM     25  C   UNL     1      -3.693  12.807  22.121  0.00  0.00    +0.000 A 
ATOM     26  C   UNL     1      -3.285  12.596  23.445  0.00  0.00    +0.000 A 
ATOM     27  C   UNL     1      -4.215  12.519  24.489  0.00  0.00    +0.000 A 
ATOM     28  C   UNL     1      -5.576  12.715  24.241  0.00  0.00    +0.000 A 
ATOM     29  C   UNL     1      -5.993  12.988  22.943  0.00  0.00    +0.000 A 
ATOM     30  C   UNL     1      -5.069  13.021  21.892  0.00  0.00    +0.000 A 
ENDBRANCH  24  25
ENDBRANCH  13  24
TORSDOF 3
ENDMDL
MODEL 7
REMARK VINA RESULT:      -7.5      1.151      1.631
REMARK  Name = 
REMARK  5 active torsions:
REMARK  status: ('A' for Active; 'I' for Inactive)
REMARK    1  A    between atoms: C_1  and  C_2
REMARK    2  A    between atoms: C_8  and  C_9
REMARK    3  A    between atoms: N_18  and  C_19
REMARK    4  A    between atoms: N_22  and  C_23
REMARK    5  A    between atoms: C_23  and  C_24
REMARK                            x       y       z     vdW  Elec       q    Type
REMARK                         _______ _______ _______ _____ _____    ______ ____
ROOT
ATOM      1  C   UNL     1       0.364  11.987  21.411  0.00  0.00    +0.000 C 
ATOM      2  C   UNL     1      -0.045  12.334  19.967  0.00  0.00    +0.000 C 
ATOM      3  C   UNL     1      -0.323  11.029  19.164  0.00  0.00    +0.000 C 
ATOM      4  N   UNL     1       0.908  10.311  18.795  0.00  0.00    +0.000 N 
ATOM      5  C   UNL     1       1.235   9.178  19.453  0.00  0.00    +0.000 A 
ATOM      6  N   UNL     1       0.880   8.758  20.660  0.00  0.00    +0.000 NA
ATOM      7  N   UNL     1       1.399   7.498  20.856  0.00  0.00    +0.000 NA
ATOM      8  C   UNL     1       2.050   7.131  19.760  0.00  0.00    +0.000 A 
ATOM      9  N   UNL     1       1.940   8.159  18.851  0.00  0.00    +0.000 N 
ATOM     10  C   UNL     1       2.451   8.216  17.502  0.00  0.00    +0.000 C 
ATOM     11  C   UNL     1       1.968  11.178  18.249  0.00  0.00    +0.000 C 
ATOM     12  C   UNL     1       2.160  12.500  19.013  0.00  0.00    +0.000 C 
ATOM     13  N   UNL     1       0.909  13.242  19.237  0.00  0.00    +0.000 NA
ENDROOT
BRANCH   8  14
ATOM     14  C   UNL     1       2.722   5.852  19.552  0.00  0.00    +0.000 A 
ATOM     15  C   UNL     1       4.123   5.751  19.548  0.00  0.00    +0.000 A 
ATOM     16  N   UNL     1       4.877   4.666  19.258  0.00  0.00    +0.000 NA
ATOM     17  C   UNL     1       4.124   3.587  19.048  0.00  0.00    +0.000 A 
ATOM     18  N   UNL     1       4.578   2.332  18.761  0.00  0.00    +0.000 N 
ATOM     19  N   UNL     1       3.599   1.420  18.618  0.00  0.00    +0.000 NA
ATOM     20  C   UNL     1       2.484   2.133  18.824  0.00  0.00    +0.000 A 
ATOM     21  C   UNL     1       2.743   3.489  19.090  0.00  0.00    +0.000 A 
ATOM     22  C   UNL     1       2.005   4.664  19.357  0.00  0.00    +0.000 A 
ATOM     23  H   UNL     1       5.542   2.049  18.660  0.00  0.00    +0.000 HD
ENDBRANCH   8  14
BRANCH  13  24
ATOM     24  C   UNL     1       1.157  14.519  19.943  0.00  0.00    +0.000 C 
BRANCH  24  25
ATOM     25  C   UNL     1       2.391  15.306  19.499  0.00  0.00    +0.000 A 
ATOM     26  C   UNL     1       2.521  15.858  18.218  0.00  0.00    +0.000 A 
ATOM     27  C   UNL     1       3.676  16.552  17.837  0.00  0.00    +0.000 A 
ATOM     28  C   UNL     1       4.708  16.765  18.755  0.00  0.00    +0.000 A 
ATOM     29  C   UNL     1       4.570  16.279  20.051  0.00  0.00    +0.000 A 
ATOM     30  C   UNL     1       3.434  15.548  20.418  0.00  0.00    +0.000 A 
ENDBRANCH  24  25
ENDBRANCH  13  24
TORSDOF 3
ENDMDL
MODEL 8
REMARK VINA RESULT:      -7.5      3.060      4.172
REMARK  Name = 
REMARK  5 active torsions:
REMARK  status: ('A' for Active; 'I' for Inactive)
REMARK    1  A    between atoms: C_1  and  C_2
REMARK    2  A    between atoms: C_8  and  C_9
REMARK    3  A    between atoms: N_18  and  C_19
REMARK    4  A    between atoms: N_22  and  C_23
REMARK    5  A    between atoms: C_23  and  C_24
REMARK                            x       y       z     vdW  Elec       q    Type
REMARK                         _______ _______ _______ _____ _____    ______ ____
ROOT
ATOM      1  C   UNL     1      -0.002   9.999  22.728  0.00  0.00    +0.000 C 
ATOM      2  C   UNL     1      -0.767  10.701  21.589  0.00  0.00    +0.000 C 
ATOM      3  C   UNL     1      -0.813   9.781  20.334  0.00  0.00    +0.000 C 
ATOM      4  N   UNL     1       0.475   9.720  19.622  0.00  0.00    +0.000 N 
ATOM      5  C   UNL     1       1.234   8.608  19.725  0.00  0.00    +0.000 A 
ATOM      6  N   UNL     1       1.257   7.672  20.665  0.00  0.00    +0.000 NA
ATOM      7  N   UNL     1       2.142   6.689  20.283  0.00  0.00    +0.000 NA
ATOM      8  C   UNL     1       2.643   7.006  19.096  0.00  0.00    +0.000 A 
ATOM      9  N   UNL     1       2.069   8.194  18.710  0.00  0.00    +0.000 N 
ATOM     10  C   UNL     1       2.267   8.924  17.479  0.00  0.00    +0.000 C 
ATOM     11  C   UNL     1       1.115  11.033  19.424  0.00  0.00    +0.000 C 
ATOM     12  C   UNL     1       1.067  11.952  20.658  0.00  0.00    +0.000 C 
ATOM     13  N   UNL     1      -0.274  12.081  21.249  0.00  0.00    +0.000 NA
ENDROOT
BRANCH   8  14
ATOM     14  C   UNL     1       3.598   6.209  18.331  0.00  0.00    +0.000 A 
ATOM     15  C   UNL     1       3.288   4.907  17.900  0.00  0.00    +0.000 A 
ATOM     16  N   UNL     1       4.104   4.019  17.289  0.00  0.00    +0.000 NA
ATOM     17  C   UNL     1       5.296   4.550  17.022  0.00  0.00    +0.000 A 
ATOM     18  N   UNL     1       6.333   3.925  16.390  0.00  0.00    +0.000 N 
ATOM     19  N   UNL     1       7.419   4.702  16.230  0.00  0.00    +0.000 NA
ATOM     20  C   UNL     1       7.049   5.864  16.785  0.00  0.00    +0.000 A 
ATOM     21  C   UNL     1       5.741   5.832  17.303  0.00  0.00    +0.000 A 
ATOM     22  C   UNL     1       4.860   6.703  17.980  0.00  0.00    +0.000 A 
ATOM     23  H   UNL     1       6.343   2.976  16.045  0.00  0.00    +0.000 HD
ENDBRANCH   8  14
BRANCH  13  24
ATOM     24  C   UNL     1      -0.268  13.003  22.407  0.00  0.00    +0.000 C 
BRANCH  24  25
ATOM     25  C   UNL     1      -1.638  13.450  22.921  0.00  0.00    +0.000 A 
ATOM     26  C   UNL     1      -2.581  12.556  23.447  0.00  0.00    +0.000 A 
ATOM     27  C   UNL     1      -3.836  12.997  23.886  0.00  0.00    +0.000 A 
ATOM     28  C   UNL     1      -4.155  14.357  23.866  0.00  0.00    +0.000 A 
ATOM     29  C   UNL     1      -3.208  15.266  23.406  0.00  0.00    +0.000 A 
ATOM     30  C   UNL     1      -1.970  14.821  22.927  0.00  0.00    +0.000 A 
ENDBRANCH  24  25
ENDBRANCH  13  24
TORSDOF 3
ENDMDL
MODEL 9
REMARK VINA RESULT:      -7.3      1.287      1.785
REMARK  Name = 
REMARK  5 active torsions:
REMARK  status: ('A' for Active; 'I' for Inactive)
REMARK    1  A    between atoms: C_1  and  C_2
REMARK    2  A    between atoms: C_8  and  C_9
REMARK    3  A    between atoms: N_18  and  C_19
REMARK    4  A    between atoms: N_22  and  C_23
REMARK    5  A    between atoms: C_23  and  C_24
REMARK                            x       y       z     vdW  Elec       q    Type
REMARK                         _______ _______ _______ _____ _____    ______ ____
ROOT
ATOM      1  C   UNL     1       0.673  12.958  21.287  0.00  0.00    +0.000 C 
ATOM      2  C   UNL     1       0.208  13.163  19.832  0.00  0.00    +0.000 C 
ATOM      3  C   UNL     1      -0.270  11.808  19.231  0.00  0.00    +0.000 C 
ATOM      4  N   UNL     1       0.843  10.905  18.898  0.00  0.00    +0.000 N 
ATOM      5  C   UNL     1       1.085   9.835  19.687  0.00  0.00    +0.000 A 
ATOM      6  N   UNL     1       0.768   9.620  20.957  0.00  0.00    +0.000 NA
ATOM      7  N   UNL     1       1.154   8.343  21.295  0.00  0.00    +0.000 NA
ATOM      8  C   UNL     1       1.683   7.761  20.226  0.00  0.00    +0.000 A 
ATOM      9  N   UNL     1       1.627   8.669  19.193  0.00  0.00    +0.000 N 
ATOM     10  C   UNL     1       2.048   8.489  17.823  0.00  0.00    +0.000 C 
ATOM     11  C   UNL     1       1.955  11.558  18.184  0.00  0.00    +0.000 C 
ATOM     12  C   UNL     1       2.347  12.935  18.749  0.00  0.00    +0.000 C 
ATOM     13  N   UNL     1       1.206  13.846  18.936  0.00  0.00    +0.000 NA
ENDROOT
BRANCH   8  14
ATOM     14  C   UNL     1       2.189   6.394  20.159  0.00  0.00    +0.000 A 
ATOM     15  C   UNL     1       1.476   5.319  20.717  0.00  0.00    +0.000 A 
ATOM     16  N   UNL     1       1.870   4.030  20.830  0.00  0.00    +0.000 NA
ATOM     17  C   UNL     1       3.047   3.823  20.241  0.00  0.00    +0.000 A 
ATOM     18  N   UNL     1       3.705   2.630  20.155  0.00  0.00    +0.000 N 
ATOM     19  N   UNL     1       4.869   2.699  19.484  0.00  0.00    +0.000 NA
ATOM     20  C   UNL     1       4.943   3.990  19.132  0.00  0.00    +0.000 A 
ATOM     21  C   UNL     1       3.843   4.744  19.580  0.00  0.00    +0.000 A 
ATOM     22  C   UNL     1       3.401   6.084  19.529  0.00  0.00    +0.000 A 
ATOM     23  H   UNL     1       3.398   1.745  20.532  0.00  0.00    +0.000 HD
ENDBRANCH   8  14
BRANCH  13  24
ATOM     24  C   UNL     1       1.645  15.164  19.447  0.00  0.00    +0.000 C 
BRANCH  24  25
ATOM     25  C   UNL     1       0.564  16.242  19.549  0.00  0.00    +0.000 A 
ATOM     26  C   UNL     1       0.280  16.924  20.740  0.00  0.00    +0.000 A 
ATOM     27  C   UNL     1      -0.734  17.887  20.803  0.00  0.00    +0.000 A 
ATOM     28  C   UNL     1      -1.450  18.238  19.655  0.00  0.00    +0.000 A 
ATOM     29  C   UNL     1      -1.140  17.617  18.450  0.00  0.00    +0.000 A 
ATOM     30  C   UNL     1      -0.156  16.622  18.396  0.00  0.00    +0.000 A 
ENDBRANCH  24  25
ENDBRANCH  13  24
TORSDOF 3
ENDMDL
