MODEL 1
REMARK VINA RESULT:      -9.2      0.000      0.000
REMARK  Name = 
REMARK  5 active torsions:
REMARK  status: ('A' for Active; 'I' for Inactive)
REMARK    1  A    between atoms: C_1  and  S_2
REMARK    2  A    between atoms: S_2  and  C_5
REMARK    3  A    between atoms: C_7  and  C_8
REMARK    4  A    between atoms: N_10  and  C_11
REMARK    5  A    between atoms: C_14  and  C_15
REMARK                            x       y       z     vdW  Elec       q    Type
REMARK                         _______ _______ _______ _____ _____    ______ ____
ROOT
ATOM      1  C   UNL     1       1.296   8.618  20.508  0.00  0.00    +0.000 A 
ATOM      2  C   UNL     1       0.708   9.672  19.801  0.00  0.00    +0.000 A 
ATOM      3  C   UNL     1       0.010  10.697  20.461  0.00  0.00    +0.000 A 
ATOM      4  C   UNL     1      -0.126  10.704  21.849  0.00  0.00    +0.000 A 
ATOM      5  C   UNL     1       0.444   9.631  22.558  0.00  0.00    +0.000 A 
ATOM      6  C   UNL     1       1.134   8.596  21.895  0.00  0.00    +0.000 A 
ENDROOT
BRANCH   4   7
ATOM      7  C   UNL     1      -0.834  11.814  22.515  0.00  0.00    +0.000 A 
ATOM      8  N   UNL     1      -0.320  12.977  22.892  0.00  0.00    +0.000 NA
ATOM      9  C   UNL     1      -1.338  13.671  23.515  0.00  0.00    +0.000 A 
ATOM     10  C   UNL     1      -1.352  14.943  24.113  0.00  0.00    +0.000 A 
ATOM     11  C   UNL     1      -2.541  15.397  24.706  0.00  0.00    +0.000 A 
ATOM     12  C   UNL     1      -3.694  14.606  24.701  0.00  0.00    +0.000 A 
ATOM     13  C   UNL     1      -3.703  13.347  24.096  0.00  0.00    +0.000 A 
ATOM     14  C   UNL     1      -2.505  12.922  23.517  0.00  0.00    +0.000 A 
ATOM     15  N   UNL     1      -2.166  11.771  22.860  0.00  0.00    +0.000 N 
ATOM     16  H   UNL     1      -2.791  11.004  22.684  0.00  0.00    +0.000 HD
ENDBRANCH   4   7
BRANCH   1  19
ATOM     17  C   UNL     1       2.563   7.628  18.604  0.00  0.00    +0.000 C 
ATOM     18  O   UNL     1       2.556   8.616  17.876  0.00  0.00    +0.000 OA
ATOM     19  N   UNL     1       2.029   7.570  19.886  0.00  0.00    +0.000 N 
ATOM     20  H   UNL     1       2.192   6.747  20.449  0.00  0.00    +0.000 HD
BRANCH  17  23
ATOM     21  C   UNL     1       5.292   5.357  17.323  0.00  0.00    +0.000 A 
ATOM     22  C   UNL     1       4.596   6.472  17.797  0.00  0.00    +0.000 A 
ATOM     23  C   UNL     1       3.209   6.401  18.041  0.00  0.00    +0.000 A 
ATOM     24  C   UNL     1       2.538   5.191  17.812  0.00  0.00    +0.000 A 
ATOM     25  C   UNL     1       3.251   4.081  17.329  0.00  0.00    +0.000 A 
ATOM     26  C   UNL     1       4.619   4.171  17.083  0.00  0.00    +0.000 A 
ATOM     27  F   UNL     1       5.266   3.086  16.637  0.00  0.00    +0.000 F 
BRANCH  21  29
ATOM     28  C   UNL     1       7.516   7.073  17.545  0.00  0.00    +0.000 C 
ATOM     29  S   UNL     1       7.028   5.453  17.011  0.00  0.00    +0.000 S 
ATOM     30  O   UNL     1       7.210   5.415  15.573  0.00  0.00    +0.000 OA
ATOM     31  O   UNL     1       7.668   4.467  17.859  0.00  0.00    +0.000 OA
ENDBRANCH  21  29
ENDBRANCH  17  23
ENDBRANCH   1  19
TORSDOF 4
ENDMDL
MODEL 2
REMARK VINA RESULT:      -9.1      0.996      1.351
REMARK  Name = 
REMARK  5 active torsions:
REMARK  status: ('A' for Active; 'I' for Inactive)
REMARK    1  A    between atoms: C_1  and  S_2
REMARK    2  A    between atoms: S_2  and  C_5
REMARK    3  A    between atoms: C_7  and  C_8
REMARK    4  A    between atoms: N_10  and  C_11
REMARK    5  A    between atoms: C_14  and  C_15
REMARK                            x       y       z     vdW  Elec       q    Type
REMARK                         _______ _______ _______ _____ _____    ______ ____
ROOT
ATOM      1  C   UNL     1       1.559   8.644  19.559  0.00  0.00    +0.000 A 
ATOM      2  C   UNL     1       1.383   8.518  20.942  0.00  0.00    +0.000 A 
ATOM      3  C   UNL     1       0.711   9.500  21.687  0.00  0.00    +0.000 A 
ATOM      4  C   UNL     1       0.190  10.643  21.078  0.00  0.00    +0.000 A 
ATOM      5  C   UNL     1       0.389  10.781  19.693  0.00  0.00    +0.000 A 
ATOM      6  C   UNL     1       1.074   9.802  18.946  0.00  0.00    +0.000 A 
ENDROOT
BRANCH   4   7
ATOM      7  C   UNL     1      -0.543  11.638  21.883  0.00  0.00    +0.000 A 
ATOM      8  N   UNL     1      -0.100  12.818  22.292  0.00  0.00    +0.000 NA
ATOM      9  C   UNL     1      -1.109  13.374  23.054  0.00  0.00    +0.000 A 
ATOM     10  C   UNL     1      -1.176  14.599  23.738  0.00  0.00    +0.000 A 
ATOM     11  C   UNL     1      -2.337  14.901  24.469  0.00  0.00    +0.000 A 
ATOM     12  C   UNL     1      -3.411  14.007  24.514  0.00  0.00    +0.000 A 
ATOM     13  C   UNL     1      -3.368  12.792  23.826  0.00  0.00    +0.000 A 
ATOM     14  C   UNL     1      -2.199  12.519  23.110  0.00  0.00    +0.000 A 
ATOM     15  N   UNL     1      -1.826  11.448  22.345  0.00  0.00    +0.000 N 
ATOM     16  H   UNL     1      -2.396  10.637  22.174  0.00  0.00    +0.000 HD
ENDBRANCH   4   7
BRANCH   1  19
ATOM     17  C   UNL     1       2.544   6.387  19.186  0.00  0.00    +0.000 C 
ATOM     18  O   UNL     1       2.234   5.895  20.266  0.00  0.00    +0.000 OA
ATOM     19  N   UNL     1       2.215   7.667  18.760  0.00  0.00    +0.000 N 
ATOM     20  H   UNL     1       2.414   7.935  17.806  0.00  0.00    +0.000 HD
BRANCH  17  23
ATOM     21  C   UNL     1       5.532   5.037  17.314  0.00  0.00    +0.000 A 
ATOM     22  C   UNL     1       4.702   5.832  18.108  0.00  0.00    +0.000 A 
ATOM     23  C   UNL     1       3.339   5.509  18.269  0.00  0.00    +0.000 A 
ATOM     24  C   UNL     1       2.828   4.370  17.630  0.00  0.00    +0.000 A 
ATOM     25  C   UNL     1       3.674   3.584  16.830  0.00  0.00    +0.000 A 
ATOM     26  C   UNL     1       5.016   3.923  16.672  0.00  0.00    +0.000 A 
ATOM     27  F   UNL     1       5.794   3.140  15.914  0.00  0.00    +0.000 F 
BRANCH  21  29
ATOM     28  C   UNL     1       7.471   6.956  18.017  0.00  0.00    +0.000 C 
ATOM     29  S   UNL     1       7.236   5.450  17.109  0.00  0.00    +0.000 S 
ATOM     30  O   UNL     1       7.436   5.770  15.708  0.00  0.00    +0.000 OA
ATOM     31  O   UNL     1       8.008   4.397  17.739  0.00  0.00    +0.000 OA
ENDBRANCH  21  29
ENDBRANCH  17  23
ENDBRANCH   1  19
TORSDOF 4
ENDMDL
MODEL 3
REMARK VINA RESULT:      -9.0      0.216      1.083
REMARK  Name = 
REMARK  5 active torsions:
REMARK  status: ('A' for Active; 'I' for Inactive)
REMARK    1  A    between atoms: C_1  and  S_2
REMARK    2  A    between atoms: S_2  and  C_5
REMARK    3  A    between atoms: C_7  and  C_8
REMARK    4  A    between atoms: N_10  and  C_11
REMARK    5  A    between atoms: C_14  and  C_15
REMARK                            x       y       z     vdW  Elec       q    Type
REMARK                         _______ _______ _______ _____ _____    ______ ____
ROOT
ATOM      1  C   UNL     1       1.195   8.576  20.536  0.00  0.00    +0.000 A 
ATOM      2  C   UNL     1       0.480   9.547  19.828  0.00  0.00    +0.000 A 
ATOM      3  C   UNL     1      -0.235  10.558  20.491  0.00  0.00    +0.000 A 
ATOM      4  C   UNL     1      -0.261  10.634  21.884  0.00  0.00    +0.000 A 
ATOM      5  C   UNL     1       0.438   9.642  22.596  0.00  0.00    +0.000 A 
ATOM      6  C   UNL     1       1.146   8.621  21.932  0.00  0.00    +0.000 A 
ENDROOT
BRANCH   4   7
ATOM      7  C   UNL     1      -0.991  11.730  22.549  0.00  0.00    +0.000 A 
ATOM      8  N   UNL     1      -2.192  11.666  23.107  0.00  0.00    +0.000 NA
ATOM      9  C   UNL     1      -2.485  12.940  23.553  0.00  0.00    +0.000 A 
ATOM     10  C   UNL     1      -3.621  13.447  24.205  0.00  0.00    +0.000 A 
ATOM     11  C   UNL     1      -3.662  14.814  24.525  0.00  0.00    +0.000 A 
ATOM     12  C   UNL     1      -2.594  15.658  24.208  0.00  0.00    +0.000 A 
ATOM     13  C   UNL     1      -1.450  15.168  23.575  0.00  0.00    +0.000 A 
ATOM     14  C   UNL     1      -1.440  13.805  23.268  0.00  0.00    +0.000 A 
ATOM     15  N   UNL     1      -0.504  13.012  22.661  0.00  0.00    +0.000 N 
ATOM     16  H   UNL     1       0.388  13.331  22.323  0.00  0.00    +0.000 HD
ENDBRANCH   4   7
BRANCH   1  19
ATOM     17  C   UNL     1       2.518   7.637  18.645  0.00  0.00    +0.000 C 
ATOM     18  O   UNL     1       2.526   8.642  17.940  0.00  0.00    +0.000 OA
ATOM     19  N   UNL     1       1.950   7.546  19.909  0.00  0.00    +0.000 N 
ATOM     20  H   UNL     1       2.102   6.710  20.456  0.00  0.00    +0.000 HD
BRANCH  17  23
ATOM     21  C   UNL     1       5.290   5.414  17.371  0.00  0.00    +0.000 A 
ATOM     22  C   UNL     1       4.576   6.513  17.854  0.00  0.00    +0.000 A 
ATOM     23  C   UNL     1       3.185   6.427  18.070  0.00  0.00    +0.000 A 
ATOM     24  C   UNL     1       2.529   5.216  17.804  0.00  0.00    +0.000 A 
ATOM     25  C   UNL     1       3.259   4.122  17.313  0.00  0.00    +0.000 A 
ATOM     26  C   UNL     1       4.631   4.227  17.095  0.00  0.00    +0.000 A 
ATOM     27  F   UNL     1       5.296   3.157  16.640  0.00  0.00    +0.000 F 
BRANCH  21  29
ATOM     28  C   UNL     1       7.488   7.157  17.633  0.00  0.00    +0.000 C 
ATOM     29  S   UNL     1       7.030   5.530  17.095  0.00  0.00    +0.000 S 
ATOM     30  O   UNL     1       7.243   5.489  15.660  0.00  0.00    +0.000 OA
ATOM     31  O   UNL     1       7.665   4.554  17.959  0.00  0.00    +0.000 OA
ENDBRANCH  21  29
ENDBRANCH  17  23
ENDBRANCH   1  19
TORSDOF 4
ENDMDL
MODEL 4
REMARK VINA RESULT:      -8.8      1.000      1.708
REMARK  Name = 
REMARK  5 active torsions:
REMARK  status: ('A' for Active; 'I' for Inactive)
REMARK    1  A    between atoms: C_1  and  S_2
REMARK    2  A    between atoms: S_2  and  C_5
REMARK    3  A    between atoms: C_7  and  C_8
REMARK    4  A    between atoms: N_10  and  C_11
REMARK    5  A    between atoms: C_14  and  C_15
REMARK                            x       y       z     vdW  Elec       q    Type
REMARK                         _______ _______ _______ _____ _____    ______ ____
ROOT
ATOM      1  C   UNL     1       1.487   8.555  19.689  0.00  0.00    +0.000 A 
ATOM      2  C   UNL     1       1.366   8.437  21.078  0.00  0.00    +0.000 A 
ATOM      3  C   UNL     1       0.680   9.399  21.837  0.00  0.00    +0.000 A 
ATOM      4  C   UNL     1       0.092  10.512  21.237  0.00  0.00    +0.000 A 
ATOM      5  C   UNL     1       0.234  10.643  19.843  0.00  0.00    +0.000 A 
ATOM      6  C   UNL     1       0.932   9.685  19.082  0.00  0.00    +0.000 A 
ENDROOT
BRANCH   4   7
ATOM      7  C   UNL     1      -0.654  11.486  22.058  0.00  0.00    +0.000 A 
ATOM      8  N   UNL     1      -1.797  11.281  22.697  0.00  0.00    +0.000 NA
ATOM      9  C   UNL     1      -2.138  12.484  23.284  0.00  0.00    +0.000 A 
ATOM     10  C   UNL     1      -3.248  12.842  24.067  0.00  0.00    +0.000 A 
ATOM     11  C   UNL     1      -3.356  14.168  24.518  0.00  0.00    +0.000 A 
ATOM     12  C   UNL     1      -2.378  15.116  24.202  0.00  0.00    +0.000 A 
ATOM     13  C   UNL     1      -1.260  14.773  23.439  0.00  0.00    +0.000 A 
ATOM     14  C   UNL     1      -1.182  13.448  23.003  0.00  0.00    +0.000 A 
ATOM     15  N   UNL     1      -0.248  12.786  22.253  0.00  0.00    +0.000 N 
ATOM     16  H   UNL     1       0.589  13.201  21.880  0.00  0.00    +0.000 HD
ENDBRANCH   4   7
BRANCH   1  19
ATOM     17  C   UNL     1       2.462   6.301  19.270  0.00  0.00    +0.000 C 
ATOM     18  O   UNL     1       2.121   5.779  20.328  0.00  0.00    +0.000 OA
ATOM     19  N   UNL     1       2.154   7.597  18.877  0.00  0.00    +0.000 N 
ATOM     20  H   UNL     1       2.379   7.891  17.936  0.00  0.00    +0.000 HD
BRANCH  17  23
ATOM     21  C   UNL     1       5.479   4.997  17.413  0.00  0.00    +0.000 A 
ATOM     22  C   UNL     1       4.636   5.774  18.211  0.00  0.00    +0.000 A 
ATOM     23  C   UNL     1       3.272   5.445  18.347  0.00  0.00    +0.000 A 
ATOM     24  C   UNL     1       2.773   4.317  17.678  0.00  0.00    +0.000 A 
ATOM     25  C   UNL     1       3.632   3.551  16.873  0.00  0.00    +0.000 A 
ATOM     26  C   UNL     1       4.975   3.895  16.741  0.00  0.00    +0.000 A 
ATOM     27  F   UNL     1       5.765   3.130  15.977  0.00  0.00    +0.000 F 
BRANCH  21  29
ATOM     28  C   UNL     1       7.368   6.990  18.042  0.00  0.00    +0.000 C 
ATOM     29  S   UNL     1       7.185   5.419  17.239  0.00  0.00    +0.000 S 
ATOM     30  O   UNL     1       7.433   5.639  15.827  0.00  0.00    +0.000 OA
ATOM     31  O   UNL     1       7.945   4.425  17.972  0.00  0.00    +0.000 OA
ENDBRANCH  21  29
ENDBRANCH  17  23
ENDBRANCH   1  19
TORSDOF 4
ENDMDL
MODEL 5
REMARK VINA RESULT:      -8.8      0.808      1.662
REMARK  Name = 
REMARK  5 active torsions:
REMARK  status: ('A' for Active; 'I' for Inactive)
REMARK    1  A    between atoms: C_1  and  S_2
REMARK    2  A    between atoms: S_2  and  C_5
REMARK    3  A    between atoms: C_7  and  C_8
REMARK    4  A    between atoms: N_10  and  C_11
REMARK    5  A    between atoms: C_14  and  C_15
REMARK                            x       y       z     vdW  Elec       q    Type
REMARK                         _______ _______ _______ _____ _____    ______ ____
ROOT
ATOM      1  C   UNL     1       1.111   8.736  20.670  0.00  0.00    +0.000 A 
ATOM      2  C   UNL     1       1.054   8.855  22.063  0.00  0.00    +0.000 A 
ATOM      3  C   UNL     1       0.330   9.888  22.680  0.00  0.00    +0.000 A 
ATOM      4  C   UNL     1      -0.362  10.838  21.928  0.00  0.00    +0.000 A 
ATOM      5  C   UNL     1      -0.285  10.732  20.528  0.00  0.00    +0.000 A 
ATOM      6  C   UNL     1       0.451   9.703  19.908  0.00  0.00    +0.000 A 
ENDROOT
BRANCH   4   7
ATOM      7  C   UNL     1      -1.144  11.889  22.607  0.00  0.00    +0.000 A 
ATOM      8  N   UNL     1      -2.372  11.783  23.093  0.00  0.00    +0.000 NA
ATOM      9  C   UNL     1      -2.708  13.028  23.587  0.00  0.00    +0.000 A 
ATOM     10  C   UNL     1      -3.886  13.487  24.200  0.00  0.00    +0.000 A 
ATOM     11  C   UNL     1      -3.965  14.835  24.586  0.00  0.00    +0.000 A 
ATOM     12  C   UNL     1      -2.893  15.707  24.373  0.00  0.00    +0.000 A 
ATOM     13  C   UNL     1      -1.709  15.264  23.781  0.00  0.00    +0.000 A 
ATOM     14  C   UNL     1      -1.662  13.919  23.405  0.00  0.00    +0.000 A 
ATOM     15  N   UNL     1      -0.683  13.170  22.811  0.00  0.00    +0.000 N 
ATOM     16  H   UNL     1       0.222  13.517  22.541  0.00  0.00    +0.000 HD
ENDBRANCH   4   7
BRANCH   1  19
ATOM     17  C   UNL     1       2.355   7.797  18.726  0.00  0.00    +0.000 C 
ATOM     18  O   UNL     1       2.385   8.818  18.046  0.00  0.00    +0.000 OA
ATOM     19  N   UNL     1       1.813   7.695  20.001  0.00  0.00    +0.000 N 
ATOM     20  H   UNL     1       1.947   6.841  20.525  0.00  0.00    +0.000 HD
BRANCH  17  23
ATOM     21  C   UNL     1       4.951   5.605  17.080  0.00  0.00    +0.000 A 
ATOM     22  C   UNL     1       4.284   6.706  17.625  0.00  0.00    +0.000 A 
ATOM     23  C   UNL     1       2.965   6.578  18.107  0.00  0.00    +0.000 A 
ATOM     24  C   UNL     1       2.334   5.327  18.045  0.00  0.00    +0.000 A 
ATOM     25  C   UNL     1       3.015   4.232  17.488  0.00  0.00    +0.000 A 
ATOM     26  C   UNL     1       4.315   4.377  17.006  0.00  0.00    +0.000 A 
ATOM     27  F   UNL     1       4.937   3.306  16.497  0.00  0.00    +0.000 F 
BRANCH  21  29
ATOM     28  C   UNL     1       7.564   4.600  17.389  0.00  0.00    +0.000 C 
ATOM     29  S   UNL     1       6.599   5.771  16.470  0.00  0.00    +0.000 S 
ATOM     30  O   UNL     1       7.069   7.090  16.851  0.00  0.00    +0.000 OA
ATOM     31  O   UNL     1       6.579   5.373  15.076  0.00  0.00    +0.000 OA
ENDBRANCH  21  29
ENDBRANCH  17  23
ENDBRANCH   1  19
TORSDOF 4
ENDMDL
MODEL 6
REMARK VINA RESULT:      -8.8      0.852      1.299
REMARK  Name = 
REMARK  5 active torsions:
REMARK  status: ('A' for Active; 'I' for Inactive)
REMARK    1  A    between atoms: C_1  and  S_2
REMARK    2  A    between atoms: S_2  and  C_5
REMARK    3  A    between atoms: C_7  and  C_8
REMARK    4  A    between atoms: N_10  and  C_11
REMARK    5  A    between atoms: C_14  and  C_15
REMARK                            x       y       z     vdW  Elec       q    Type
REMARK                         _______ _______ _______ _____ _____    ______ ____
ROOT
ATOM      1  C   UNL     1       1.227   8.857  20.600  0.00  0.00    +0.000 A 
ATOM      2  C   UNL     1       0.846   8.802  21.945  0.00  0.00    +0.000 A 
ATOM      3  C   UNL     1       0.128   9.849  22.546  0.00  0.00    +0.000 A 
ATOM      4  C   UNL     1      -0.235  10.987  21.825  0.00  0.00    +0.000 A 
ATOM      5  C   UNL     1       0.170  11.053  20.480  0.00  0.00    +0.000 A 
ATOM      6  C   UNL     1       0.901  10.008  19.879  0.00  0.00    +0.000 A 
ENDROOT
BRANCH   4   7
ATOM      7  C   UNL     1      -1.022  12.053  22.475  0.00  0.00    +0.000 A 
ATOM      8  N   UNL     1      -0.558  13.049  23.216  0.00  0.00    +0.000 NA
ATOM      9  C   UNL     1      -1.659  13.760  23.650  0.00  0.00    +0.000 A 
ATOM     10  C   UNL     1      -1.754  14.898  24.469  0.00  0.00    +0.000 A 
ATOM     11  C   UNL     1      -3.027  15.403  24.777  0.00  0.00    +0.000 A 
ATOM     12  C   UNL     1      -4.182  14.794  24.278  0.00  0.00    +0.000 A 
ATOM     13  C   UNL     1      -4.106  13.672  23.449  0.00  0.00    +0.000 A 
ATOM     14  C   UNL     1      -2.825  13.192  23.163  0.00  0.00    +0.000 A 
ATOM     15  N   UNL     1      -2.394  12.136  22.407  0.00  0.00    +0.000 N 
ATOM     16  H   UNL     1      -2.995  11.505  21.905  0.00  0.00    +0.000 HD
ENDBRANCH   4   7
BRANCH   1  19
ATOM     17  C   UNL     1       2.212   7.777  18.583  0.00  0.00    +0.000 C 
ATOM     18  O   UNL     1       1.966   8.675  17.783  0.00  0.00    +0.000 OA
ATOM     19  N   UNL     1       1.937   7.814  19.944  0.00  0.00    +0.000 N 
ATOM     20  H   UNL     1       2.287   7.074  20.536  0.00  0.00    +0.000 HD
BRANCH  17  23
ATOM     21  C   UNL     1       4.897   5.604  17.059  0.00  0.00    +0.000 A 
ATOM     22  C   UNL     1       4.190   6.703  17.553  0.00  0.00    +0.000 A 
ATOM     23  C   UNL     1       2.866   6.555  18.017  0.00  0.00    +0.000 A 
ATOM     24  C   UNL     1       2.272   5.285  17.988  0.00  0.00    +0.000 A 
ATOM     25  C   UNL     1       2.994   4.191  17.481  0.00  0.00    +0.000 A 
ATOM     26  C   UNL     1       4.297   4.356  17.017  0.00  0.00    +0.000 A 
ATOM     27  F   UNL     1       4.957   3.287  16.556  0.00  0.00    +0.000 F 
BRANCH  21  29
ATOM     28  C   UNL     1       7.516   4.620  17.383  0.00  0.00    +0.000 C 
ATOM     29  S   UNL     1       6.551   5.796  16.471  0.00  0.00    +0.000 S 
ATOM     30  O   UNL     1       7.003   7.113  16.877  0.00  0.00    +0.000 OA
ATOM     31  O   UNL     1       6.551   5.419  15.071  0.00  0.00    +0.000 OA
ENDBRANCH  21  29
ENDBRANCH  17  23
ENDBRANCH   1  19
TORSDOF 4
ENDMDL
MODEL 7
REMARK VINA RESULT:      -8.7      2.287      2.996
REMARK  Name = 
REMARK  5 active torsions:
REMARK  status: ('A' for Active; 'I' for Inactive)
REMARK    1  A    between atoms: C_1  and  S_2
REMARK    2  A    between atoms: S_2  and  C_5
REMARK    3  A    between atoms: C_7  and  C_8
REMARK    4  A    between atoms: N_10  and  C_11
REMARK    5  A    between atoms: C_14  and  C_15
REMARK                            x       y       z     vdW  Elec       q    Type
REMARK                         _______ _______ _______ _____ _____    ______ ____
ROOT
ATOM      1  C   UNL     1       0.965   9.181  21.309  0.00  0.00    +0.000 A 
ATOM      2  C   UNL     1       0.143   9.025  22.430  0.00  0.00    +0.000 A 
ATOM      3  C   UNL     1      -0.606  10.095  22.943  0.00  0.00    +0.000 A 
ATOM      4  C   UNL     1      -0.562  11.360  22.355  0.00  0.00    +0.000 A 
ATOM      5  C   UNL     1       0.283  11.522  21.242  0.00  0.00    +0.000 A 
ATOM      6  C   UNL     1       1.045  10.451  20.734  0.00  0.00    +0.000 A 
ENDROOT
BRANCH   4   7
ATOM      7  C   UNL     1      -1.390  12.455  22.895  0.00  0.00    +0.000 A 
ATOM      8  N   UNL     1      -0.978  13.487  23.617  0.00  0.00    +0.000 NA
ATOM      9  C   UNL     1      -2.105  14.216  23.938  0.00  0.00    +0.000 A 
ATOM     10  C   UNL     1      -2.255  15.393  24.691  0.00  0.00    +0.000 A 
ATOM     11  C   UNL     1      -3.546  15.911  24.883  0.00  0.00    +0.000 A 
ATOM     12  C   UNL     1      -4.664  15.276  24.335  0.00  0.00    +0.000 A 
ATOM     13  C   UNL     1      -4.532  14.115  23.569  0.00  0.00    +0.000 A 
ATOM     14  C   UNL     1      -3.236  13.623  23.398  0.00  0.00    +0.000 A 
ATOM     15  N   UNL     1      -2.754  12.533  22.726  0.00  0.00    +0.000 N 
ATOM     16  H   UNL     1      -3.319  11.877  22.214  0.00  0.00    +0.000 HD
ENDBRANCH   4   7
BRANCH   1  19
ATOM     17  C   UNL     1       1.974   7.962  19.384  0.00  0.00    +0.000 C 
ATOM     18  O   UNL     1       1.654   8.756  18.505  0.00  0.00    +0.000 OA
ATOM     19  N   UNL     1       1.726   8.121  20.742  0.00  0.00    +0.000 N 
ATOM     20  H   UNL     1       2.136   7.469  21.396  0.00  0.00    +0.000 HD
BRANCH  17  23
ATOM     21  C   UNL     1       2.972   4.325  19.209  0.00  0.00    +0.000 A 
ATOM     22  C   UNL     1       2.389   5.532  19.604  0.00  0.00    +0.000 A 
ATOM     23  C   UNL     1       2.694   6.731  18.927  0.00  0.00    +0.000 A 
ATOM     24  C   UNL     1       3.583   6.695  17.843  0.00  0.00    +0.000 A 
ATOM     25  C   UNL     1       4.167   5.476  17.463  0.00  0.00    +0.000 A 
ATOM     26  C   UNL     1       3.863   4.301  18.148  0.00  0.00    +0.000 A 
ATOM     27  F   UNL     1       4.428   3.156  17.746  0.00  0.00    +0.000 F 
BRANCH  21  29
ATOM     28  C   UNL     1       1.500   3.297  21.379  0.00  0.00    +0.000 C 
ATOM     29  S   UNL     1       2.594   2.827  20.064  0.00  0.00    +0.000 S 
ATOM     30  O   UNL     1       3.820   2.364  20.685  0.00  0.00    +0.000 OA
ATOM     31  O   UNL     1       1.875   1.977  19.136  0.00  0.00    +0.000 OA
ENDBRANCH  21  29
ENDBRANCH  17  23
ENDBRANCH   1  19
TORSDOF 4
ENDMDL
MODEL 8
REMARK VINA RESULT:      -8.7      2.033      2.658
REMARK  Name = 
REMARK  5 active torsions:
REMARK  status: ('A' for Active; 'I' for Inactive)
REMARK    1  A    between atoms: C_1  and  S_2
REMARK    2  A    between atoms: S_2  and  C_5
REMARK    3  A    between atoms: C_7  and  C_8
REMARK    4  A    between atoms: N_10  and  C_11
REMARK    5  A    between atoms: C_14  and  C_15
REMARK                            x       y       z     vdW  Elec       q    Type
REMARK                         _______ _______ _______ _____ _____    ______ ____
ROOT
ATOM      1  C   UNL     1       0.992   9.010  20.689  0.00  0.00    +0.000 A 
ATOM      2  C   UNL     1       0.374  10.024  19.949  0.00  0.00    +0.000 A 
ATOM      3  C   UNL     1      -0.400  11.016  20.572  0.00  0.00    +0.000 A 
ATOM      4  C   UNL     1      -0.586  11.031  21.954  0.00  0.00    +0.000 A 
ATOM      5  C   UNL     1       0.015   9.997  22.696  0.00  0.00    +0.000 A 
ATOM      6  C   UNL     1       0.783   8.995  22.071  0.00  0.00    +0.000 A 
ENDROOT
BRANCH   4   7
ATOM      7  C   UNL     1      -1.375  12.108  22.582  0.00  0.00    +0.000 A 
ATOM      8  N   UNL     1      -0.938  13.028  23.431  0.00  0.00    +0.000 NA
ATOM      9  C   UNL     1      -2.036  13.786  23.787  0.00  0.00    +0.000 A 
ATOM     10  C   UNL     1      -2.153  14.879  24.661  0.00  0.00    +0.000 A 
ATOM     11  C   UNL     1      -3.420  15.451  24.860  0.00  0.00    +0.000 A 
ATOM     12  C   UNL     1      -4.546  14.950  24.200  0.00  0.00    +0.000 A 
ATOM     13  C   UNL     1      -4.445  13.875  23.314  0.00  0.00    +0.000 A 
ATOM     14  C   UNL     1      -3.172  13.326  23.140  0.00  0.00    +0.000 A 
ATOM     15  N   UNL     1      -2.723  12.288  22.369  0.00  0.00    +0.000 N 
ATOM     16  H   UNL     1      -3.300  11.729  21.765  0.00  0.00    +0.000 HD
ENDBRANCH   4   7
BRANCH   1  19
ATOM     17  C   UNL     1       2.222   7.982  18.783  0.00  0.00    +0.000 C 
ATOM     18  O   UNL     1       2.035   8.880  17.967  0.00  0.00    +0.000 OA
ATOM     19  N   UNL     1       1.802   7.997  20.106  0.00  0.00    +0.000 N 
ATOM     20  H   UNL     1       2.111   7.262  20.728  0.00  0.00    +0.000 HD
BRANCH  17  23
ATOM     21  C   UNL     1       3.079   4.354  18.190  0.00  0.00    +0.000 A 
ATOM     22  C   UNL     1       2.473   5.523  18.655  0.00  0.00    +0.000 A 
ATOM     23  C   UNL     1       2.974   6.788  18.283  0.00  0.00    +0.000 A 
ATOM     24  C   UNL     1       4.084   6.856  17.427  0.00  0.00    +0.000 A 
ATOM     25  C   UNL     1       4.686   5.671  16.974  0.00  0.00    +0.000 A 
ATOM     26  C   UNL     1       4.185   4.429  17.360  0.00  0.00    +0.000 A 
ATOM     27  F   UNL     1       4.777   3.322  16.894  0.00  0.00    +0.000 F 
BRANCH  21  29
ATOM     28  C   UNL     1       1.083   3.110  19.742  0.00  0.00    +0.000 C 
ATOM     29  S   UNL     1       2.453   2.772  18.666  0.00  0.00    +0.000 S 
ATOM     30  O   UNL     1       3.472   2.131  19.475  0.00  0.00    +0.000 OA
ATOM     31  O   UNL     1       1.958   2.131  17.464  0.00  0.00    +0.000 OA
ENDBRANCH  21  29
ENDBRANCH  17  23
ENDBRANCH   1  19
TORSDOF 4
ENDMDL
MODEL 9
REMARK VINA RESULT:      -8.6      5.507     11.300
REMARK  Name = 
REMARK  5 active torsions:
REMARK  status: ('A' for Active; 'I' for Inactive)
REMARK    1  A    between atoms: C_1  and  S_2
REMARK    2  A    between atoms: S_2  and  C_5
REMARK    3  A    between atoms: C_7  and  C_8
REMARK    4  A    between atoms: N_10  and  C_11
REMARK    5  A    between atoms: C_14  and  C_15
REMARK                            x       y       z     vdW  Elec       q    Type
REMARK                         _______ _______ _______ _____ _____    ______ ____
ROOT
ATOM      1  C   UNL     1       0.104  10.123  20.357  0.00  0.00    +0.000 A 
ATOM      2  C   UNL     1       0.439  10.257  19.005  0.00  0.00    +0.000 A 
ATOM      3  C   UNL     1       1.305   9.351  18.372  0.00  0.00    +0.000 A 
ATOM      4  C   UNL     1       1.869   8.281  19.067  0.00  0.00    +0.000 A 
ATOM      5  C   UNL     1       1.552   8.160  20.432  0.00  0.00    +0.000 A 
ATOM      6  C   UNL     1       0.692   9.075  21.071  0.00  0.00    +0.000 A 
ENDROOT
BRANCH   4   7
ATOM      7  C   UNL     1       2.747   7.325  18.364  0.00  0.00    +0.000 A 
ATOM      8  N   UNL     1       3.726   7.613  17.518  0.00  0.00    +0.000 NA
ATOM      9  C   UNL     1       4.229   6.406  17.076  0.00  0.00    +0.000 A 
ATOM     10  C   UNL     1       5.261   6.119  16.166  0.00  0.00    +0.000 A 
ATOM     11  C   UNL     1       5.549   4.775  15.876  0.00  0.00    +0.000 A 
ATOM     12  C   UNL     1       4.831   3.739  16.480  0.00  0.00    +0.000 A 
ATOM     13  C   UNL     1       3.813   4.007  17.399  0.00  0.00    +0.000 A 
ATOM     14  C   UNL     1       3.549   5.352  17.665  0.00  0.00    +0.000 A 
ATOM     15  N   UNL     1       2.640   5.959  18.489  0.00  0.00    +0.000 N 
ATOM     16  H   UNL     1       1.979   5.474  19.072  0.00  0.00    +0.000 HD
ENDBRANCH   4   7
BRANCH   1  19
ATOM     17  C   UNL     1      -0.405  12.178  21.671  0.00  0.00    +0.000 C 
ATOM     18  O   UNL     1       0.722  12.663  21.654  0.00  0.00    +0.000 OA
ATOM     19  N   UNL     1      -0.784  11.002  21.035  0.00  0.00    +0.000 N 
ATOM     20  H   UNL     1      -1.763  10.752  21.009  0.00  0.00    +0.000 HD
BRANCH  17  23
ATOM     21  C   UNL     1      -3.814  13.263  22.875  0.00  0.00    +0.000 A 
ATOM     22  C   UNL     1      -2.786  12.640  22.164  0.00  0.00    +0.000 A 
ATOM     23  C   UNL     1      -1.436  12.940  22.444  0.00  0.00    +0.000 A 
ATOM     24  C   UNL     1      -1.139  13.864  23.456  0.00  0.00    +0.000 A 
ATOM     25  C   UNL     1      -2.185  14.487  24.157  0.00  0.00    +0.000 A 
ATOM     26  C   UNL     1      -3.513  14.188  23.861  0.00  0.00    +0.000 A 
ATOM     27  F   UNL     1      -4.481  14.792  24.563  0.00  0.00    +0.000 F 
BRANCH  21  29
ATOM     28  C   UNL     1      -6.256  14.448  22.121  0.00  0.00    +0.000 C 
ATOM     29  S   UNL     1      -5.503  12.892  22.516  0.00  0.00    +0.000 S 
ATOM     30  O   UNL     1      -6.115  12.432  23.748  0.00  0.00    +0.000 OA
ATOM     31  O   UNL     1      -5.512  12.052  21.334  0.00  0.00    +0.000 OA
ENDBRANCH  21  29
ENDBRANCH  17  23
ENDBRANCH   1  19
TORSDOF 4
ENDMDL
