MODEL 1
REMARK VINA RESULT:      -9.0      0.000      0.000
REMARK  Name = 
REMARK  5 active torsions:
REMARK  status: ('A' for Active; 'I' for Inactive)
REMARK    1  A    between atoms: C_1  and  C_2
REMARK    2  A    between atoms: C_4  and  N_5
REMARK    3  A    between atoms: C_6  and  C_8
REMARK    4  A    between atoms: C_12  and  N_13
REMARK    5  A    between atoms: C_21  and  N_22
REMARK                            x       y       z     vdW  Elec       q    Type
REMARK                         _______ _______ _______ _____ _____    ______ ____
ROOT
ATOM      1  N   UNL     1       1.617   7.506  20.769  0.00  0.00    +0.000 N 
ATOM      2  C   UNL     1       2.284   7.326  19.568  0.00  0.00    +0.000 C 
ATOM      3  O   UNL     1       2.304   8.104  18.623  0.00  0.00    +0.000 OA
ATOM      4  H   UNL     1       1.535   6.712  21.391  0.00  0.00    +0.000 HD
ENDROOT
BRANCH   1   8
ATOM      5  C   UNL     1      -0.583  11.760  19.564  0.00  0.00    +0.000 C 
ATOM      6  C   UNL     1      -0.272  10.775  20.658  0.00  0.00    +0.000 A 
ATOM      7  C   UNL     1       0.397   9.596  20.244  0.00  0.00    +0.000 A 
ATOM      8  C   UNL     1       0.906   8.670  21.151  0.00  0.00    +0.000 A 
ATOM      9  C   UNL     1       0.735   8.925  22.506  0.00  0.00    +0.000 A 
ATOM     10  C   UNL     1       0.020  10.058  22.932  0.00  0.00    +0.000 A 
ATOM     11  C   UNL     1      -0.516  10.996  22.030  0.00  0.00    +0.000 A 
BRANCH  11  12
ATOM     12  N   UNL     1      -1.278  12.101  22.535  0.00  0.00    +0.000 N 
ATOM     13  C   UNL     1      -2.554  11.941  23.196  0.00  0.00    +0.000 C 
ATOM     14  C   UNL     1      -3.040  13.353  23.440  0.00  0.00    +0.000 C 
ATOM     15  C   UNL     1      -1.763  14.130  23.652  0.00  0.00    +0.000 C 
ATOM     16  C   UNL     1      -0.761  13.383  22.803  0.00  0.00    +0.000 C 
ATOM     17  O   UNL     1       0.311  13.868  22.468  0.00  0.00    +0.000 OA
ENDBRANCH  11  12
ENDBRANCH   1   8
BRANCH   2  18
ATOM     18  C   UNL     1       2.987   6.023  19.391  0.00  0.00    +0.000 A 
ATOM     19  C   UNL     1       2.307   4.862  19.782  0.00  0.00    +0.000 A 
ATOM     20  C   UNL     1       2.880   3.606  19.600  0.00  0.00    +0.000 A 
ATOM     21  C   UNL     1       4.132   3.493  18.998  0.00  0.00    +0.000 A 
ATOM     22  C   UNL     1       4.814   4.644  18.576  0.00  0.00    +0.000 A 
ATOM     23  C   UNL     1       4.247   5.918  18.786  0.00  0.00    +0.000 A 
BRANCH  22  24
ATOM     24  N   UNL     1       6.056   4.529  17.907  0.00  0.00    +0.000 N 
ATOM     25  C   UNL     1       6.324   4.510  16.562  0.00  0.00    +0.000 A 
ATOM     26  N   UNL     1       7.619   4.388  16.377  0.00  0.00    +0.000 NA
ATOM     27  N   UNL     1       8.169   4.339  17.630  0.00  0.00    +0.000 NA
ATOM     28  N   UNL     1       7.233   4.428  18.566  0.00  0.00    +0.000 NA
ENDBRANCH  22  24
ENDBRANCH   2  18
TORSDOF 4
ENDMDL
MODEL 2
REMARK VINA RESULT:      -8.7      1.156      1.359
REMARK  Name = 
REMARK  5 active torsions:
REMARK  status: ('A' for Active; 'I' for Inactive)
REMARK    1  A    between atoms: C_1  and  C_2
REMARK    2  A    between atoms: C_4  and  N_5
REMARK    3  A    between atoms: C_6  and  C_8
REMARK    4  A    between atoms: C_12  and  N_13
REMARK    5  A    between atoms: C_21  and  N_22
REMARK                            x       y       z     vdW  Elec       q    Type
REMARK                         _______ _______ _______ _____ _____    ______ ____
ROOT
ATOM      1  N   UNL     1       1.533   7.867  19.815  0.00  0.00    +0.000 N 
ATOM      2  C   UNL     1       2.157   7.843  18.579  0.00  0.00    +0.000 C 
ATOM      3  O   UNL     1       2.181   8.751  17.758  0.00  0.00    +0.000 OA
ATOM      4  H   UNL     1       1.437   6.994  20.317  0.00  0.00    +0.000 HD
ENDROOT
BRANCH   1   8
ATOM      5  C   UNL     1      -0.563  12.310  19.318  0.00  0.00    +0.000 C 
ATOM      6  C   UNL     1      -0.240  11.173  20.249  0.00  0.00    +0.000 A 
ATOM      7  C   UNL     1       0.367  10.045  19.644  0.00  0.00    +0.000 A 
ATOM      8  C   UNL     1       0.881   8.986  20.389  0.00  0.00    +0.000 A 
ATOM      9  C   UNL     1       0.779   9.055  21.773  0.00  0.00    +0.000 A 
ATOM     10  C   UNL     1       0.125  10.137  22.386  0.00  0.00    +0.000 A 
ATOM     11  C   UNL     1      -0.417  11.208  21.649  0.00  0.00    +0.000 A 
BRANCH  11  12
ATOM     12  N   UNL     1      -1.116  12.253  22.337  0.00  0.00    +0.000 N 
ATOM     13  C   UNL     1      -2.347  12.032  23.062  0.00  0.00    +0.000 C 
ATOM     14  C   UNL     1      -2.782  13.410  23.512  0.00  0.00    +0.000 C 
ATOM     15  C   UNL     1      -1.475  14.136  23.726  0.00  0.00    +0.000 C 
ATOM     16  C   UNL     1      -0.551  13.484  22.723  0.00  0.00    +0.000 C 
ATOM     17  O   UNL     1       0.507  13.990  22.375  0.00  0.00    +0.000 OA
ENDBRANCH  11  12
ENDBRANCH   1   8
BRANCH   2  18
ATOM     18  C   UNL     1       2.801   6.556  18.188  0.00  0.00    +0.000 A 
ATOM     19  C   UNL     1       2.085   5.375  18.428  0.00  0.00    +0.000 A 
ATOM     20  C   UNL     1       2.601   4.140  18.044  0.00  0.00    +0.000 A 
ATOM     21  C   UNL     1       3.830   4.072  17.389  0.00  0.00    +0.000 A 
ATOM     22  C   UNL     1       4.546   5.247  17.117  0.00  0.00    +0.000 A 
ATOM     23  C   UNL     1       4.037   6.496  17.531  0.00  0.00    +0.000 A 
BRANCH  22  24
ATOM     24  N   UNL     1       5.762   5.188  16.396  0.00  0.00    +0.000 N 
ATOM     25  C   UNL     1       6.912   4.497  16.681  0.00  0.00    +0.000 A 
ATOM     26  N   UNL     1       7.802   4.725  15.741  0.00  0.00    +0.000 NA
ATOM     27  N   UNL     1       7.193   5.569  14.852  0.00  0.00    +0.000 NA
ATOM     28  N   UNL     1       5.955   5.853  15.235  0.00  0.00    +0.000 NA
ENDBRANCH  22  24
ENDBRANCH   2  18
TORSDOF 4
ENDMDL
MODEL 3
REMARK VINA RESULT:      -8.6      1.434      1.966
REMARK  Name = 
REMARK  5 active torsions:
REMARK  status: ('A' for Active; 'I' for Inactive)
REMARK    1  A    between atoms: C_1  and  C_2
REMARK    2  A    between atoms: C_4  and  N_5
REMARK    3  A    between atoms: C_6  and  C_8
REMARK    4  A    between atoms: C_12  and  N_13
REMARK    5  A    between atoms: C_21  and  N_22
REMARK                            x       y       z     vdW  Elec       q    Type
REMARK                         _______ _______ _______ _____ _____    ______ ____
ROOT
ATOM      1  N   UNL     1       1.949   7.727  19.142  0.00  0.00    +0.000 N 
ATOM      2  C   UNL     1       2.044   6.405  19.544  0.00  0.00    +0.000 C 
ATOM      3  O   UNL     1       1.623   5.931  20.591  0.00  0.00    +0.000 OA
ATOM      4  H   UNL     1       2.493   8.021  18.341  0.00  0.00    +0.000 HD
ENDROOT
BRANCH   1   8
ATOM      5  C   UNL     1       0.086   9.532  23.344  0.00  0.00    +0.000 C 
ATOM      6  C   UNL     1       0.359   9.779  21.885  0.00  0.00    +0.000 A 
ATOM      7  C   UNL     1       1.085   8.759  21.221  0.00  0.00    +0.000 A 
ATOM      8  C   UNL     1       1.268   8.755  19.840  0.00  0.00    +0.000 A 
ATOM      9  C   UNL     1       0.720   9.801  19.107  0.00  0.00    +0.000 A 
ATOM     10  C   UNL     1       0.052  10.852  19.758  0.00  0.00    +0.000 A 
ATOM     11  C   UNL     1      -0.130  10.883  21.154  0.00  0.00    +0.000 A 
BRANCH  11  12
ATOM     12  N   UNL     1      -0.777  12.012  21.754  0.00  0.00    +0.000 N 
ATOM     13  C   UNL     1      -2.060  11.926  22.415  0.00  0.00    +0.000 C 
ATOM     14  C   UNL     1      -2.402  13.354  22.778  0.00  0.00    +0.000 C 
ATOM     15  C   UNL     1      -1.054  13.982  23.038  0.00  0.00    +0.000 C 
ATOM     16  C   UNL     1      -0.133  13.211  22.120  0.00  0.00    +0.000 C 
ATOM     17  O   UNL     1       0.980  13.613  21.813  0.00  0.00    +0.000 OA
ENDBRANCH  11  12
ENDBRANCH   1   8
BRANCH   2  18
ATOM     18  C   UNL     1       2.793   5.490  18.636  0.00  0.00    +0.000 A 
ATOM     19  C   UNL     1       2.192   4.265  18.314  0.00  0.00    +0.000 A 
ATOM     20  C   UNL     1       2.809   3.380  17.433  0.00  0.00    +0.000 A 
ATOM     21  C   UNL     1       4.024   3.721  16.841  0.00  0.00    +0.000 A 
ATOM     22  C   UNL     1       4.625   4.955  17.132  0.00  0.00    +0.000 A 
ATOM     23  C   UNL     1       4.015   5.839  18.046  0.00  0.00    +0.000 A 
BRANCH  22  24
ATOM     24  N   UNL     1       5.826   5.333  16.485  0.00  0.00    +0.000 N 
ATOM     25  C   UNL     1       6.336   4.916  15.282  0.00  0.00    +0.000 A 
ATOM     26  N   UNL     1       7.481   5.522  15.061  0.00  0.00    +0.000 NA
ATOM     27  N   UNL     1       7.683   6.337  16.142  0.00  0.00    +0.000 NA
ATOM     28  N   UNL     1       6.685   6.235  17.010  0.00  0.00    +0.000 NA
ENDBRANCH  22  24
ENDBRANCH   2  18
TORSDOF 4
ENDMDL
MODEL 4
REMARK VINA RESULT:      -8.6      1.499      2.097
REMARK  Name = 
REMARK  5 active torsions:
REMARK  status: ('A' for Active; 'I' for Inactive)
REMARK    1  A    between atoms: C_1  and  C_2
REMARK    2  A    between atoms: C_4  and  N_5
REMARK    3  A    between atoms: C_6  and  C_8
REMARK    4  A    between atoms: C_12  and  N_13
REMARK    5  A    between atoms: C_21  and  N_22
REMARK                            x       y       z     vdW  Elec       q    Type
REMARK                         _______ _______ _______ _____ _____    ______ ____
ROOT
ATOM      1  N   UNL     1       1.860   7.899  19.461  0.00  0.00    +0.000 N 
ATOM      2  C   UNL     1       2.515   7.848  18.242  0.00  0.00    +0.000 C 
ATOM      3  O   UNL     1       2.506   8.711  17.374  0.00  0.00    +0.000 OA
ATOM      4  H   UNL     1       1.804   7.049  20.007  0.00  0.00    +0.000 HD
ENDROOT
BRANCH   1   8
ATOM      5  C   UNL     1      -0.581  10.099  23.147  0.00  0.00    +0.000 C 
ATOM      6  C   UNL     1      -0.055  10.221  21.743  0.00  0.00    +0.000 A 
ATOM      7  C   UNL     1       0.717   9.124  21.285  0.00  0.00    +0.000 A 
ATOM      8  C   UNL     1       1.128   9.005  19.959  0.00  0.00    +0.000 A 
ATOM      9  C   UNL     1       0.766  10.012  19.072  0.00  0.00    +0.000 A 
ATOM     10  C   UNL     1       0.055  11.137  19.525  0.00  0.00    +0.000 A 
ATOM     11  C   UNL     1      -0.355  11.283  20.864  0.00  0.00    +0.000 A 
BRANCH  11  12
ATOM     12  N   UNL     1      -1.032  12.481  21.265  0.00  0.00    +0.000 N 
ATOM     13  C   UNL     1      -2.472  12.590  21.324  0.00  0.00    +0.000 C 
ATOM     14  C   UNL     1      -2.735  14.040  21.669  0.00  0.00    +0.000 C 
ATOM     15  C   UNL     1      -1.551  14.414  22.528  0.00  0.00    +0.000 C 
ATOM     16  C   UNL     1      -0.445  13.535  21.992  0.00  0.00    +0.000 C 
ATOM     17  O   UNL     1       0.737  13.752  22.218  0.00  0.00    +0.000 OA
ENDBRANCH  11  12
ENDBRANCH   1   8
BRANCH   2  18
ATOM     18  C   UNL     1       3.246   6.585  17.935  0.00  0.00    +0.000 A 
ATOM     19  C   UNL     1       2.807   5.414  18.570  0.00  0.00    +0.000 A 
ATOM     20  C   UNL     1       3.408   4.189  18.295  0.00  0.00    +0.000 A 
ATOM     21  C   UNL     1       4.439   4.113  17.360  0.00  0.00    +0.000 A 
ATOM     22  C   UNL     1       4.871   5.271  16.696  0.00  0.00    +0.000 A 
ATOM     23  C   UNL     1       4.282   6.517  16.995  0.00  0.00    +0.000 A 
BRANCH  22  24
ATOM     24  N   UNL     1       5.873   5.189  15.700  0.00  0.00    +0.000 N 
ATOM     25  C   UNL     1       5.850   4.544  14.490  0.00  0.00    +0.000 A 
ATOM     26  N   UNL     1       6.997   4.725  13.877  0.00  0.00    +0.000 NA
ATOM     27  N   UNL     1       7.747   5.504  14.717  0.00  0.00    +0.000 NA
ATOM     28  N   UNL     1       7.075   5.796  15.823  0.00  0.00    +0.000 NA
ENDBRANCH  22  24
ENDBRANCH   2  18
TORSDOF 4
ENDMDL
MODEL 5
REMARK VINA RESULT:      -8.5      1.664      2.221
REMARK  Name = 
REMARK  5 active torsions:
REMARK  status: ('A' for Active; 'I' for Inactive)
REMARK    1  A    between atoms: C_1  and  C_2
REMARK    2  A    between atoms: C_4  and  N_5
REMARK    3  A    between atoms: C_6  and  C_8
REMARK    4  A    between atoms: C_12  and  N_13
REMARK    5  A    between atoms: C_21  and  N_22
REMARK                            x       y       z     vdW  Elec       q    Type
REMARK                         _______ _______ _______ _____ _____    ______ ____
ROOT
ATOM      1  N   UNL     1       2.359   7.244  20.190  0.00  0.00    +0.000 N 
ATOM      2  C   UNL     1       1.931   5.933  20.319  0.00  0.00    +0.000 C 
ATOM      3  O   UNL     1       0.840   5.561  20.732  0.00  0.00    +0.000 OA
ATOM      4  H   UNL     1       3.340   7.408  20.007  0.00  0.00    +0.000 HD
ENDROOT
BRANCH   1   8
ATOM      5  C   UNL     1      -0.541   9.880  23.195  0.00  0.00    +0.000 C 
ATOM      6  C   UNL     1       0.169   9.822  21.870  0.00  0.00    +0.000 A 
ATOM      7  C   UNL     1       0.988   8.684  21.667  0.00  0.00    +0.000 A 
ATOM      8  C   UNL     1       1.573   8.396  20.436  0.00  0.00    +0.000 A 
ATOM      9  C   UNL     1       1.339   9.274  19.383  0.00  0.00    +0.000 A 
ATOM     10  C   UNL     1       0.580  10.440  19.585  0.00  0.00    +0.000 A 
ATOM     11  C   UNL     1      -0.005  10.756  20.826  0.00  0.00    +0.000 A 
BRANCH  11  12
ATOM     12  N   UNL     1      -0.723  11.988  20.971  0.00  0.00    +0.000 N 
ATOM     13  C   UNL     1      -0.173  13.146  21.641  0.00  0.00    +0.000 C 
ATOM     14  C   UNL     1      -1.304  14.150  21.665  0.00  0.00    +0.000 C 
ATOM     15  C   UNL     1      -2.064  13.851  20.395  0.00  0.00    +0.000 C 
ATOM     16  C   UNL     1      -1.836  12.370  20.198  0.00  0.00    +0.000 C 
ATOM     17  O   UNL     1      -2.528  11.690  19.453  0.00  0.00    +0.000 OA
ENDBRANCH  11  12
ENDBRANCH   1   8
BRANCH   2  18
ATOM     18  C   UNL     1       2.927   4.875  19.983  0.00  0.00    +0.000 A 
ATOM     19  C   UNL     1       2.676   3.579  20.453  0.00  0.00    +0.000 A 
ATOM     20  C   UNL     1       3.535   2.529  20.138  0.00  0.00    +0.000 A 
ATOM     21  C   UNL     1       4.644   2.758  19.324  0.00  0.00    +0.000 A 
ATOM     22  C   UNL     1       4.893   4.045  18.823  0.00  0.00    +0.000 A 
ATOM     23  C   UNL     1       4.039   5.113  19.165  0.00  0.00    +0.000 A 
BRANCH  22  24
ATOM     24  N   UNL     1       5.980   4.268  17.944  0.00  0.00    +0.000 N 
ATOM     25  C   UNL     1       5.986   4.399  16.579  0.00  0.00    +0.000 A 
ATOM     26  N   UNL     1       7.218   4.596  16.165  0.00  0.00    +0.000 NA
ATOM     27  N   UNL     1       7.992   4.595  17.294  0.00  0.00    +0.000 NA
ATOM     28  N   UNL     1       7.254   4.402  18.379  0.00  0.00    +0.000 NA
ENDBRANCH  22  24
ENDBRANCH   2  18
TORSDOF 4
ENDMDL
MODEL 6
REMARK VINA RESULT:      -8.5      2.683      3.728
REMARK  Name = 
REMARK  5 active torsions:
REMARK  status: ('A' for Active; 'I' for Inactive)
REMARK    1  A    between atoms: C_1  and  C_2
REMARK    2  A    between atoms: C_4  and  N_5
REMARK    3  A    between atoms: C_6  and  C_8
REMARK    4  A    between atoms: C_12  and  N_13
REMARK    5  A    between atoms: C_21  and  N_22
REMARK                            x       y       z     vdW  Elec       q    Type
REMARK                         _______ _______ _______ _____ _____    ______ ____
ROOT
ATOM      1  N   UNL     1       3.326   7.712  18.281  0.00  0.00    +0.000 N 
ATOM      2  C   UNL     1       3.331   6.367  17.948  0.00  0.00    +0.000 C 
ATOM      3  O   UNL     1       2.376   5.603  17.993  0.00  0.00    +0.000 OA
ATOM      4  H   UNL     1       4.216   8.183  18.371  0.00  0.00    +0.000 HD
ENDROOT
BRANCH   1   8
ATOM      5  C   UNL     1      -0.171   8.825  21.585  0.00  0.00    +0.000 C 
ATOM      6  C   UNL     1       0.436   9.145  20.246  0.00  0.00    +0.000 A 
ATOM      7  C   UNL     1       1.605   8.413  19.918  0.00  0.00    +0.000 A 
ATOM      8  C   UNL     1       2.185   8.465  18.653  0.00  0.00    +0.000 A 
ATOM      9  C   UNL     1       1.588   9.277  17.695  0.00  0.00    +0.000 A 
ATOM     10  C   UNL     1       0.466  10.056  18.024  0.00  0.00    +0.000 A 
ATOM     11  C   UNL     1      -0.126  10.030  19.301  0.00  0.00    +0.000 A 
BRANCH  11  12
ATOM     12  N   UNL     1      -1.237  10.891  19.581  0.00  0.00    +0.000 N 
ATOM     13  C   UNL     1      -1.134  12.063  20.420  0.00  0.00    +0.000 C 
ATOM     14  C   UNL     1      -2.551  12.582  20.532  0.00  0.00    +0.000 C 
ATOM     15  C   UNL     1      -3.165  12.212  19.203  0.00  0.00    +0.000 C 
ATOM     16  C   UNL     1      -2.421  10.953  18.820  0.00  0.00    +0.000 C 
ATOM     17  O   UNL     1      -2.829  10.182  17.963  0.00  0.00    +0.000 OA
ENDBRANCH  11  12
ENDBRANCH   1   8
BRANCH   2  18
ATOM     18  C   UNL     1       4.649   5.785  17.564  0.00  0.00    +0.000 A 
ATOM     19  C   UNL     1       5.469   5.308  18.595  0.00  0.00    +0.000 A 
ATOM     20  C   UNL     1       6.692   4.705  18.310  0.00  0.00    +0.000 A 
ATOM     21  C   UNL     1       7.099   4.548  16.985  0.00  0.00    +0.000 A 
ATOM     22  C   UNL     1       6.275   4.997  15.941  0.00  0.00    +0.000 A 
ATOM     23  C   UNL     1       5.051   5.632  16.231  0.00  0.00    +0.000 A 
BRANCH  22  24
ATOM     24  N   UNL     1       6.655   4.782  14.594  0.00  0.00    +0.000 N 
ATOM     25  C   UNL     1       6.149   3.897  13.676  0.00  0.00    +0.000 A 
ATOM     26  N   UNL     1       6.795   4.031  12.540  0.00  0.00    +0.000 NA
ATOM     27  N   UNL     1       7.716   5.022  12.752  0.00  0.00    +0.000 NA
ATOM     28  N   UNL     1       7.638   5.488  13.992  0.00  0.00    +0.000 NA
ENDBRANCH  22  24
ENDBRANCH   2  18
TORSDOF 4
ENDMDL
MODEL 7
REMARK VINA RESULT:      -8.5      1.259      1.344
REMARK  Name = 
REMARK  5 active torsions:
REMARK  status: ('A' for Active; 'I' for Inactive)
REMARK    1  A    between atoms: C_1  and  C_2
REMARK    2  A    between atoms: C_4  and  N_5
REMARK    3  A    between atoms: C_6  and  C_8
REMARK    4  A    between atoms: C_12  and  N_13
REMARK    5  A    between atoms: C_21  and  N_22
REMARK                            x       y       z     vdW  Elec       q    Type
REMARK                         _______ _______ _______ _____ _____    ______ ____
ROOT
ATOM      1  N   UNL     1       2.256   7.483  19.633  0.00  0.00    +0.000 N 
ATOM      2  C   UNL     1       2.075   6.137  19.903  0.00  0.00    +0.000 C 
ATOM      3  O   UNL     1       1.296   5.656  20.716  0.00  0.00    +0.000 OA
ATOM      4  H   UNL     1       3.053   7.753  19.072  0.00  0.00    +0.000 HD
ENDROOT
BRANCH   1   8
ATOM      5  C   UNL     1      -0.441  11.580  19.057  0.00  0.00    +0.000 C 
ATOM      6  C   UNL     1       0.095  10.557  20.021  0.00  0.00    +0.000 A 
ATOM      7  C   UNL     1       0.802   9.478  19.433  0.00  0.00    +0.000 A 
ATOM      8  C   UNL     1       1.504   8.545  20.193  0.00  0.00    +0.000 A 
ATOM      9  C   UNL     1       1.492   8.691  21.575  0.00  0.00    +0.000 A 
ATOM     10  C   UNL     1       0.746   9.719  22.176  0.00  0.00    +0.000 A 
ATOM     11  C   UNL     1       0.017  10.661  21.426  0.00  0.00    +0.000 A 
BRANCH  11  12
ATOM     12  N   UNL     1      -0.764  11.651  22.108  0.00  0.00    +0.000 N 
ATOM     13  C   UNL     1      -1.866  11.320  22.984  0.00  0.00    +0.000 C 
ATOM     14  C   UNL     1      -2.462  12.654  23.374  0.00  0.00    +0.000 C 
ATOM     15  C   UNL     1      -1.270  13.581  23.382  0.00  0.00    +0.000 C 
ATOM     16  C   UNL     1      -0.362  12.982  22.333  0.00  0.00    +0.000 C 
ATOM     17  O   UNL     1       0.563  13.604  21.829  0.00  0.00    +0.000 OA
ENDBRANCH  11  12
ENDBRANCH   1   8
BRANCH   2  18
ATOM     18  C   UNL     1       2.970   5.190  19.177  0.00  0.00    +0.000 A 
ATOM     19  C   UNL     1       2.628   3.831  19.202  0.00  0.00    +0.000 A 
ATOM     20  C   UNL     1       3.388   2.894  18.505  0.00  0.00    +0.000 A 
ATOM     21  C   UNL     1       4.484   3.309  17.751  0.00  0.00    +0.000 A 
ATOM     22  C   UNL     1       4.822   4.670  17.694  0.00  0.00    +0.000 A 
ATOM     23  C   UNL     1       4.071   5.615  18.422  0.00  0.00    +0.000 A 
BRANCH  22  24
ATOM     24  N   UNL     1       5.895   5.103  16.878  0.00  0.00    +0.000 N 
ATOM     25  C   UNL     1       6.451   4.503  15.777  0.00  0.00    +0.000 A 
ATOM     26  N   UNL     1       7.431   5.250  15.322  0.00  0.00    +0.000 NA
ATOM     27  N   UNL     1       7.481   6.339  16.150  0.00  0.00    +0.000 NA
ATOM     28  N   UNL     1       6.553   6.264  17.094  0.00  0.00    +0.000 NA
ENDBRANCH  22  24
ENDBRANCH   2  18
TORSDOF 4
ENDMDL
MODEL 8
REMARK VINA RESULT:      -8.4      2.370      2.818
REMARK  Name = 
REMARK  5 active torsions:
REMARK  status: ('A' for Active; 'I' for Inactive)
REMARK    1  A    between atoms: C_1  and  C_2
REMARK    2  A    between atoms: C_4  and  N_5
REMARK    3  A    between atoms: C_6  and  C_8
REMARK    4  A    between atoms: C_12  and  N_13
REMARK    5  A    between atoms: C_21  and  N_22
REMARK                            x       y       z     vdW  Elec       q    Type
REMARK                         _______ _______ _______ _____ _____    ______ ____
ROOT
ATOM      1  N   UNL     1       2.030   8.566  18.002  0.00  0.00    +0.000 N 
ATOM      2  C   UNL     1       2.285   7.513  18.864  0.00  0.00    +0.000 C 
ATOM      3  O   UNL     1       2.200   7.536  20.085  0.00  0.00    +0.000 OA
ATOM      4  H   UNL     1       2.309   8.467  17.035  0.00  0.00    +0.000 HD
ENDROOT
BRANCH   1   8
ATOM      5  C   UNL     1      -1.694  11.442  19.500  0.00  0.00    +0.000 C 
ATOM      6  C   UNL     1      -0.226  11.355  19.185  0.00  0.00    +0.000 A 
ATOM      7  C   UNL     1       0.251  10.061  18.859  0.00  0.00    +0.000 A 
ATOM      8  C   UNL     1       1.540   9.841  18.378  0.00  0.00    +0.000 A 
ATOM      9  C   UNL     1       2.375  10.942  18.227  0.00  0.00    +0.000 A 
ATOM     10  C   UNL     1       1.938  12.223  18.604  0.00  0.00    +0.000 A 
ATOM     11  C   UNL     1       0.645  12.463  19.108  0.00  0.00    +0.000 A 
BRANCH  11  12
ATOM     12  N   UNL     1       0.286  13.788  19.521  0.00  0.00    +0.000 N 
ATOM     13  C   UNL     1      -0.357  14.740  18.643  0.00  0.00    +0.000 C 
ATOM     14  C   UNL     1      -0.431  16.018  19.449  0.00  0.00    +0.000 C 
ATOM     15  C   UNL     1      -0.587  15.527  20.868  0.00  0.00    +0.000 C 
ATOM     16  C   UNL     1       0.148  14.207  20.859  0.00  0.00    +0.000 C 
ATOM     17  O   UNL     1       0.507  13.645  21.884  0.00  0.00    +0.000 OA
ENDBRANCH  11  12
ENDBRANCH   1   8
BRANCH   2  18
ATOM     18  C   UNL     1       2.776   6.251  18.240  0.00  0.00    +0.000 A 
ATOM     19  C   UNL     1       1.865   5.191  18.123  0.00  0.00    +0.000 A 
ATOM     20  C   UNL     1       2.237   4.000  17.506  0.00  0.00    +0.000 A 
ATOM     21  C   UNL     1       3.518   3.861  16.974  0.00  0.00    +0.000 A 
ATOM     22  C   UNL     1       4.432   4.923  17.059  0.00  0.00    +0.000 A 
ATOM     23  C   UNL     1       4.065   6.119  17.709  0.00  0.00    +0.000 A 
BRANCH  22  24
ATOM     24  N   UNL     1       5.711   4.810  16.464  0.00  0.00    +0.000 N 
ATOM     25  C   UNL     1       6.081   4.975  15.153  0.00  0.00    +0.000 A 
ATOM     26  N   UNL     1       7.375   4.777  15.037  0.00  0.00    +0.000 NA
ATOM     27  N   UNL     1       7.819   4.489  16.299  0.00  0.00    +0.000 NA
ATOM     28  N   UNL     1       6.822   4.510  17.174  0.00  0.00    +0.000 NA
ENDBRANCH  22  24
ENDBRANCH   2  18
TORSDOF 4
ENDMDL
MODEL 9
REMARK VINA RESULT:      -8.4      2.417     10.326
REMARK  Name = 
REMARK  5 active torsions:
REMARK  status: ('A' for Active; 'I' for Inactive)
REMARK    1  A    between atoms: C_1  and  C_2
REMARK    2  A    between atoms: C_4  and  N_5
REMARK    3  A    between atoms: C_6  and  C_8
REMARK    4  A    between atoms: C_12  and  N_13
REMARK    5  A    between atoms: C_21  and  N_22
REMARK                            x       y       z     vdW  Elec       q    Type
REMARK                         _______ _______ _______ _____ _____    ______ ____
ROOT
ATOM      1  N   UNL     1       0.435   9.884  20.330  0.00  0.00    +0.000 N 
ATOM      2  C   UNL     1       0.527  10.375  21.621  0.00  0.00    +0.000 C 
ATOM      3  O   UNL     1       1.178   9.894  22.539  0.00  0.00    +0.000 OA
ATOM      4  H   UNL     1      -0.275  10.272  19.723  0.00  0.00    +0.000 HD
ENDROOT
BRANCH   1   8
ATOM      5  C   UNL     1       2.302   5.351  20.923  0.00  0.00    +0.000 C 
ATOM      6  C   UNL     1       2.072   6.498  19.978  0.00  0.00    +0.000 A 
ATOM      7  C   UNL     1       1.309   7.573  20.499  0.00  0.00    +0.000 A 
ATOM      8  C   UNL     1       1.153   8.777  19.815  0.00  0.00    +0.000 A 
ATOM      9  C   UNL     1       1.769   8.905  18.576  0.00  0.00    +0.000 A 
ATOM     10  C   UNL     1       2.477   7.827  18.018  0.00  0.00    +0.000 A 
ATOM     11  C   UNL     1       2.631   6.598  18.686  0.00  0.00    +0.000 A 
BRANCH  11  12
ATOM     12  N   UNL     1       3.323   5.525  18.033  0.00  0.00    +0.000 N 
ATOM     13  C   UNL     1       4.753   5.337  18.127  0.00  0.00    +0.000 C 
ATOM     14  C   UNL     1       5.051   4.180  17.198  0.00  0.00    +0.000 C 
ATOM     15  C   UNL     1       3.806   3.331  17.288  0.00  0.00    +0.000 C 
ATOM     16  C   UNL     1       2.718   4.343  17.562  0.00  0.00    +0.000 C 
ATOM     17  O   UNL     1       1.531   4.095  17.403  0.00  0.00    +0.000 OA
ENDBRANCH  11  12
ENDBRANCH   1   8
BRANCH   2  18
ATOM     18  C   UNL     1      -0.308  11.570  21.936  0.00  0.00    +0.000 A 
ATOM     19  C   UNL     1       0.205  12.827  21.587  0.00  0.00    +0.000 A 
ATOM     20  C   UNL     1      -0.539  13.984  21.803  0.00  0.00    +0.000 A 
ATOM     21  C   UNL     1      -1.819  13.897  22.348  0.00  0.00    +0.000 A 
ATOM     22  C   UNL     1      -2.358  12.644  22.677  0.00  0.00    +0.000 A 
ATOM     23  C   UNL     1      -1.594  11.474  22.485  0.00  0.00    +0.000 A 
BRANCH  22  24
ATOM     24  N   UNL     1      -3.681  12.546  23.171  0.00  0.00    +0.000 N 
ATOM     25  C   UNL     1      -4.861  12.927  22.585  0.00  0.00    +0.000 A 
ATOM     26  N   UNL     1      -5.858  12.652  23.395  0.00  0.00    +0.000 NA
ATOM     27  N   UNL     1      -5.290  12.083  24.503  0.00  0.00    +0.000 NA
ATOM     28  N   UNL     1      -3.971  12.008  24.377  0.00  0.00    +0.000 NA
ENDBRANCH  22  24
ENDBRANCH   2  18
TORSDOF 4
ENDMDL
