MODEL 1
REMARK VINA RESULT:      -9.4      0.000      0.000
REMARK  Name = 
REMARK  5 active torsions:
REMARK  status: ('A' for Active; 'I' for Inactive)
REMARK    1  A    between atoms: C_6  and  S_7
REMARK    2  A    between atoms: S_7  and  N_10
REMARK    3  A    between atoms: N_10  and  C_11
REMARK    4  A    between atoms: C_16  and  C_17
REMARK    5  A    between atoms: N_19  and  C_20
REMARK                            x       y       z     vdW  Elec       q    Type
REMARK                         _______ _______ _______ _____ _____    ______ ____
ROOT
ATOM      1  C   UNL     1       2.917   4.776  20.061  0.00  0.00    +0.000 A 
ATOM      2  C   UNL     1       1.758   4.542  20.817  0.00  0.00    +0.000 A 
ATOM      3  C   UNL     1       1.251   3.249  20.971  0.00  0.00    +0.000 A 
ATOM      4  C   UNL     1       1.885   2.176  20.355  0.00  0.00    +0.000 A 
ATOM      5  C   UNL     1       3.033   2.397  19.595  0.00  0.00    +0.000 A 
ATOM      6  C   UNL     1       3.568   3.692  19.447  0.00  0.00    +0.000 A 
ENDROOT
BRANCH   6   7
ATOM      7  C   UNL     1       4.731   3.796  18.520  0.00  0.00    +0.000 C 
ATOM      8  O   UNL     1       5.846   3.635  19.007  0.00  0.00    +0.000 OA
ATOM      9  N   UNL     1       4.459   4.154  17.216  0.00  0.00    +0.000 N 
ATOM     10  H   UNL     1       3.500   4.415  16.990  0.00  0.00    +0.000 HD
BRANCH   9  11
ATOM     11  C   UNL     1       5.396   4.367  16.183  0.00  0.00    +0.000 A 
ATOM     12  C   UNL     1       6.537   5.161  16.330  0.00  0.00    +0.000 A 
ATOM     13  C   UNL     1       7.374   5.405  15.240  0.00  0.00    +0.000 A 
ATOM     14  C   UNL     1       7.078   4.842  14.006  0.00  0.00    +0.000 A 
ATOM     15  F   UNL     1       7.862   5.106  12.954  0.00  0.00    +0.000 F 
ATOM     16  C   UNL     1       5.977   4.012  13.850  0.00  0.00    +0.000 A 
ATOM     17  C   UNL     1       5.141   3.764  14.942  0.00  0.00    +0.000 A 
ENDBRANCH   9  11
ENDBRANCH   6   7
BRANCH   1  18
ATOM     18  N   UNL     1       3.318   6.132  19.867  0.00  0.00    +0.000 N 
ATOM     19  H   UNL     1       4.254   6.398  20.175  0.00  0.00    +0.000 HD
BRANCH  18  20
ATOM     20  S   UNL     1       2.738   7.031  18.573  0.00  0.00    +0.000 S 
ATOM     21  O   UNL     1       1.832   6.170  17.845  0.00  0.00    +0.000 OA
ATOM     22  O   UNL     1       3.867   7.662  17.919  0.00  0.00    +0.000 OA
BRANCH  20  28
ATOM     23  O   UNL     1      -1.315  11.170  23.412  0.00  0.00    +0.000 OA
ATOM     24  C   UNL     1      -0.693  10.631  22.513  0.00  0.00    +0.000 C 
ATOM     25  C   UNL     1       0.137   9.347  22.618  0.00  0.00    +0.000 C 
ATOM     26  C   UNL     1       0.652   9.194  21.220  0.00  0.00    +0.000 A 
ATOM     27  C   UNL     1       1.454   8.209  20.682  0.00  0.00    +0.000 A 
ATOM     28  C   UNL     1       1.770   8.313  19.322  0.00  0.00    +0.000 A 
ATOM     29  C   UNL     1       1.267   9.363  18.521  0.00  0.00    +0.000 A 
ATOM     30  C   UNL     1       0.461  10.352  19.087  0.00  0.00    +0.000 A 
ATOM     31  C   UNL     1       0.173  10.239  20.429  0.00  0.00    +0.000 A 
ATOM     32  N   UNL     1      -0.612  11.078  21.200  0.00  0.00    +0.000 N 
ATOM     33  H   UNL     1      -1.090  11.907  20.878  0.00  0.00    +0.000 HD
ENDBRANCH  20  28
ENDBRANCH  18  20
ENDBRANCH   1  18
TORSDOF 5
ENDMDL
MODEL 2
REMARK VINA RESULT:      -8.8      0.926      1.570
REMARK  Name = 
REMARK  5 active torsions:
REMARK  status: ('A' for Active; 'I' for Inactive)
REMARK    1  A    between atoms: C_6  and  S_7
REMARK    2  A    between atoms: S_7  and  N_10
REMARK    3  A    between atoms: N_10  and  C_11
REMARK    4  A    between atoms: C_16  and  C_17
REMARK    5  A    between atoms: N_19  and  C_20
REMARK                            x       y       z     vdW  Elec       q    Type
REMARK                         _______ _______ _______ _____ _____    ______ ____
ROOT
ATOM      1  C   UNL     1       2.814   4.773  20.042  0.00  0.00    +0.000 A 
ATOM      2  C   UNL     1       1.641   4.496  20.762  0.00  0.00    +0.000 A 
ATOM      3  C   UNL     1       1.139   3.195  20.842  0.00  0.00    +0.000 A 
ATOM      4  C   UNL     1       1.792   2.156  20.190  0.00  0.00    +0.000 A 
ATOM      5  C   UNL     1       2.955   2.419  19.466  0.00  0.00    +0.000 A 
ATOM      6  C   UNL     1       3.484   3.722  19.391  0.00  0.00    +0.000 A 
ENDROOT
BRANCH   6   7
ATOM      7  C   UNL     1       4.666   3.877  18.495  0.00  0.00    +0.000 C 
ATOM      8  O   UNL     1       5.772   3.881  19.029  0.00  0.00    +0.000 OA
ATOM      9  N   UNL     1       4.410   4.094  17.157  0.00  0.00    +0.000 N 
ATOM     10  H   UNL     1       3.438   4.227  16.880  0.00  0.00    +0.000 HD
BRANCH   9  11
ATOM     11  C   UNL     1       5.360   4.323  16.140  0.00  0.00    +0.000 A 
ATOM     12  C   UNL     1       6.514   5.089  16.322  0.00  0.00    +0.000 A 
ATOM     13  C   UNL     1       7.365   5.353  15.247  0.00  0.00    +0.000 A 
ATOM     14  C   UNL     1       7.069   4.836  13.993  0.00  0.00    +0.000 A 
ATOM     15  F   UNL     1       7.868   5.120  12.957  0.00  0.00    +0.000 F 
ATOM     16  C   UNL     1       5.955   4.032  13.801  0.00  0.00    +0.000 A 
ATOM     17  C   UNL     1       5.105   3.765  14.878  0.00  0.00    +0.000 A 
ENDBRANCH   9  11
ENDBRANCH   6   7
BRANCH   1  18
ATOM     18  N   UNL     1       3.210   6.138  19.922  0.00  0.00    +0.000 N 
ATOM     19  H   UNL     1       4.118   6.404  20.306  0.00  0.00    +0.000 HD
BRANCH  18  20
ATOM     20  S   UNL     1       2.715   7.073  18.618  0.00  0.00    +0.000 S 
ATOM     21  O   UNL     1       1.891   6.222  17.789  0.00  0.00    +0.000 OA
ATOM     22  O   UNL     1       3.878   7.751  18.081  0.00  0.00    +0.000 OA
BRANCH  20  28
ATOM     23  O   UNL     1      -1.522  13.216  19.752  0.00  0.00    +0.000 OA
ATOM     24  C   UNL     1      -0.874  12.184  19.738  0.00  0.00    +0.000 C 
ATOM     25  C   UNL     1      -0.178  11.557  18.525  0.00  0.00    +0.000 C 
ATOM     26  C   UNL     1       0.433  10.326  19.118  0.00  0.00    +0.000 A 
ATOM     27  C   UNL     1       1.205   9.352  18.519  0.00  0.00    +0.000 A 
ATOM     28  C   UNL     1       1.661   8.306  19.331  0.00  0.00    +0.000 A 
ATOM     29  C   UNL     1       1.372   8.261  20.713  0.00  0.00    +0.000 A 
ATOM     30  C   UNL     1       0.585   9.254  21.299  0.00  0.00    +0.000 A 
ATOM     31  C   UNL     1       0.136  10.266  20.480  0.00  0.00    +0.000 A 
ATOM     32  N   UNL     1      -0.636  11.360  20.831  0.00  0.00    +0.000 N 
ATOM     33  H   UNL     1      -0.984  11.569  21.755  0.00  0.00    +0.000 HD
ENDBRANCH  20  28
ENDBRANCH  18  20
ENDBRANCH   1  18
TORSDOF 5
ENDMDL
MODEL 3
REMARK VINA RESULT:      -8.0      3.914      8.834
REMARK  Name = 
REMARK  5 active torsions:
REMARK  status: ('A' for Active; 'I' for Inactive)
REMARK    1  A    between atoms: C_6  and  S_7
REMARK    2  A    between atoms: S_7  and  N_10
REMARK    3  A    between atoms: N_10  and  C_11
REMARK    4  A    between atoms: C_16  and  C_17
REMARK    5  A    between atoms: N_19  and  C_20
REMARK                            x       y       z     vdW  Elec       q    Type
REMARK                         _______ _______ _______ _____ _____    ______ ____
ROOT
ATOM      1  C   UNL     1      -1.038  11.576  21.666  0.00  0.00    +0.000 A 
ATOM      2  C   UNL     1      -1.150  11.858  23.036  0.00  0.00    +0.000 A 
ATOM      3  C   UNL     1      -2.224  12.603  23.530  0.00  0.00    +0.000 A 
ATOM      4  C   UNL     1      -3.190  13.091  22.657  0.00  0.00    +0.000 A 
ATOM      5  C   UNL     1      -3.086  12.823  21.293  0.00  0.00    +0.000 A 
ATOM      6  C   UNL     1      -2.019  12.058  20.783  0.00  0.00    +0.000 A 
ENDROOT
BRANCH   6   7
ATOM      7  C   UNL     1      -1.974  11.944  19.297  0.00  0.00    +0.000 C 
ATOM      8  O   UNL     1      -1.177  12.670  18.707  0.00  0.00    +0.000 OA
ATOM      9  N   UNL     1      -2.894  11.102  18.708  0.00  0.00    +0.000 N 
ATOM     10  H   UNL     1      -3.602  10.685  19.309  0.00  0.00    +0.000 HD
BRANCH   9  11
ATOM     11  C   UNL     1      -3.074  10.879  17.326  0.00  0.00    +0.000 A 
ATOM     12  C   UNL     1      -4.080  11.491  16.573  0.00  0.00    +0.000 A 
ATOM     13  C   UNL     1      -4.260  11.154  15.229  0.00  0.00    +0.000 A 
ATOM     14  C   UNL     1      -3.425  10.217  14.637  0.00  0.00    +0.000 A 
ATOM     15  F   UNL     1      -3.622   9.871  13.359  0.00  0.00    +0.000 F 
ATOM     16  C   UNL     1      -2.390   9.634  15.354  0.00  0.00    +0.000 A 
ATOM     17  C   UNL     1      -2.206   9.974  16.697  0.00  0.00    +0.000 A 
ENDBRANCH   9  11
ENDBRANCH   6   7
BRANCH   1  18
ATOM     18  N   UNL     1       0.137  10.896  21.224  0.00  0.00    +0.000 N 
ATOM     19  H   UNL     1       0.952  11.463  20.987  0.00  0.00    +0.000 HD
BRANCH  18  20
ATOM     20  S   UNL     1       0.508   9.357  21.781  0.00  0.00    +0.000 S 
ATOM     21  O   UNL     1      -0.751   8.680  21.997  0.00  0.00    +0.000 OA
ATOM     22  O   UNL     1       1.487   9.484  22.842  0.00  0.00    +0.000 OA
BRANCH  20  28
ATOM     23  O   UNL     1       4.468   4.618  17.441  0.00  0.00    +0.000 OA
ATOM     24  C   UNL     1       3.809   5.480  17.995  0.00  0.00    +0.000 C 
ATOM     25  C   UNL     1       3.310   5.462  19.445  0.00  0.00    +0.000 C 
ATOM     26  C   UNL     1       2.571   6.760  19.536  0.00  0.00    +0.000 A 
ATOM     27  C   UNL     1       1.906   7.319  20.608  0.00  0.00    +0.000 A 
ATOM     28  C   UNL     1       1.309   8.570  20.410  0.00  0.00    +0.000 A 
ATOM     29  C   UNL     1       1.405   9.250  19.176  0.00  0.00    +0.000 A 
ATOM     30  C   UNL     1       2.078   8.665  18.102  0.00  0.00    +0.000 A 
ATOM     31  C   UNL     1       2.646   7.428  18.314  0.00  0.00    +0.000 A 
ATOM     32  N   UNL     1       3.372   6.665  17.416  0.00  0.00    +0.000 N 
ATOM     33  H   UNL     1       3.587   6.914  16.461  0.00  0.00    +0.000 HD
ENDBRANCH  20  28
ENDBRANCH  18  20
ENDBRANCH   1  18
TORSDOF 5
ENDMDL
MODEL 4
REMARK VINA RESULT:      -8.0      3.795      5.023
REMARK  Name = 
REMARK  5 active torsions:
REMARK  status: ('A' for Active; 'I' for Inactive)
REMARK    1  A    between atoms: C_6  and  S_7
REMARK    2  A    between atoms: S_7  and  N_10
REMARK    3  A    between atoms: N_10  and  C_11
REMARK    4  A    between atoms: C_16  and  C_17
REMARK    5  A    between atoms: N_19  and  C_20
REMARK                            x       y       z     vdW  Elec       q    Type
REMARK                         _______ _______ _______ _____ _____    ______ ____
ROOT
ATOM      1  C   UNL     1       5.324   5.957  17.080  0.00  0.00    +0.000 A 
ATOM      2  C   UNL     1       4.687   5.077  16.191  0.00  0.00    +0.000 A 
ATOM      3  C   UNL     1       5.427   4.304  15.293  0.00  0.00    +0.000 A 
ATOM      4  C   UNL     1       6.812   4.413  15.259  0.00  0.00    +0.000 A 
ATOM      5  C   UNL     1       7.457   5.289  16.132  0.00  0.00    +0.000 A 
ATOM      6  C   UNL     1       6.726   6.061  17.056  0.00  0.00    +0.000 A 
ENDROOT
BRANCH   6   7
ATOM      7  C   UNL     1       7.533   7.032  17.849  0.00  0.00    +0.000 C 
ATOM      8  O   UNL     1       8.001   6.630  18.911  0.00  0.00    +0.000 OA
ATOM      9  N   UNL     1       7.606   8.322  17.368  0.00  0.00    +0.000 N 
ATOM     10  H   UNL     1       7.034   8.555  16.557  0.00  0.00    +0.000 HD
BRANCH   9  11
ATOM     11  C   UNL     1       8.260   9.417  17.973  0.00  0.00    +0.000 A 
ATOM     12  C   UNL     1       9.025   9.308  19.137  0.00  0.00    +0.000 A 
ATOM     13  C   UNL     1       9.567  10.447  19.736  0.00  0.00    +0.000 A 
ATOM     14  C   UNL     1       9.356  11.693  19.161  0.00  0.00    +0.000 A 
ATOM     15  F   UNL     1       9.847  12.787  19.755  0.00  0.00    +0.000 F 
ATOM     16  C   UNL     1       8.640  11.817  17.978  0.00  0.00    +0.000 A 
ATOM     17  C   UNL     1       8.101  10.677  17.377  0.00  0.00    +0.000 A 
ENDBRANCH   9  11
ENDBRANCH   6   7
BRANCH   1  18
ATOM     18  N   UNL     1       4.499   6.786  17.897  0.00  0.00    +0.000 N 
ATOM     19  H   UNL     1       4.383   7.761  17.619  0.00  0.00    +0.000 HD
BRANCH  18  20
ATOM     20  S   UNL     1       3.189   6.149  18.733  0.00  0.00    +0.000 S 
ATOM     21  O   UNL     1       3.723   5.520  19.920  0.00  0.00    +0.000 OA
ATOM     22  O   UNL     1       2.369   5.412  17.793  0.00  0.00    +0.000 OA
BRANCH  20  28
ATOM     23  O   UNL     1      -1.019  11.015  22.682  0.00  0.00    +0.000 OA
ATOM     24  C   UNL     1      -0.346  10.349  21.914  0.00  0.00    +0.000 C 
ATOM     25  C   UNL     1       0.343   9.015  22.221  0.00  0.00    +0.000 C 
ATOM     26  C   UNL     1       1.007   8.699  20.918  0.00  0.00    +0.000 A 
ATOM     27  C   UNL     1       1.774   7.609  20.563  0.00  0.00    +0.000 A 
ATOM     28  C   UNL     1       2.261   7.567  19.251  0.00  0.00    +0.000 A 
ATOM     29  C   UNL     1       1.960   8.582  18.316  0.00  0.00    +0.000 A 
ATOM     30  C   UNL     1       1.186   9.680  18.696  0.00  0.00    +0.000 A 
ATOM     31  C   UNL     1       0.727   9.708  19.995  0.00  0.00    +0.000 A 
ATOM     32  N   UNL     1      -0.064  10.673  20.593  0.00  0.00    +0.000 N 
ATOM     33  H   UNL     1      -0.419  11.508  20.150  0.00  0.00    +0.000 HD
ENDBRANCH  20  28
ENDBRANCH  18  20
ENDBRANCH   1  18
TORSDOF 5
ENDMDL
MODEL 5
REMARK VINA RESULT:      -7.9      5.026     10.665
REMARK  Name = 
REMARK  5 active torsions:
REMARK  status: ('A' for Active; 'I' for Inactive)
REMARK    1  A    between atoms: C_6  and  S_7
REMARK    2  A    between atoms: S_7  and  N_10
REMARK    3  A    between atoms: N_10  and  C_11
REMARK    4  A    between atoms: C_16  and  C_17
REMARK    5  A    between atoms: N_19  and  C_20
REMARK                            x       y       z     vdW  Elec       q    Type
REMARK                         _______ _______ _______ _____ _____    ______ ____
ROOT
ATOM      1  C   UNL     1      -1.315  11.085  18.493  0.00  0.00    +0.000 A 
ATOM      2  C   UNL     1      -1.486  10.098  17.509  0.00  0.00    +0.000 A 
ATOM      3  C   UNL     1      -2.743   9.847  16.955  0.00  0.00    +0.000 A 
ATOM      4  C   UNL     1      -3.850  10.567  17.390  0.00  0.00    +0.000 A 
ATOM      5  C   UNL     1      -3.695  11.545  18.371  0.00  0.00    +0.000 A 
ATOM      6  C   UNL     1      -2.431  11.823  18.926  0.00  0.00    +0.000 A 
ENDROOT
BRANCH   6   7
ATOM      7  C   UNL     1      -2.431  12.813  20.041  0.00  0.00    +0.000 C 
ATOM      8  O   UNL     1      -1.398  13.456  20.213  0.00  0.00    +0.000 OA
ATOM      9  N   UNL     1      -3.555  12.856  20.837  0.00  0.00    +0.000 N 
ATOM     10  H   UNL     1      -4.274  12.151  20.676  0.00  0.00    +0.000 HD
BRANCH   9  11
ATOM     11  C   UNL     1      -3.757  13.666  21.975  0.00  0.00    +0.000 A 
ATOM     12  C   UNL     1      -4.423  14.893  21.938  0.00  0.00    +0.000 A 
ATOM     13  C   UNL     1      -4.506  15.688  23.083  0.00  0.00    +0.000 A 
ATOM     14  C   UNL     1      -3.936  15.247  24.269  0.00  0.00    +0.000 A 
ATOM     15  F   UNL     1      -3.986  16.026  25.356  0.00  0.00    +0.000 F 
ATOM     16  C   UNL     1      -3.312  14.009  24.339  0.00  0.00    +0.000 A 
ATOM     17  C   UNL     1      -3.232  13.212  23.194  0.00  0.00    +0.000 A 
ENDBRANCH   9  11
ENDBRANCH   6   7
BRANCH   1  18
ATOM     18  N   UNL     1      -0.022  11.216  19.082  0.00  0.00    +0.000 N 
ATOM     19  H   UNL     1       0.402  12.144  19.093  0.00  0.00    +0.000 HD
BRANCH  18  20
ATOM     20  S   UNL     1       0.456  10.226  20.351  0.00  0.00    +0.000 S 
ATOM     21  O   UNL     1      -0.749   9.637  20.892  0.00  0.00    +0.000 OA
ATOM     22  O   UNL     1       1.371  10.975  21.188  0.00  0.00    +0.000 OA
BRANCH  20  28
ATOM     23  O   UNL     1       4.227   3.834  18.973  0.00  0.00    +0.000 OA
ATOM     24  C   UNL     1       3.659   4.910  19.029  0.00  0.00    +0.000 C 
ATOM     25  C   UNL     1       2.817   5.442  20.195  0.00  0.00    +0.000 C 
ATOM     26  C   UNL     1       2.388   6.782  19.684  0.00  0.00    +0.000 A 
ATOM     27  C   UNL     1       1.615   7.748  20.293  0.00  0.00    +0.000 A 
ATOM     28  C   UNL     1       1.383   8.929  19.576  0.00  0.00    +0.000 A 
ATOM     29  C   UNL     1       1.939   9.140  18.295  0.00  0.00    +0.000 A 
ATOM     30  C   UNL     1       2.715   8.147  17.694  0.00  0.00    +0.000 A 
ATOM     31  C   UNL     1       2.920   6.988  18.410  0.00  0.00    +0.000 A 
ATOM     32  N   UNL     1       3.660   5.881  18.035  0.00  0.00    +0.000 N 
ATOM     33  H   UNL     1       4.161   5.768  17.166  0.00  0.00    +0.000 HD
ENDBRANCH  20  28
ENDBRANCH  18  20
ENDBRANCH   1  18
TORSDOF 5
ENDMDL
MODEL 6
REMARK VINA RESULT:      -7.8      5.399     10.812
REMARK  Name = 
REMARK  5 active torsions:
REMARK  status: ('A' for Active; 'I' for Inactive)
REMARK    1  A    between atoms: C_6  and  S_7
REMARK    2  A    between atoms: S_7  and  N_10
REMARK    3  A    between atoms: N_10  and  C_11
REMARK    4  A    between atoms: C_16  and  C_17
REMARK    5  A    between atoms: N_19  and  C_20
REMARK                            x       y       z     vdW  Elec       q    Type
REMARK                         _______ _______ _______ _____ _____    ______ ____
ROOT
ATOM      1  C   UNL     1      -1.754  10.514  18.471  0.00  0.00    +0.000 A 
ATOM      2  C   UNL     1      -1.619   9.730  17.315  0.00  0.00    +0.000 A 
ATOM      3  C   UNL     1      -2.440   9.940  16.205  0.00  0.00    +0.000 A 
ATOM      4  C   UNL     1      -3.420  10.926  16.243  0.00  0.00    +0.000 A 
ATOM      5  C   UNL     1      -3.568  11.708  17.388  0.00  0.00    +0.000 A 
ATOM      6  C   UNL     1      -2.735  11.520  18.508  0.00  0.00    +0.000 A 
ENDROOT
BRANCH   6   7
ATOM      7  C   UNL     1      -3.077  12.349  19.699  0.00  0.00    +0.000 C 
ATOM      8  O   UNL     1      -2.183  12.539  20.520  0.00  0.00    +0.000 OA
ATOM      9  N   UNL     1      -4.390  12.752  19.822  0.00  0.00    +0.000 N 
ATOM     10  H   UNL     1      -5.061  12.385  19.148  0.00  0.00    +0.000 HD
BRANCH   9  11
ATOM     11  C   UNL     1      -4.954  13.489  20.886  0.00  0.00    +0.000 A 
ATOM     12  C   UNL     1      -4.693  14.844  21.106  0.00  0.00    +0.000 A 
ATOM     13  C   UNL     1      -5.210  15.489  22.232  0.00  0.00    +0.000 A 
ATOM     14  C   UNL     1      -6.000  14.783  23.127  0.00  0.00    +0.000 A 
ATOM     15  F   UNL     1      -6.466  15.394  24.223  0.00  0.00    +0.000 F 
ATOM     16  C   UNL     1      -6.311  13.449  22.901  0.00  0.00    +0.000 A 
ATOM     17  C   UNL     1      -5.798  12.804  21.773  0.00  0.00    +0.000 A 
ENDBRANCH   9  11
ENDBRANCH   6   7
BRANCH   1  18
ATOM     18  N   UNL     1      -0.948  10.175  19.599  0.00  0.00    +0.000 N 
ATOM     19  H   UNL     1      -1.194   9.334  20.122  0.00  0.00    +0.000 HD
BRANCH  18  20
ATOM     20  S   UNL     1       0.686  10.560  19.644  0.00  0.00    +0.000 S 
ATOM     21  O   UNL     1       1.009  10.827  21.028  0.00  0.00    +0.000 OA
ATOM     22  O   UNL     1       0.948  11.537  18.607  0.00  0.00    +0.000 OA
BRANCH  20  28
ATOM     23  O   UNL     1       3.783   3.677  19.700  0.00  0.00    +0.000 OA
ATOM     24  C   UNL     1       3.340   4.798  19.523  0.00  0.00    +0.000 C 
ATOM     25  C   UNL     1       2.486   5.610  20.504  0.00  0.00    +0.000 C 
ATOM     26  C   UNL     1       2.250   6.875  19.739  0.00  0.00    +0.000 A 
ATOM     27  C   UNL     1       1.553   8.007  20.107  0.00  0.00    +0.000 A 
ATOM     28  C   UNL     1       1.508   9.059  19.184  0.00  0.00    +0.000 A 
ATOM     29  C   UNL     1       2.172   8.983  17.939  0.00  0.00    +0.000 A 
ATOM     30  C   UNL     1       2.868   7.826  17.584  0.00  0.00    +0.000 A 
ATOM     31  C   UNL     1       2.888   6.798  18.500  0.00  0.00    +0.000 A 
ATOM     32  N   UNL     1       3.521   5.572  18.384  0.00  0.00    +0.000 N 
ATOM     33  H   UNL     1       4.064   5.257  17.593  0.00  0.00    +0.000 HD
ENDBRANCH  20  28
ENDBRANCH  18  20
ENDBRANCH   1  18
TORSDOF 5
ENDMDL
MODEL 7
REMARK VINA RESULT:      -7.8      5.749      8.634
REMARK  Name = 
REMARK  5 active torsions:
REMARK  status: ('A' for Active; 'I' for Inactive)
REMARK    1  A    between atoms: C_6  and  S_7
REMARK    2  A    between atoms: S_7  and  N_10
REMARK    3  A    between atoms: N_10  and  C_11
REMARK    4  A    between atoms: C_16  and  C_17
REMARK    5  A    between atoms: N_19  and  C_20
REMARK                            x       y       z     vdW  Elec       q    Type
REMARK                         _______ _______ _______ _____ _____    ______ ____
ROOT
ATOM      1  C   UNL     1       0.494   9.198  20.085  0.00  0.00    +0.000 A 
ATOM      2  C   UNL     1       1.466   8.209  20.308  0.00  0.00    +0.000 A 
ATOM      3  C   UNL     1       2.285   7.761  19.269  0.00  0.00    +0.000 A 
ATOM      4  C   UNL     1       2.132   8.282  17.989  0.00  0.00    +0.000 A 
ATOM      5  C   UNL     1       1.166   9.260  17.753  0.00  0.00    +0.000 A 
ATOM      6  C   UNL     1       0.345   9.735  18.794  0.00  0.00    +0.000 A 
ENDROOT
BRANCH   6   7
ATOM      7  C   UNL     1      -0.715  10.697  18.378  0.00  0.00    +0.000 C 
ATOM      8  O   UNL     1      -0.387  11.876  18.275  0.00  0.00    +0.000 OA
ATOM      9  N   UNL     1      -1.991  10.195  18.234  0.00  0.00    +0.000 N 
ATOM     10  H   UNL     1      -2.150   9.226  18.509  0.00  0.00    +0.000 HD
BRANCH   9  11
ATOM     11  C   UNL     1      -3.155  10.922  17.906  0.00  0.00    +0.000 A 
ATOM     12  C   UNL     1      -3.942  11.585  18.851  0.00  0.00    +0.000 A 
ATOM     13  C   UNL     1      -5.132  12.207  18.470  0.00  0.00    +0.000 A 
ATOM     14  C   UNL     1      -5.527  12.179  17.140  0.00  0.00    +0.000 A 
ATOM     15  F   UNL     1      -6.686  12.746  16.782  0.00  0.00    +0.000 F 
ATOM     16  C   UNL     1      -4.737  11.568  16.177  0.00  0.00    +0.000 A 
ATOM     17  C   UNL     1      -3.543  10.948  16.558  0.00  0.00    +0.000 A 
ENDBRANCH   9  11
ENDBRANCH   6   7
BRANCH   1  18
ATOM     18  N   UNL     1      -0.370   9.533  21.170  0.00  0.00    +0.000 N 
ATOM     19  H   UNL     1      -0.969   8.795  21.544  0.00  0.00    +0.000 HD
BRANCH  18  20
ATOM     20  S   UNL     1       0.061  10.704  22.292  0.00  0.00    +0.000 S 
ATOM     21  O   UNL     1       1.172  11.433  21.722  0.00  0.00    +0.000 OA
ATOM     22  O   UNL     1       0.161  10.071  23.591  0.00  0.00    +0.000 OA
BRANCH  20  28
ATOM     23  O   UNL     1      -6.463  14.072  24.046  0.00  0.00    +0.000 OA
ATOM     24  C   UNL     1      -5.395  13.651  23.636  0.00  0.00    +0.000 C 
ATOM     25  C   UNL     1      -4.563  12.517  24.245  0.00  0.00    +0.000 C 
ATOM     26  C   UNL     1      -3.383  12.468  23.326  0.00  0.00    +0.000 A 
ATOM     27  C   UNL     1      -2.285  11.633  23.350  0.00  0.00    +0.000 A 
ATOM     28  C   UNL     1      -1.328  11.804  22.342  0.00  0.00    +0.000 A 
ATOM     29  C   UNL     1      -1.489  12.769  21.323  0.00  0.00    +0.000 A 
ATOM     30  C   UNL     1      -2.605  13.608  21.320  0.00  0.00    +0.000 A 
ATOM     31  C   UNL     1      -3.527  13.432  22.328  0.00  0.00    +0.000 A 
ATOM     32  N   UNL     1      -4.710  14.123  22.523  0.00  0.00    +0.000 N 
ATOM     33  H   UNL     1      -5.066  14.869  21.942  0.00  0.00    +0.000 HD
ENDBRANCH  20  28
ENDBRANCH  18  20
ENDBRANCH   1  18
TORSDOF 5
ENDMDL
MODEL 8
REMARK VINA RESULT:      -7.7      7.370     10.942
REMARK  Name = 
REMARK  5 active torsions:
REMARK  status: ('A' for Active; 'I' for Inactive)
REMARK    1  A    between atoms: C_6  and  S_7
REMARK    2  A    between atoms: S_7  and  N_10
REMARK    3  A    between atoms: N_10  and  C_11
REMARK    4  A    between atoms: C_16  and  C_17
REMARK    5  A    between atoms: N_19  and  C_20
REMARK                            x       y       z     vdW  Elec       q    Type
REMARK                         _______ _______ _______ _____ _____    ______ ____
ROOT
ATOM      1  C   UNL     1      -4.054  15.140  22.772  0.00  0.00    +0.000 A 
ATOM      2  C   UNL     1      -4.822  15.968  23.606  0.00  0.00    +0.000 A 
ATOM      3  C   UNL     1      -4.318  16.421  24.828  0.00  0.00    +0.000 A 
ATOM      4  C   UNL     1      -3.048  16.037  25.241  0.00  0.00    +0.000 A 
ATOM      5  C   UNL     1      -2.277  15.209  24.424  0.00  0.00    +0.000 A 
ATOM      6  C   UNL     1      -2.764  14.760  23.181  0.00  0.00    +0.000 A 
ENDROOT
BRANCH   6   7
ATOM      7  C   UNL     1      -1.881  13.795  22.466  0.00  0.00    +0.000 C 
ATOM      8  O   UNL     1      -1.287  14.213  21.476  0.00  0.00    +0.000 OA
ATOM      9  N   UNL     1      -1.881  12.493  22.923  0.00  0.00    +0.000 N 
ATOM     10  H   UNL     1      -2.547  12.252  23.655  0.00  0.00    +0.000 HD
BRANCH   9  11
ATOM     11  C   UNL     1      -1.174  11.403  22.373  0.00  0.00    +0.000 A 
ATOM     12  C   UNL     1      -0.843  11.305  21.019  0.00  0.00    +0.000 A 
ATOM     13  C   UNL     1      -0.224  10.155  20.524  0.00  0.00    +0.000 A 
ATOM     14  C   UNL     1       0.077   9.110  21.388  0.00  0.00    +0.000 A 
ATOM     15  F   UNL     1       0.638   7.994  20.905  0.00  0.00    +0.000 F 
ATOM     16  C   UNL     1      -0.200   9.207  22.744  0.00  0.00    +0.000 A 
ATOM     17  C   UNL     1      -0.816  10.360  23.240  0.00  0.00    +0.000 A 
ENDBRANCH   9  11
ENDBRANCH   6   7
BRANCH   1  18
ATOM     18  N   UNL     1      -4.672  14.638  21.588  0.00  0.00    +0.000 N 
ATOM     19  H   UNL     1      -4.197  14.800  20.700  0.00  0.00    +0.000 HD
BRANCH  18  20
ATOM     20  S   UNL     1      -5.607  13.243  21.623  0.00  0.00    +0.000 S 
ATOM     21  O   UNL     1      -6.984  13.672  21.720  0.00  0.00    +0.000 OA
ATOM     22  O   UNL     1      -5.029  12.337  22.595  0.00  0.00    +0.000 OA
BRANCH  20  28
ATOM     23  O   UNL     1      -2.625  10.538  15.239  0.00  0.00    +0.000 OA
ATOM     24  C   UNL     1      -3.263  10.937  16.197  0.00  0.00    +0.000 C 
ATOM     25  C   UNL     1      -2.697  11.429  17.534  0.00  0.00    +0.000 C 
ATOM     26  C   UNL     1      -3.941  11.770  18.293  0.00  0.00    +0.000 A 
ATOM     27  C   UNL     1      -4.081  12.280  19.566  0.00  0.00    +0.000 A 
ATOM     28  C   UNL     1      -5.384  12.520  20.021  0.00  0.00    +0.000 A 
ATOM     29  C   UNL     1      -6.511  12.279  19.203  0.00  0.00    +0.000 A 
ATOM     30  C   UNL     1      -6.348  11.757  17.919  0.00  0.00    +0.000 A 
ATOM     31  C   UNL     1      -5.059  11.516  17.496  0.00  0.00    +0.000 A 
ATOM     32  N   UNL     1      -4.648  11.024  16.270  0.00  0.00    +0.000 N 
ATOM     33  H   UNL     1      -5.250  10.765  15.502  0.00  0.00    +0.000 HD
ENDBRANCH  20  28
ENDBRANCH  18  20
ENDBRANCH   1  18
TORSDOF 5
ENDMDL
MODEL 9
REMARK VINA RESULT:      -7.7      3.667      6.024
REMARK  Name = 
REMARK  5 active torsions:
REMARK  status: ('A' for Active; 'I' for Inactive)
REMARK    1  A    between atoms: C_6  and  S_7
REMARK    2  A    between atoms: S_7  and  N_10
REMARK    3  A    between atoms: N_10  and  C_11
REMARK    4  A    between atoms: C_16  and  C_17
REMARK    5  A    between atoms: N_19  and  C_20
REMARK                            x       y       z     vdW  Elec       q    Type
REMARK                         _______ _______ _______ _____ _____    ______ ____
ROOT
ATOM      1  C   UNL     1       0.581  10.857  20.835  0.00  0.00    +0.000 A 
ATOM      2  C   UNL     1      -0.137  11.343  21.939  0.00  0.00    +0.000 A 
ATOM      3  C   UNL     1      -0.695  10.468  22.874  0.00  0.00    +0.000 A 
ATOM      4  C   UNL     1      -0.558   9.095  22.708  0.00  0.00    +0.000 A 
ATOM      5  C   UNL     1       0.147   8.599  21.612  0.00  0.00    +0.000 A 
ATOM      6  C   UNL     1       0.731   9.468  20.671  0.00  0.00    +0.000 A 
ENDROOT
BRANCH   6   7
ATOM      7  C   UNL     1       1.359   8.801  19.494  0.00  0.00    +0.000 C 
ATOM      8  O   UNL     1       1.126   9.287  18.390  0.00  0.00    +0.000 OA
ATOM      9  N   UNL     1       2.070   7.645  19.739  0.00  0.00    +0.000 N 
ATOM     10  H   UNL     1       2.045   7.269  20.686  0.00  0.00    +0.000 HD
BRANCH   9  11
ATOM     11  C   UNL     1       2.698   6.819  18.782  0.00  0.00    +0.000 A 
ATOM     12  C   UNL     1       2.359   5.479  18.582  0.00  0.00    +0.000 A 
ATOM     13  C   UNL     1       3.084   4.693  17.684  0.00  0.00    +0.000 A 
ATOM     14  C   UNL     1       4.138   5.253  16.975  0.00  0.00    +0.000 A 
ATOM     15  F   UNL     1       4.853   4.489  16.140  0.00  0.00    +0.000 F 
ATOM     16  C   UNL     1       4.459   6.595  17.123  0.00  0.00    +0.000 A 
ATOM     17  C   UNL     1       3.731   7.383  18.019  0.00  0.00    +0.000 A 
ENDBRANCH   9  11
ENDBRANCH   6   7
BRANCH   1  18
ATOM     18  N   UNL     1       1.035  11.805  19.871  0.00  0.00    +0.000 N 
ATOM     19  H   UNL     1       1.626  11.464  19.111  0.00  0.00    +0.000 HD
BRANCH  18  20
ATOM     20  S   UNL     1       0.109  13.147  19.471  0.00  0.00    +0.000 S 
ATOM     21  O   UNL     1       0.719  13.738  18.301  0.00  0.00    +0.000 OA
ATOM     22  O   UNL     1      -0.111  13.919  20.678  0.00  0.00    +0.000 OA
BRANCH  20  28
ATOM     23  O   UNL     1      -7.174  11.184  19.175  0.00  0.00    +0.000 OA
ATOM     24  C   UNL     1      -5.980  11.408  19.072  0.00  0.00    +0.000 C 
ATOM     25  C   UNL     1      -5.141  12.324  19.971  0.00  0.00    +0.000 C 
ATOM     26  C   UNL     1      -3.781  12.201  19.357  0.00  0.00    +0.000 A 
ATOM     27  C   UNL     1      -2.590  12.786  19.735  0.00  0.00    +0.000 A 
ATOM     28  C   UNL     1      -1.455  12.476  18.976  0.00  0.00    +0.000 A 
ATOM     29  C   UNL     1      -1.514  11.579  17.886  0.00  0.00    +0.000 A 
ATOM     30  C   UNL     1      -2.730  11.001  17.517  0.00  0.00    +0.000 A 
ATOM     31  C   UNL     1      -3.837  11.330  18.268  0.00  0.00    +0.000 A 
ATOM     32  N   UNL     1      -5.134  10.875  18.109  0.00  0.00    +0.000 N 
ATOM     33  H   UNL     1      -5.454  10.227  17.403  0.00  0.00    +0.000 HD
ENDBRANCH  20  28
ENDBRANCH  18  20
ENDBRANCH   1  18
TORSDOF 5
ENDMDL
