MODEL 1
REMARK VINA RESULT:      -8.8      0.000      0.000
REMARK  Name = 
REMARK  5 active torsions:
REMARK  status: ('A' for Active; 'I' for Inactive)
REMARK    1  A    between atoms: C_1  and  C_2
REMARK    2  A    between atoms: C_4  and  C_5
REMARK    3  A    between atoms: C_9  and  N_10
REMARK    4  A    between atoms: C_11  and  C_13
REMARK    5  A    between atoms: C_25  and  C_26
REMARK                            x       y       z     vdW  Elec       q    Type
REMARK                         _______ _______ _______ _____ _____    ______ ____
ROOT
ATOM      1  N   UNL     1       7.071   7.786  17.207  0.00  0.00    +0.000 N 
ATOM      2  C   UNL     1       8.046   8.033  18.159  0.00  0.00    +0.000 C 
ATOM      3  O   UNL     1       8.554   7.224  18.932  0.00  0.00    +0.000 OA
ATOM      4  H   UNL     1       6.739   8.568  16.652  0.00  0.00    +0.000 HD
ENDROOT
BRANCH   2   5
ATOM      5  C   UNL     1       8.480   9.437  18.307  0.00  0.00    +0.000 A 
ATOM      6  C   UNL     1       7.879  10.384  17.474  0.00  0.00    +0.000 A 
ATOM      7  C   UNL     1       8.332  11.695  17.493  0.00  0.00    +0.000 A 
ATOM      8  C   UNL     1       9.283  12.083  18.446  0.00  0.00    +0.000 A 
ATOM      9  C   UNL     1       9.762  13.389  18.485  0.00  0.00    +0.000 A 
ATOM     10  C   UNL     1      10.321  13.858  19.662  0.00  0.00    +0.000 A 
ATOM     11  C   UNL     1      10.563  12.943  20.668  0.00  0.00    +0.000 A 
ATOM     12  N   UNL     1      10.357  11.610  20.541  0.00  0.00    +0.000 NA
ATOM     13  C   UNL     1       9.699  11.182  19.449  0.00  0.00    +0.000 A 
ATOM     14  C   UNL     1       9.375   9.840  19.301  0.00  0.00    +0.000 A 
ENDBRANCH   2   5
BRANCH   1  19
ATOM     15  C   UNL     1       4.784   4.861  17.635  0.00  0.00    +0.000 A 
ATOM     16  C   UNL     1       5.147   4.081  16.526  0.00  0.00    +0.000 A 
ATOM     17  C   UNL     1       6.139   4.508  15.652  0.00  0.00    +0.000 A 
ATOM     18  C   UNL     1       6.787   5.727  15.865  0.00  0.00    +0.000 A 
ATOM     19  C   UNL     1       6.441   6.531  16.958  0.00  0.00    +0.000 A 
ATOM     20  C   UNL     1       5.455   6.087  17.844  0.00  0.00    +0.000 A 
BRANCH  15  24
ATOM     21  C   UNL     1       2.086   3.561  21.537  0.00  0.00    +0.000 C 
ATOM     22  C   UNL     1       2.503   3.715  20.125  0.00  0.00    +0.000 A 
ATOM     23  N   UNL     1       3.613   4.445  19.799  0.00  0.00    +0.000 NA
ATOM     24  C   UNL     1       3.714   4.343  18.492  0.00  0.00    +0.000 A 
ATOM     25  O   UNL     1       2.712   3.601  17.912  0.00  0.00    +0.000 OA
ATOM     26  C   UNL     1       1.946   3.200  18.979  0.00  0.00    +0.000 A 
ATOM     27  C   UNL     1       0.770   2.351  18.714  0.00  0.00    +0.000 C 
ENDBRANCH  15  24
ENDBRANCH   1  19
TORSDOF 3
ENDMDL
MODEL 2
REMARK VINA RESULT:      -8.7      0.755      1.194
REMARK  Name = 
REMARK  5 active torsions:
REMARK  status: ('A' for Active; 'I' for Inactive)
REMARK    1  A    between atoms: C_1  and  C_2
REMARK    2  A    between atoms: C_4  and  C_5
REMARK    3  A    between atoms: C_9  and  N_10
REMARK    4  A    between atoms: C_11  and  C_13
REMARK    5  A    between atoms: C_25  and  C_26
REMARK                            x       y       z     vdW  Elec       q    Type
REMARK                         _______ _______ _______ _____ _____    ______ ____
ROOT
ATOM      1  N   UNL     1       7.187   7.783  17.125  0.00  0.00    +0.000 N 
ATOM      2  C   UNL     1       8.094   8.033  18.141  0.00  0.00    +0.000 C 
ATOM      3  O   UNL     1       8.557   7.225  18.941  0.00  0.00    +0.000 OA
ATOM      4  H   UNL     1       6.885   8.566  16.553  0.00  0.00    +0.000 HD
ENDROOT
BRANCH   2   5
ATOM      5  C   UNL     1       8.503   9.441  18.325  0.00  0.00    +0.000 A 
ATOM      6  C   UNL     1       7.916  10.394  17.489  0.00  0.00    +0.000 A 
ATOM      7  C   UNL     1       8.351  11.710  17.544  0.00  0.00    +0.000 A 
ATOM      8  C   UNL     1       9.264  12.095  18.533  0.00  0.00    +0.000 A 
ATOM      9  C   UNL     1       9.724  13.406  18.609  0.00  0.00    +0.000 A 
ATOM     10  C   UNL     1      10.238  13.863  19.810  0.00  0.00    +0.000 A 
ATOM     11  C   UNL     1      10.461  12.935  20.809  0.00  0.00    +0.000 A 
ATOM     12  N   UNL     1      10.277  11.602  20.654  0.00  0.00    +0.000 NA
ATOM     13  C   UNL     1       9.661  11.183  19.534  0.00  0.00    +0.000 A 
ATOM     14  C   UNL     1       9.361   9.839  19.354  0.00  0.00    +0.000 A 
ENDBRANCH   2   5
BRANCH   1  19
ATOM     15  C   UNL     1       4.857   4.869  17.335  0.00  0.00    +0.000 A 
ATOM     16  C   UNL     1       5.347   4.067  16.292  0.00  0.00    +0.000 A 
ATOM     17  C   UNL     1       6.436   4.477  15.534  0.00  0.00    +0.000 A 
ATOM     18  C   UNL     1       7.058   5.699  15.798  0.00  0.00    +0.000 A 
ATOM     19  C   UNL     1       6.587   6.524  16.827  0.00  0.00    +0.000 A 
ATOM     20  C   UNL     1       5.503   6.098  17.598  0.00  0.00    +0.000 A 
BRANCH  15  24
ATOM     21  C   UNL     1       0.866   2.322  18.667  0.00  0.00    +0.000 C 
ATOM     22  C   UNL     1       1.939   3.341  18.700  0.00  0.00    +0.000 A 
ATOM     23  N   UNL     1       2.952   3.320  17.781  0.00  0.00    +0.000 NA
ATOM     24  C   UNL     1       3.691   4.368  18.069  0.00  0.00    +0.000 A 
ATOM     25  O   UNL     1       3.246   5.084  19.155  0.00  0.00    +0.000 OA
ATOM     26  C   UNL     1       2.113   4.411  19.544  0.00  0.00    +0.000 A 
ATOM     27  C   UNL     1       1.353   4.931  20.696  0.00  0.00    +0.000 C 
ENDBRANCH  15  24
ENDBRANCH   1  19
TORSDOF 3
ENDMDL
MODEL 3
REMARK VINA RESULT:      -8.7      6.321      8.514
REMARK  Name = 
REMARK  5 active torsions:
REMARK  status: ('A' for Active; 'I' for Inactive)
REMARK    1  A    between atoms: C_1  and  C_2
REMARK    2  A    between atoms: C_4  and  C_5
REMARK    3  A    between atoms: C_9  and  N_10
REMARK    4  A    between atoms: C_11  and  C_13
REMARK    5  A    between atoms: C_25  and  C_26
REMARK                            x       y       z     vdW  Elec       q    Type
REMARK                         _______ _______ _______ _____ _____    ______ ____
ROOT
ATOM      1  N   UNL     1       2.172   8.398  18.582  0.00  0.00    +0.000 N 
ATOM      2  C   UNL     1       2.481   7.166  19.135  0.00  0.00    +0.000 C 
ATOM      3  O   UNL     1       1.916   6.607  20.071  0.00  0.00    +0.000 OA
ATOM      4  H   UNL     1       2.748   8.733  17.816  0.00  0.00    +0.000 HD
ENDROOT
BRANCH   2   5
ATOM      5  C   UNL     1       3.663   6.474  18.580  0.00  0.00    +0.000 A 
ATOM      6  C   UNL     1       4.265   5.496  19.374  0.00  0.00    +0.000 A 
ATOM      7  C   UNL     1       5.442   4.899  18.946  0.00  0.00    +0.000 A 
ATOM      8  C   UNL     1       5.931   5.178  17.664  0.00  0.00    +0.000 A 
ATOM      9  C   UNL     1       7.113   4.601  17.210  0.00  0.00    +0.000 A 
ATOM     10  C   UNL     1       7.333   4.518  15.846  0.00  0.00    +0.000 A 
ATOM     11  C   UNL     1       6.467   5.199  15.013  0.00  0.00    +0.000 A 
ATOM     12  N   UNL     1       5.467   5.999  15.456  0.00  0.00    +0.000 NA
ATOM     13  C   UNL     1       5.183   5.973  16.770  0.00  0.00    +0.000 A 
ATOM     14  C   UNL     1       4.113   6.699  17.276  0.00  0.00    +0.000 A 
ENDBRANCH   2   5
BRANCH   1  19
ATOM     15  C   UNL     1      -0.964  10.429  18.524  0.00  0.00    +0.000 A 
ATOM     16  C   UNL     1      -0.937  10.988  19.811  0.00  0.00    +0.000 A 
ATOM     17  C   UNL     1       0.105  10.706  20.685  0.00  0.00    +0.000 A 
ATOM     18  C   UNL     1       1.142   9.856  20.294  0.00  0.00    +0.000 A 
ATOM     19  C   UNL     1       1.139   9.278  19.019  0.00  0.00    +0.000 A 
ATOM     20  C   UNL     1       0.097   9.579  18.137  0.00  0.00    +0.000 A 
BRANCH  15  24
ATOM     21  C   UNL     1      -5.323  12.047  16.920  0.00  0.00    +0.000 C 
ATOM     22  C   UNL     1      -3.991  11.402  16.909  0.00  0.00    +0.000 A 
ATOM     23  N   UNL     1      -3.176  11.462  18.007  0.00  0.00    +0.000 NA
ATOM     24  C   UNL     1      -2.112  10.764  17.676  0.00  0.00    +0.000 A 
ATOM     25  O   UNL     1      -2.152  10.257  16.399  0.00  0.00    +0.000 OA
ATOM     26  C   UNL     1      -3.372  10.672  15.924  0.00  0.00    +0.000 A 
ATOM     27  C   UNL     1      -3.759  10.277  14.557  0.00  0.00    +0.000 C 
ENDBRANCH  15  24
ENDBRANCH   1  19
TORSDOF 3
ENDMDL
MODEL 4
REMARK VINA RESULT:      -8.7      5.039      7.301
REMARK  Name = 
REMARK  5 active torsions:
REMARK  status: ('A' for Active; 'I' for Inactive)
REMARK    1  A    between atoms: C_1  and  C_2
REMARK    2  A    between atoms: C_4  and  C_5
REMARK    3  A    between atoms: C_9  and  N_10
REMARK    4  A    between atoms: C_11  and  C_13
REMARK    5  A    between atoms: C_25  and  C_26
REMARK                            x       y       z     vdW  Elec       q    Type
REMARK                         _______ _______ _______ _____ _____    ______ ____
ROOT
ATOM      1  N   UNL     1       4.415   6.896  17.631  0.00  0.00    +0.000 N 
ATOM      2  C   UNL     1       3.302   6.544  18.374  0.00  0.00    +0.000 C 
ATOM      3  O   UNL     1       2.937   5.411  18.678  0.00  0.00    +0.000 OA
ATOM      4  H   UNL     1       4.574   7.882  17.450  0.00  0.00    +0.000 HD
ENDROOT
BRANCH   2   5
ATOM      5  C   UNL     1       2.418   7.649  18.798  0.00  0.00    +0.000 A 
ATOM      6  C   UNL     1       1.931   8.499  17.802  0.00  0.00    +0.000 A 
ATOM      7  C   UNL     1       1.192   9.617  18.161  0.00  0.00    +0.000 A 
ATOM      8  C   UNL     1       0.821   9.800  19.498  0.00  0.00    +0.000 A 
ATOM      9  C   UNL     1       0.087  10.915  19.889  0.00  0.00    +0.000 A 
ATOM     10  C   UNL     1      -0.638  10.855  21.067  0.00  0.00    +0.000 A 
ATOM     11  C   UNL     1      -0.429   9.771  21.897  0.00  0.00    +0.000 A 
ATOM     12  N   UNL     1       0.494   8.808  21.661  0.00  0.00    +0.000 NA
ATOM     13  C   UNL     1       1.100   8.806  20.461  0.00  0.00    +0.000 A 
ATOM     14  C   UNL     1       1.989   7.795  20.120  0.00  0.00    +0.000 A 
ENDBRANCH   2   5
BRANCH   1  19
ATOM     15  C   UNL     1       5.978   4.597  15.134  0.00  0.00    +0.000 A 
ATOM     16  C   UNL     1       7.149   4.229  15.814  0.00  0.00    +0.000 A 
ATOM     17  C   UNL     1       7.417   4.725  17.083  0.00  0.00    +0.000 A 
ATOM     18  C   UNL     1       6.523   5.603  17.699  0.00  0.00    +0.000 A 
ATOM     19  C   UNL     1       5.351   5.995  17.042  0.00  0.00    +0.000 A 
ATOM     20  C   UNL     1       5.077   5.478  15.773  0.00  0.00    +0.000 A 
BRANCH  15  24
ATOM     21  C   UNL     1       3.971   3.060  10.914  0.00  0.00    +0.000 C 
ATOM     22  C   UNL     1       4.992   3.318  11.954  0.00  0.00    +0.000 A 
ATOM     23  N   UNL     1       4.683   4.039  13.074  0.00  0.00    +0.000 NA
ATOM     24  C   UNL     1       5.785   4.042  13.790  0.00  0.00    +0.000 A 
ATOM     25  O   UNL     1       6.836   3.381  13.199  0.00  0.00    +0.000 OA
ATOM     26  C   UNL     1       6.304   2.917  12.021  0.00  0.00    +0.000 A 
ATOM     27  C   UNL     1       7.172   2.128  11.127  0.00  0.00    +0.000 C 
ENDBRANCH  15  24
ENDBRANCH   1  19
TORSDOF 3
ENDMDL
MODEL 5
REMARK VINA RESULT:      -8.5      6.842      9.136
REMARK  Name = 
REMARK  5 active torsions:
REMARK  status: ('A' for Active; 'I' for Inactive)
REMARK    1  A    between atoms: C_1  and  C_2
REMARK    2  A    between atoms: C_4  and  C_5
REMARK    3  A    between atoms: C_9  and  N_10
REMARK    4  A    between atoms: C_11  and  C_13
REMARK    5  A    between atoms: C_25  and  C_26
REMARK                            x       y       z     vdW  Elec       q    Type
REMARK                         _______ _______ _______ _____ _____    ______ ____
ROOT
ATOM      1  N   UNL     1       1.785   9.129  17.865  0.00  0.00    +0.000 N 
ATOM      2  C   UNL     1       2.119   8.078  18.703  0.00  0.00    +0.000 C 
ATOM      3  O   UNL     1       1.903   7.989  19.909  0.00  0.00    +0.000 OA
ATOM      4  H   UNL     1       2.047   9.060  16.887  0.00  0.00    +0.000 HD
ENDROOT
BRANCH   2   5
ATOM      5  C   UNL     1       2.874   6.965  18.092  0.00  0.00    +0.000 A 
ATOM      6  C   UNL     1       2.320   5.686  18.186  0.00  0.00    +0.000 A 
ATOM      7  C   UNL     1       3.043   4.594  17.729  0.00  0.00    +0.000 A 
ATOM      8  C   UNL     1       4.251   4.800  17.052  0.00  0.00    +0.000 A 
ATOM      9  C   UNL     1       5.003   3.724  16.589  0.00  0.00    +0.000 A 
ATOM     10  C   UNL     1       5.911   3.937  15.566  0.00  0.00    +0.000 A 
ATOM     11  C   UNL     1       6.174   5.243  15.201  0.00  0.00    +0.000 A 
ATOM     12  N   UNL     1       5.654   6.322  15.834  0.00  0.00    +0.000 NA
ATOM     13  C   UNL     1       4.682   6.107  16.737  0.00  0.00    +0.000 A 
ATOM     14  C   UNL     1       4.044   7.174  17.356  0.00  0.00    +0.000 A 
ENDBRANCH   2   5
BRANCH   1  19
ATOM     15  C   UNL     1      -0.944  11.543  18.697  0.00  0.00    +0.000 A 
ATOM     16  C   UNL     1      -0.194  12.682  19.028  0.00  0.00    +0.000 A 
ATOM     17  C   UNL     1       1.194  12.659  18.970  0.00  0.00    +0.000 A 
ATOM     18  C   UNL     1       1.863  11.495  18.584  0.00  0.00    +0.000 A 
ATOM     19  C   UNL     1       1.142  10.341  18.256  0.00  0.00    +0.000 A 
ATOM     20  C   UNL     1      -0.254  10.375  18.298  0.00  0.00    +0.000 A 
BRANCH  15  24
ATOM     21  C   UNL     1      -5.765  11.383  17.736  0.00  0.00    +0.000 C 
ATOM     22  C   UNL     1      -4.500  11.650  18.456  0.00  0.00    +0.000 A 
ATOM     23  N   UNL     1      -3.304  11.216  17.954  0.00  0.00    +0.000 NA
ATOM     24  C   UNL     1      -2.402  11.650  18.807  0.00  0.00    +0.000 A 
ATOM     25  O   UNL     1      -2.929  12.334  19.877  0.00  0.00    +0.000 OA
ATOM     26  C   UNL     1      -4.280  12.329  19.630  0.00  0.00    +0.000 A 
ATOM     27  C   UNL     1      -5.167  13.009  20.592  0.00  0.00    +0.000 C 
ENDBRANCH  15  24
ENDBRANCH   1  19
TORSDOF 3
ENDMDL
MODEL 6
REMARK VINA RESULT:      -8.3      6.372      8.544
REMARK  Name = 
REMARK  5 active torsions:
REMARK  status: ('A' for Active; 'I' for Inactive)
REMARK    1  A    between atoms: C_1  and  C_2
REMARK    2  A    between atoms: C_4  and  C_5
REMARK    3  A    between atoms: C_9  and  N_10
REMARK    4  A    between atoms: C_11  and  C_13
REMARK    5  A    between atoms: C_25  and  C_26
REMARK                            x       y       z     vdW  Elec       q    Type
REMARK                         _______ _______ _______ _____ _____    ______ ____
ROOT
ATOM      1  N   UNL     1       2.189   8.411  18.492  0.00  0.00    +0.000 N 
ATOM      2  C   UNL     1       2.468   7.193  19.089  0.00  0.00    +0.000 C 
ATOM      3  O   UNL     1       1.847   6.651  19.999  0.00  0.00    +0.000 OA
ATOM      4  H   UNL     1       2.809   8.734  17.756  0.00  0.00    +0.000 HD
ENDROOT
BRANCH   2   5
ATOM      5  C   UNL     1       3.683   6.495  18.622  0.00  0.00    +0.000 A 
ATOM      6  C   UNL     1       4.242   5.541  19.475  0.00  0.00    +0.000 A 
ATOM      7  C   UNL     1       5.445   4.941  19.132  0.00  0.00    +0.000 A 
ATOM      8  C   UNL     1       6.009   5.192  17.875  0.00  0.00    +0.000 A 
ATOM      9  C   UNL     1       7.219   4.611  17.506  0.00  0.00    +0.000 A 
ATOM     10  C   UNL     1       7.519   4.497  16.160  0.00  0.00    +0.000 A 
ATOM     11  C   UNL     1       6.701   5.152  15.260  0.00  0.00    +0.000 A 
ATOM     12  N   UNL     1       5.673   5.956  15.623  0.00  0.00    +0.000 NA
ATOM     13  C   UNL     1       5.311   5.960  16.918  0.00  0.00    +0.000 A 
ATOM     14  C   UNL     1       4.209   6.691  17.342  0.00  0.00    +0.000 A 
ENDBRANCH   2   5
BRANCH   1  19
ATOM     15  C   UNL     1      -1.021  10.310  18.259  0.00  0.00    +0.000 A 
ATOM     16  C   UNL     1      -1.003  11.004  19.478  0.00  0.00    +0.000 A 
ATOM     17  C   UNL     1       0.057  10.856  20.363  0.00  0.00    +0.000 A 
ATOM     18  C   UNL     1       1.121  10.007  20.051  0.00  0.00    +0.000 A 
ATOM     19  C   UNL     1       1.127   9.295  18.846  0.00  0.00    +0.000 A 
ATOM     20  C   UNL     1       0.067   9.463  17.951  0.00  0.00    +0.000 A 
BRANCH  15  24
ATOM     21  C   UNL     1      -4.062  10.402  14.394  0.00  0.00    +0.000 C 
ATOM     22  C   UNL     1      -3.551  10.622  15.765  0.00  0.00    +0.000 A 
ATOM     23  N   UNL     1      -2.352  10.096  16.158  0.00  0.00    +0.000 NA
ATOM     24  C   UNL     1      -2.189  10.511  17.395  0.00  0.00    +0.000 A 
ATOM     25  O   UNL     1      -3.231  11.271  17.870  0.00  0.00    +0.000 OA
ATOM     26  C   UNL     1      -4.095  11.337  16.805  0.00  0.00    +0.000 A 
ATOM     27  C   UNL     1      -5.340  12.112  16.964  0.00  0.00    +0.000 C 
ENDBRANCH  15  24
ENDBRANCH   1  19
TORSDOF 3
ENDMDL
MODEL 7
REMARK VINA RESULT:      -8.3      6.795      9.051
REMARK  Name = 
REMARK  5 active torsions:
REMARK  status: ('A' for Active; 'I' for Inactive)
REMARK    1  A    between atoms: C_1  and  C_2
REMARK    2  A    between atoms: C_4  and  C_5
REMARK    3  A    between atoms: C_9  and  N_10
REMARK    4  A    between atoms: C_11  and  C_13
REMARK    5  A    between atoms: C_25  and  C_26
REMARK                            x       y       z     vdW  Elec       q    Type
REMARK                         _______ _______ _______ _____ _____    ______ ____
ROOT
ATOM      1  N   UNL     1       1.863   9.319  17.847  0.00  0.00    +0.000 N 
ATOM      2  C   UNL     1       2.104   8.246  18.689  0.00  0.00    +0.000 C 
ATOM      3  O   UNL     1       1.824   8.157  19.882  0.00  0.00    +0.000 OA
ATOM      4  H   UNL     1       2.171   9.246  16.883  0.00  0.00    +0.000 HD
ENDROOT
BRANCH   2   5
ATOM      5  C   UNL     1       2.836   7.104  18.104  0.00  0.00    +0.000 A 
ATOM      6  C   UNL     1       2.248   5.841  18.217  0.00  0.00    +0.000 A 
ATOM      7  C   UNL     1       2.947   4.723  17.786  0.00  0.00    +0.000 A 
ATOM      8  C   UNL     1       4.165   4.886  17.115  0.00  0.00    +0.000 A 
ATOM      9  C   UNL     1       4.893   3.783  16.678  0.00  0.00    +0.000 A 
ATOM     10  C   UNL     1       5.813   3.954  15.658  0.00  0.00    +0.000 A 
ATOM     11  C   UNL     1       6.112   5.246  15.272  0.00  0.00    +0.000 A 
ATOM     12  N   UNL     1       5.615   6.350  15.881  0.00  0.00    +0.000 NA
ATOM     13  C   UNL     1       4.631   6.176  16.780  0.00  0.00    +0.000 A 
ATOM     14  C   UNL     1       4.015   7.270  17.374  0.00  0.00    +0.000 A 
ENDBRANCH   2   5
BRANCH   1  19
ATOM     15  C   UNL     1      -0.784  11.819  18.691  0.00  0.00    +0.000 A 
ATOM     16  C   UNL     1       0.001  12.951  18.957  0.00  0.00    +0.000 A 
ATOM     17  C   UNL     1       1.384  12.896  18.851  0.00  0.00    +0.000 A 
ATOM     18  C   UNL     1       2.015  11.706  18.482  0.00  0.00    +0.000 A 
ATOM     19  C   UNL     1       1.260  10.557  18.218  0.00  0.00    +0.000 A 
ATOM     20  C   UNL     1      -0.133  10.624  18.308  0.00  0.00    +0.000 A 
BRANCH  15  24
ATOM     21  C   UNL     1      -5.258  12.743  20.512  0.00  0.00    +0.000 C 
ATOM     22  C   UNL     1      -4.206  12.299  19.571  0.00  0.00    +0.000 A 
ATOM     23  N   UNL     1      -2.884  12.504  19.853  0.00  0.00    +0.000 NA
ATOM     24  C   UNL     1      -2.235  11.962  18.846  0.00  0.00    +0.000 A 
ATOM     25  O   UNL     1      -3.052  11.422  17.882  0.00  0.00    +0.000 OA
ATOM     26  C   UNL     1      -4.317  11.643  18.369  0.00  0.00    +0.000 A 
ATOM     27  C   UNL     1      -5.464  11.162  17.577  0.00  0.00    +0.000 C 
ENDBRANCH  15  24
ENDBRANCH   1  19
TORSDOF 3
ENDMDL
MODEL 8
REMARK VINA RESULT:      -8.3      5.012      7.257
REMARK  Name = 
REMARK  5 active torsions:
REMARK  status: ('A' for Active; 'I' for Inactive)
REMARK    1  A    between atoms: C_1  and  C_2
REMARK    2  A    between atoms: C_4  and  C_5
REMARK    3  A    between atoms: C_9  and  N_10
REMARK    4  A    between atoms: C_11  and  C_13
REMARK    5  A    between atoms: C_25  and  C_26
REMARK                            x       y       z     vdW  Elec       q    Type
REMARK                         _______ _______ _______ _____ _____    ______ ____
ROOT
ATOM      1  N   UNL     1       4.450   6.714  18.046  0.00  0.00    +0.000 N 
ATOM      2  C   UNL     1       3.222   6.321  18.551  0.00  0.00    +0.000 C 
ATOM      3  O   UNL     1       2.746   5.189  18.556  0.00  0.00    +0.000 OA
ATOM      4  H   UNL     1       4.696   7.697  18.103  0.00  0.00    +0.000 HD
ENDROOT
BRANCH   2   5
ATOM      5  C   UNL     1       2.360   7.394  19.089  0.00  0.00    +0.000 A 
ATOM      6  C   UNL     1       1.985   7.302  20.432  0.00  0.00    +0.000 A 
ATOM      7  C   UNL     1       1.086   8.220  20.953  0.00  0.00    +0.000 A 
ATOM      8  C   UNL     1       0.678   9.308  20.172  0.00  0.00    +0.000 A 
ATOM      9  C   UNL     1      -0.229  10.241  20.664  0.00  0.00    +0.000 A 
ATOM     10  C   UNL     1      -0.267  11.501  20.091  0.00  0.00    +0.000 A 
ATOM     11  C   UNL     1       0.449  11.699  18.927  0.00  0.00    +0.000 A 
ATOM     12  N   UNL     1       1.119  10.717  18.277  0.00  0.00    +0.000 NA
ATOM     13  C   UNL     1       1.255   9.535  18.904  0.00  0.00    +0.000 A 
ATOM     14  C   UNL     1       2.007   8.516  18.334  0.00  0.00    +0.000 A 
ENDBRANCH   2   5
BRANCH   1  19
ATOM     15  C   UNL     1       6.038   4.596  15.407  0.00  0.00    +0.000 A 
ATOM     16  C   UNL     1       7.224   4.217  16.055  0.00  0.00    +0.000 A 
ATOM     17  C   UNL     1       7.494   4.646  17.348  0.00  0.00    +0.000 A 
ATOM     18  C   UNL     1       6.587   5.468  18.022  0.00  0.00    +0.000 A 
ATOM     19  C   UNL     1       5.399   5.869  17.399  0.00  0.00    +0.000 A 
ATOM     20  C   UNL     1       5.124   5.419  16.104  0.00  0.00    +0.000 A 
BRANCH  15  24
ATOM     21  C   UNL     1       4.015   3.161  11.160  0.00  0.00    +0.000 C 
ATOM     22  C   UNL     1       5.048   3.442  12.182  0.00  0.00    +0.000 A 
ATOM     23  N   UNL     1       4.719   4.058  13.358  0.00  0.00    +0.000 NA
ATOM     24  C   UNL     1       5.844   4.114  14.037  0.00  0.00    +0.000 A 
ATOM     25  O   UNL     1       6.926   3.592  13.368  0.00  0.00    +0.000 OA
ATOM     26  C   UNL     1       6.393   3.158  12.179  0.00  0.00    +0.000 A 
ATOM     27  C   UNL     1       7.292   2.511  11.206  0.00  0.00    +0.000 C 
ENDBRANCH  15  24
ENDBRANCH   1  19
TORSDOF 3
ENDMDL
MODEL 9
REMARK VINA RESULT:      -8.2      7.844      8.860
REMARK  Name = 
REMARK  5 active torsions:
REMARK  status: ('A' for Active; 'I' for Inactive)
REMARK    1  A    between atoms: C_1  and  C_2
REMARK    2  A    between atoms: C_4  and  C_5
REMARK    3  A    between atoms: C_9  and  N_10
REMARK    4  A    between atoms: C_11  and  C_13
REMARK    5  A    between atoms: C_25  and  C_26
REMARK                            x       y       z     vdW  Elec       q    Type
REMARK                         _______ _______ _______ _____ _____    ______ ____
ROOT
ATOM      1  N   UNL     1       0.103  10.401  20.534  0.00  0.00    +0.000 N 
ATOM      2  C   UNL     1       0.484  11.586  21.141  0.00  0.00    +0.000 C 
ATOM      3  O   UNL     1       1.568  12.157  21.047  0.00  0.00    +0.000 OA
ATOM      4  H   UNL     1      -0.828  10.047  20.724  0.00  0.00    +0.000 HD
ENDROOT
BRANCH   2   5
ATOM      5  C   UNL     1      -0.500  12.203  22.054  0.00  0.00    +0.000 A 
ATOM      6  C   UNL     1      -1.495  11.375  22.578  0.00  0.00    +0.000 A 
ATOM      7  C   UNL     1      -2.508  11.928  23.347  0.00  0.00    +0.000 A 
ATOM      8  C   UNL     1      -2.442  13.280  23.707  0.00  0.00    +0.000 A 
ATOM      9  C   UNL     1      -3.448  13.865  24.471  0.00  0.00    +0.000 A 
ATOM     10  C   UNL     1      -3.159  15.019  25.180  0.00  0.00    +0.000 A 
ATOM     11  C   UNL     1      -1.954  15.644  24.927  0.00  0.00    +0.000 A 
ATOM     12  N   UNL     1      -1.078  15.237  23.977  0.00  0.00    +0.000 NA
ATOM     13  C   UNL     1      -1.305  14.051  23.386  0.00  0.00    +0.000 A 
ATOM     14  C   UNL     1      -0.399  13.533  22.470  0.00  0.00    +0.000 A 
ENDBRANCH   2   5
BRANCH   1  19
ATOM     15  C   UNL     1       2.112   7.477  19.357  0.00  0.00    +0.000 A 
ATOM     16  C   UNL     1       2.515   7.930  18.091  0.00  0.00    +0.000 A 
ATOM     17  C   UNL     1       2.138   9.186  17.634  0.00  0.00    +0.000 A 
ATOM     18  C   UNL     1       1.345  10.017  18.430  0.00  0.00    +0.000 A 
ATOM     19  C   UNL     1       0.921   9.590  19.693  0.00  0.00    +0.000 A 
ATOM     20  C   UNL     1       1.318   8.332  20.156  0.00  0.00    +0.000 A 
BRANCH  15  24
ATOM     21  C   UNL     1       4.457   3.161  19.598  0.00  0.00    +0.000 C 
ATOM     22  C   UNL     1       3.475   4.227  19.897  0.00  0.00    +0.000 A 
ATOM     23  N   UNL     1       3.572   5.455  19.301  0.00  0.00    +0.000 NA
ATOM     24  C   UNL     1       2.538   6.131  19.751  0.00  0.00    +0.000 A 
ATOM     25  O   UNL     1       1.760   5.433  20.643  0.00  0.00    +0.000 OA
ATOM     26  C   UNL     1       2.375   4.208  20.719  0.00  0.00    +0.000 A 
ATOM     27  C   UNL     1       1.777   3.181  21.593  0.00  0.00    +0.000 C 
ENDBRANCH  15  24
ENDBRANCH   1  19
TORSDOF 3
ENDMDL
