MODEL 1
REMARK VINA RESULT:      -8.9      0.000      0.000
REMARK  Name = 
REMARK  2 active torsions:
REMARK  status: ('A' for Active; 'I' for Inactive)
REMARK    1  A    between atoms: C_7  and  C_8
REMARK    2  A    between atoms: C_8  and  C_9
REMARK                            x       y       z     vdW  Elec       q    Type
REMARK                         _______ _______ _______ _____ _____    ______ ____
ROOT
ATOM      1  C   UNL     1       1.774   8.895  18.412  0.00  0.00    +0.000 C 
ATOM      2  O   UNL     1       1.882   8.998  17.192  0.00  0.00    +0.000 OA
ATOM      3  N   UNL     1       1.229   9.921  19.190  0.00  0.00    +0.000 N 
ATOM      4  C   UNL     1       0.964  11.223  18.565  0.00  0.00    +0.000 C 
ATOM      5  C   UNL     1       1.320  12.362  19.498  0.00  0.00    +0.000 C 
ATOM      6  C   UNL     1       2.389  13.317  19.010  0.00  0.00    +0.000 C 
ATOM      7  C   UNL     1       0.989  13.813  19.187  0.00  0.00    +0.000 C 
ATOM      8  O   UNL     1       1.219  12.114  20.920  0.00  0.00    +0.000 OA
ATOM      9  C   UNL     1       0.580  10.951  21.272  0.00  0.00    +0.000 A 
ATOM     10  C   UNL     1      -0.079  10.932  22.502  0.00  0.00    +0.000 A 
ATOM     11  C   UNL     1      -0.623   9.741  22.981  0.00  0.00    +0.000 A 
ATOM     12  C   UNL     1      -0.505   8.574  22.234  0.00  0.00    +0.000 A 
ATOM     13  C   UNL     1       0.099   8.612  20.976  0.00  0.00    +0.000 A 
ATOM     14  C   UNL     1       0.659   9.798  20.484  0.00  0.00    +0.000 A 
ENDROOT
BRANCH   1  15
ATOM     15  C   UNL     1       2.267   7.639  19.133  0.00  0.00    +0.000 C 
BRANCH  15  22
ATOM     16  O   UNL     1       7.545   5.161  14.874  0.00  0.00    +0.000 OA
ATOM     17  C   UNL     1       6.541   5.281  15.560  0.00  0.00    +0.000 C 
ATOM     18  C   UNL     1       5.503   4.194  15.858  0.00  0.00    +0.000 C 
ATOM     19  C   UNL     1       4.541   4.918  16.740  0.00  0.00    +0.000 A 
ATOM     20  C   UNL     1       3.389   4.464  17.340  0.00  0.00    +0.000 A 
ATOM     21  C   UNL     1       2.682   5.360  18.137  0.00  0.00    +0.000 A 
ATOM     22  C   UNL     1       3.122   6.700  18.324  0.00  0.00    +0.000 A 
ATOM     23  C   UNL     1       4.292   7.144  17.692  0.00  0.00    +0.000 A 
ATOM     24  C   UNL     1       4.973   6.233  16.923  0.00  0.00    +0.000 A 
ATOM     25  N   UNL     1       6.147   6.437  16.218  0.00  0.00    +0.000 N 
ATOM     26  H   UNL     1       6.672   7.298  16.185  0.00  0.00    +0.000 HD
ENDBRANCH  15  22
ENDBRANCH   1  15
TORSDOF 2
ENDMDL
MODEL 2
REMARK VINA RESULT:      -8.7      2.371      8.161
REMARK  Name = 
REMARK  2 active torsions:
REMARK  status: ('A' for Active; 'I' for Inactive)
REMARK    1  A    between atoms: C_7  and  C_8
REMARK    2  A    between atoms: C_8  and  C_9
REMARK                            x       y       z     vdW  Elec       q    Type
REMARK                         _______ _______ _______ _____ _____    ______ ____
ROOT
ATOM      1  C   UNL     1       2.510   6.145  17.901  0.00  0.00    +0.000 C 
ATOM      2  O   UNL     1       1.435   5.634  17.594  0.00  0.00    +0.000 OA
ATOM      3  N   UNL     1       3.640   5.368  18.176  0.00  0.00    +0.000 N 
ATOM      4  C   UNL     1       3.491   3.912  18.293  0.00  0.00    +0.000 C 
ATOM      5  C   UNL     1       4.344   3.362  19.416  0.00  0.00    +0.000 C 
ATOM      6  C   UNL     1       3.606   2.658  20.535  0.00  0.00    +0.000 C 
ATOM      7  C   UNL     1       4.525   1.871  19.656  0.00  0.00    +0.000 C 
ATOM      8  O   UNL     1       5.560   4.077  19.740  0.00  0.00    +0.000 OA
ATOM      9  C   UNL     1       5.935   5.041  18.838  0.00  0.00    +0.000 A 
ATOM     10  C   UNL     1       7.299   5.318  18.731  0.00  0.00    +0.000 A 
ATOM     11  C   UNL     1       7.733   6.382  17.940  0.00  0.00    +0.000 A 
ATOM     12  C   UNL     1       6.806   7.167  17.264  0.00  0.00    +0.000 A 
ATOM     13  C   UNL     1       5.448   6.847  17.324  0.00  0.00    +0.000 A 
ATOM     14  C   UNL     1       4.995   5.787  18.120  0.00  0.00    +0.000 A 
ENDROOT
BRANCH   1  15
ATOM     15  C   UNL     1       2.640   7.664  18.028  0.00  0.00    +0.000 C 
BRANCH  15  22
ATOM     16  O   UNL     1      -1.578  12.424  21.444  0.00  0.00    +0.000 OA
ATOM     17  C   UNL     1      -0.860  11.479  21.155  0.00  0.00    +0.000 C 
ATOM     18  C   UNL     1      -0.416  10.350  22.090  0.00  0.00    +0.000 C 
ATOM     19  C   UNL     1       0.415   9.506  21.183  0.00  0.00    +0.000 A 
ATOM     20  C   UNL     1       1.090   8.336  21.448  0.00  0.00    +0.000 A 
ATOM     21  C   UNL     1       1.782   7.740  20.398  0.00  0.00    +0.000 A 
ATOM     22  C   UNL     1       1.806   8.317  19.097  0.00  0.00    +0.000 A 
ATOM     23  C   UNL     1       1.122   9.517  18.855  0.00  0.00    +0.000 A 
ATOM     24  C   UNL     1       0.439  10.072  19.908  0.00  0.00    +0.000 A 
ATOM     25  N   UNL     1      -0.310  11.237  19.904  0.00  0.00    +0.000 N 
ATOM     26  H   UNL     1      -0.462  11.837  19.108  0.00  0.00    +0.000 HD
ENDBRANCH  15  22
ENDBRANCH   1  15
TORSDOF 2
ENDMDL
MODEL 3
REMARK VINA RESULT:      -8.6      2.502      8.035
REMARK  Name = 
REMARK  2 active torsions:
REMARK  status: ('A' for Active; 'I' for Inactive)
REMARK    1  A    between atoms: C_7  and  C_8
REMARK    2  A    between atoms: C_8  and  C_9
REMARK                            x       y       z     vdW  Elec       q    Type
REMARK                         _______ _______ _______ _____ _____    ______ ____
ROOT
ATOM      1  C   UNL     1       2.590   6.214  17.746  0.00  0.00    +0.000 C 
ATOM      2  O   UNL     1       1.516   5.700  17.440  0.00  0.00    +0.000 OA
ATOM      3  N   UNL     1       3.677   5.444  18.170  0.00  0.00    +0.000 N 
ATOM      4  C   UNL     1       3.475   4.017  18.445  0.00  0.00    +0.000 C 
ATOM      5  C   UNL     1       4.251   3.579  19.670  0.00  0.00    +0.000 C 
ATOM      6  C   UNL     1       3.433   3.030  20.820  0.00  0.00    +0.000 C 
ATOM      7  C   UNL     1       4.370   2.122  20.090  0.00  0.00    +0.000 C 
ATOM      8  O   UNL     1       5.471   4.294  19.976  0.00  0.00    +0.000 OA
ATOM      9  C   UNL     1       5.924   5.136  18.990  0.00  0.00    +0.000 A 
ATOM     10  C   UNL     1       7.300   5.362  18.927  0.00  0.00    +0.000 A 
ATOM     11  C   UNL     1       7.808   6.314  18.044  0.00  0.00    +0.000 A 
ATOM     12  C   UNL     1       6.944   7.039  17.233  0.00  0.00    +0.000 A 
ATOM     13  C   UNL     1       5.575   6.764  17.254  0.00  0.00    +0.000 A 
ATOM     14  C   UNL     1       5.047   5.817  18.141  0.00  0.00    +0.000 A 
ENDROOT
BRANCH   1  15
ATOM     15  C   UNL     1       2.764   7.733  17.704  0.00  0.00    +0.000 C 
BRANCH  15  22
ATOM     16  O   UNL     1      -0.480   9.994  23.744  0.00  0.00    +0.000 OA
ATOM     17  C   UNL     1      -0.126   9.828  22.587  0.00  0.00    +0.000 C 
ATOM     18  C   UNL     1      -0.651  10.572  21.355  0.00  0.00    +0.000 C 
ATOM     19  C   UNL     1       0.152   9.959  20.257  0.00  0.00    +0.000 A 
ATOM     20  C   UNL     1       0.133  10.220  18.906  0.00  0.00    +0.000 A 
ATOM     21  C   UNL     1       1.013   9.504  18.100  0.00  0.00    +0.000 A 
ATOM     22  C   UNL     1       1.897   8.529  18.642  0.00  0.00    +0.000 A 
ATOM     23  C   UNL     1       1.887   8.269  20.020  0.00  0.00    +0.000 A 
ATOM     24  C   UNL     1       1.017   9.001  20.789  0.00  0.00    +0.000 A 
ATOM     25  N   UNL     1       0.840   8.928  22.160  0.00  0.00    +0.000 N 
ATOM     26  H   UNL     1       1.345   8.321  22.788  0.00  0.00    +0.000 HD
ENDBRANCH  15  22
ENDBRANCH   1  15
TORSDOF 2
ENDMDL
MODEL 4
REMARK VINA RESULT:      -8.5      2.438      2.800
REMARK  Name = 
REMARK  2 active torsions:
REMARK  status: ('A' for Active; 'I' for Inactive)
REMARK    1  A    between atoms: C_7  and  C_8
REMARK    2  A    between atoms: C_8  and  C_9
REMARK                            x       y       z     vdW  Elec       q    Type
REMARK                         _______ _______ _______ _____ _____    ______ ____
ROOT
ATOM      1  C   UNL     1       1.772   8.359  19.279  0.00  0.00    +0.000 C 
ATOM      2  O   UNL     1       1.966   8.049  18.106  0.00  0.00    +0.000 OA
ATOM      3  N   UNL     1       1.156   9.565  19.627  0.00  0.00    +0.000 N 
ATOM      4  C   UNL     1       0.916  10.569  18.582  0.00  0.00    +0.000 C 
ATOM      5  C   UNL     1       1.186  11.968  19.094  0.00  0.00    +0.000 C 
ATOM      6  C   UNL     1       2.272  12.745  18.379  0.00  0.00    +0.000 C 
ATOM      7  C   UNL     1       0.855  13.216  18.289  0.00  0.00    +0.000 C 
ATOM      8  O   UNL     1       0.986  12.211  20.506  0.00  0.00    +0.000 OA
ATOM      9  C   UNL     1       0.342  11.210  21.191  0.00  0.00    +0.000 A 
ATOM     10  C   UNL     1      -0.403  11.582  22.311  0.00  0.00    +0.000 A 
ATOM     11  C   UNL     1      -0.962  10.601  23.130  0.00  0.00    +0.000 A 
ATOM     12  C   UNL     1      -0.772   9.257  22.833  0.00  0.00    +0.000 A 
ATOM     13  C   UNL     1      -0.079   8.892  21.677  0.00  0.00    +0.000 A 
ATOM     14  C   UNL     1       0.496   9.864  20.847  0.00  0.00    +0.000 A 
ENDROOT
BRANCH   1  15
ATOM     15  C   UNL     1       2.232   7.440  20.413  0.00  0.00    +0.000 C 
BRANCH  15  22
ATOM     16  O   UNL     1       4.032   0.896  17.952  0.00  0.00    +0.000 OA
ATOM     17  C   UNL     1       3.459   1.850  18.455  0.00  0.00    +0.000 C 
ATOM     18  C   UNL     1       2.073   1.842  19.110  0.00  0.00    +0.000 C 
ATOM     19  C   UNL     1       1.926   3.264  19.540  0.00  0.00    +0.000 A 
ATOM     20  C   UNL     1       0.884   3.878  20.194  0.00  0.00    +0.000 A 
ATOM     21  C   UNL     1       1.019   5.231  20.493  0.00  0.00    +0.000 A 
ATOM     22  C   UNL     1       2.185   5.962  20.132  0.00  0.00    +0.000 A 
ATOM     23  C   UNL     1       3.229   5.318  19.452  0.00  0.00    +0.000 A 
ATOM     24  C   UNL     1       3.070   3.981  19.184  0.00  0.00    +0.000 A 
ATOM     25  N   UNL     1       3.962   3.141  18.540  0.00  0.00    +0.000 N 
ATOM     26  H   UNL     1       4.869   3.404  18.185  0.00  0.00    +0.000 HD
ENDBRANCH  15  22
ENDBRANCH   1  15
TORSDOF 2
ENDMDL
MODEL 5
REMARK VINA RESULT:      -8.3      2.025      7.814
REMARK  Name = 
REMARK  2 active torsions:
REMARK  status: ('A' for Active; 'I' for Inactive)
REMARK    1  A    between atoms: C_7  and  C_8
REMARK    2  A    between atoms: C_8  and  C_9
REMARK                            x       y       z     vdW  Elec       q    Type
REMARK                         _______ _______ _______ _____ _____    ______ ____
ROOT
ATOM      1  C   UNL     1       3.673   7.453  17.538  0.00  0.00    +0.000 C 
ATOM      2  O   UNL     1       4.486   8.360  17.700  0.00  0.00    +0.000 OA
ATOM      3  N   UNL     1       4.075   6.119  17.421  0.00  0.00    +0.000 N 
ATOM      4  C   UNL     1       5.506   5.816  17.290  0.00  0.00    +0.000 C 
ATOM      5  C   UNL     1       5.741   4.700  16.294  0.00  0.00    +0.000 C 
ATOM      6  C   UNL     1       6.589   5.047  15.088  0.00  0.00    +0.000 C 
ATOM      7  C   UNL     1       7.104   4.058  16.085  0.00  0.00    +0.000 C 
ATOM      8  O   UNL     1       4.690   3.717  16.134  0.00  0.00    +0.000 OA
ATOM      9  C   UNL     1       3.692   3.763  17.076  0.00  0.00    +0.000 A 
ATOM     10  C   UNL     1       3.033   2.567  17.365  0.00  0.00    +0.000 A 
ATOM     11  C   UNL     1       1.919   2.573  18.203  0.00  0.00    +0.000 A 
ATOM     12  C   UNL     1       1.464   3.769  18.745  0.00  0.00    +0.000 A 
ATOM     13  C   UNL     1       2.165   4.953  18.504  0.00  0.00    +0.000 A 
ATOM     14  C   UNL     1       3.281   4.966  17.658  0.00  0.00    +0.000 A 
ENDROOT
BRANCH   1  15
ATOM     15  C   UNL     1       2.179   7.760  17.425  0.00  0.00    +0.000 C 
BRANCH  15  22
ATOM     16  O   UNL     1       0.288   9.699  24.118  0.00  0.00    +0.000 OA
ATOM     17  C   UNL     1       0.413   9.613  22.905  0.00  0.00    +0.000 C 
ATOM     18  C   UNL     1      -0.255  10.504  21.853  0.00  0.00    +0.000 C 
ATOM     19  C   UNL     1       0.279   9.935  20.581  0.00  0.00    +0.000 A 
ATOM     20  C   UNL     1       0.043  10.318  19.281  0.00  0.00    +0.000 A 
ATOM     21  C   UNL     1       0.696   9.614  18.273  0.00  0.00    +0.000 A 
ATOM     22  C   UNL     1       1.570   8.530  18.566  0.00  0.00    +0.000 A 
ATOM     23  C   UNL     1       1.784   8.148  19.898  0.00  0.00    +0.000 A 
ATOM     24  C   UNL     1       1.135   8.870  20.869  0.00  0.00    +0.000 A 
ATOM     25  N   UNL     1       1.201   8.686  22.239  0.00  0.00    +0.000 N 
ATOM     26  H   UNL     1       1.753   7.988  22.715  0.00  0.00    +0.000 HD
ENDBRANCH  15  22
ENDBRANCH   1  15
TORSDOF 2
ENDMDL
MODEL 6
REMARK VINA RESULT:      -8.3      1.967      2.331
REMARK  Name = 
REMARK  2 active torsions:
REMARK  status: ('A' for Active; 'I' for Inactive)
REMARK    1  A    between atoms: C_7  and  C_8
REMARK    2  A    between atoms: C_8  and  C_9
REMARK                            x       y       z     vdW  Elec       q    Type
REMARK                         _______ _______ _______ _____ _____    ______ ____
ROOT
ATOM      1  C   UNL     1       1.391   9.149  18.681  0.00  0.00    +0.000 C 
ATOM      2  O   UNL     1       1.425   9.043  17.457  0.00  0.00    +0.000 OA
ATOM      3  N   UNL     1       0.693  10.186  19.308  0.00  0.00    +0.000 N 
ATOM      4  C   UNL     1       0.158  11.281  18.490  0.00  0.00    +0.000 C 
ATOM      5  C   UNL     1       0.329  12.618  19.181  0.00  0.00    +0.000 C 
ATOM      6  C   UNL     1       1.173  13.643  18.455  0.00  0.00    +0.000 C 
ATOM      7  C   UNL     1      -0.287  13.903  18.650  0.00  0.00    +0.000 C 
ATOM      8  O   UNL     1       0.337  12.622  20.628  0.00  0.00    +0.000 OA
ATOM      9  C   UNL     1      -0.051  11.448  21.224  0.00  0.00    +0.000 A 
ATOM     10  C   UNL     1      -0.641  11.538  22.486  0.00  0.00    +0.000 A 
ATOM     11  C   UNL     1      -0.927  10.377  23.204  0.00  0.00    +0.000 A 
ATOM     12  C   UNL     1      -0.619   9.134  22.664  0.00  0.00    +0.000 A 
ATOM     13  C   UNL     1      -0.088   9.047  21.376  0.00  0.00    +0.000 A 
ATOM     14  C   UNL     1       0.213  10.203  20.644  0.00  0.00    +0.000 A 
ENDROOT
BRANCH   1  15
ATOM     15  C   UNL     1       2.145   8.158  19.569  0.00  0.00    +0.000 C 
BRANCH  15  22
ATOM     16  O   UNL     1       3.584   1.245  18.065  0.00  0.00    +0.000 OA
ATOM     17  C   UNL     1       3.549   2.466  18.081  0.00  0.00    +0.000 C 
ATOM     18  C   UNL     1       4.321   3.413  17.158  0.00  0.00    +0.000 C 
ATOM     19  C   UNL     1       3.867   4.751  17.638  0.00  0.00    +0.000 A 
ATOM     20  C   UNL     1       4.213   6.007  17.192  0.00  0.00    +0.000 A 
ATOM     21  C   UNL     1       3.617   7.098  17.817  0.00  0.00    +0.000 A 
ATOM     22  C   UNL     1       2.690   6.933  18.884  0.00  0.00    +0.000 A 
ATOM     23  C   UNL     1       2.364   5.645  19.331  0.00  0.00    +0.000 A 
ATOM     24  C   UNL     1       2.959   4.589  18.686  0.00  0.00    +0.000 A 
ATOM     25  N   UNL     1       2.784   3.240  18.942  0.00  0.00    +0.000 N 
ATOM     26  H   UNL     1       2.176   2.847  19.645  0.00  0.00    +0.000 HD
ENDBRANCH  15  22
ENDBRANCH   1  15
TORSDOF 2
ENDMDL
MODEL 7
REMARK VINA RESULT:      -8.1      3.060      4.211
REMARK  Name = 
REMARK  2 active torsions:
REMARK  status: ('A' for Active; 'I' for Inactive)
REMARK    1  A    between atoms: C_7  and  C_8
REMARK    2  A    between atoms: C_8  and  C_9
REMARK                            x       y       z     vdW  Elec       q    Type
REMARK                         _______ _______ _______ _____ _____    ______ ____
ROOT
ATOM      1  C   UNL     1       0.323  11.079  20.671  0.00  0.00    +0.000 C 
ATOM      2  O   UNL     1       1.366  11.608  21.046  0.00  0.00    +0.000 OA
ATOM      3  N   UNL     1      -0.759  11.837  20.210  0.00  0.00    +0.000 N 
ATOM      4  C   UNL     1      -0.723  13.296  20.363  0.00  0.00    +0.000 C 
ATOM      5  C   UNL     1      -2.080  13.841  20.755  0.00  0.00    +0.000 C 
ATOM      6  C   UNL     1      -2.151  14.571  22.080  0.00  0.00    +0.000 C 
ATOM      7  C   UNL     1      -2.383  15.330  20.812  0.00  0.00    +0.000 C 
ATOM      8  O   UNL     1      -3.245  13.105  20.313  0.00  0.00    +0.000 OA
ATOM      9  C   UNL     1      -3.006  12.125  19.383  0.00  0.00    +0.000 A 
ATOM     10  C   UNL     1      -4.041  11.819  18.497  0.00  0.00    +0.000 A 
ATOM     11  C   UNL     1      -3.913  10.739  17.624  0.00  0.00    +0.000 A 
ATOM     12  C   UNL     1      -2.758   9.966  17.642  0.00  0.00    +0.000 A 
ATOM     13  C   UNL     1      -1.701  10.314  18.485  0.00  0.00    +0.000 A 
ATOM     14  C   UNL     1      -1.816  11.391  19.374  0.00  0.00    +0.000 A 
ENDROOT
BRANCH   1  15
ATOM     15  C   UNL     1       0.157   9.560  20.726  0.00  0.00    +0.000 C 
BRANCH  15  22
ATOM     16  O   UNL     1       4.919   4.517  18.719  0.00  0.00    +0.000 OA
ATOM     17  C   UNL     1       4.178   5.487  18.767  0.00  0.00    +0.000 C 
ATOM     18  C   UNL     1       3.960   6.525  17.661  0.00  0.00    +0.000 C 
ATOM     19  C   UNL     1       2.956   7.436  18.285  0.00  0.00    +0.000 A 
ATOM     20  C   UNL     1       2.360   8.566  17.775  0.00  0.00    +0.000 A 
ATOM     21  C   UNL     1       1.432   9.223  18.577  0.00  0.00    +0.000 A 
ATOM     22  C   UNL     1       1.109   8.756  19.882  0.00  0.00    +0.000 A 
ATOM     23  C   UNL     1       1.740   7.610  20.386  0.00  0.00    +0.000 A 
ATOM     24  C   UNL     1       2.641   6.978  19.566  0.00  0.00    +0.000 A 
ATOM     25  N   UNL     1       3.371   5.834  19.841  0.00  0.00    +0.000 N 
ATOM     26  H   UNL     1       3.328   5.298  20.695  0.00  0.00    +0.000 HD
ENDBRANCH  15  22
ENDBRANCH   1  15
TORSDOF 2
ENDMDL
MODEL 8
REMARK VINA RESULT:      -8.0      1.915      7.717
REMARK  Name = 
REMARK  2 active torsions:
REMARK  status: ('A' for Active; 'I' for Inactive)
REMARK    1  A    between atoms: C_7  and  C_8
REMARK    2  A    between atoms: C_8  and  C_9
REMARK                            x       y       z     vdW  Elec       q    Type
REMARK                         _______ _______ _______ _____ _____    ______ ____
ROOT
ATOM      1  C   UNL     1       3.224   7.248  17.908  0.00  0.00    +0.000 C 
ATOM      2  O   UNL     1       4.086   8.123  17.890  0.00  0.00    +0.000 OA
ATOM      3  N   UNL     1       3.544   5.899  17.725  0.00  0.00    +0.000 N 
ATOM      4  C   UNL     1       4.905   5.541  17.305  0.00  0.00    +0.000 C 
ATOM      5  C   UNL     1       4.889   4.415  16.293  0.00  0.00    +0.000 C 
ATOM      6  C   UNL     1       5.482   4.726  14.936  0.00  0.00    +0.000 C 
ATOM      7  C   UNL     1       6.155   3.721  15.815  0.00  0.00    +0.000 C 
ATOM      8  O   UNL     1       3.792   3.473  16.363  0.00  0.00    +0.000 OA
ATOM      9  C   UNL     1       3.012   3.559  17.489  0.00  0.00    +0.000 A 
ATOM     10  C   UNL     1       2.382   2.389  17.920  0.00  0.00    +0.000 A 
ATOM     11  C   UNL     1       1.465   2.440  18.969  0.00  0.00    +0.000 A 
ATOM     12  C   UNL     1       1.176   3.654  19.581  0.00  0.00    +0.000 A 
ATOM     13  C   UNL     1       1.856   4.809  19.189  0.00  0.00    +0.000 A 
ATOM     14  C   UNL     1       2.774   4.778  18.131  0.00  0.00    +0.000 A 
ENDROOT
BRANCH   1  15
ATOM     15  C   UNL     1       1.751   7.612  18.102  0.00  0.00    +0.000 C 
BRANCH  15  22
ATOM     16  O   UNL     1       1.261  14.768  18.917  0.00  0.00    +0.000 OA
ATOM     17  C   UNL     1       1.258  13.559  19.088  0.00  0.00    +0.000 C 
ATOM     18  C   UNL     1       0.912  12.821  20.386  0.00  0.00    +0.000 C 
ATOM     19  C   UNL     1       1.069  11.393  19.981  0.00  0.00    +0.000 A 
ATOM     20  C   UNL     1       0.889  10.247  20.721  0.00  0.00    +0.000 A 
ATOM     21  C   UNL     1       1.088   9.029  20.079  0.00  0.00    +0.000 A 
ATOM     22  C   UNL     1       1.473   8.960  18.711  0.00  0.00    +0.000 A 
ATOM     23  C   UNL     1       1.664  10.141  17.981  0.00  0.00    +0.000 A 
ATOM     24  C   UNL     1       1.447  11.326  18.639  0.00  0.00    +0.000 A 
ATOM     25  N   UNL     1       1.562  12.607  18.126  0.00  0.00    +0.000 N 
ATOM     26  H   UNL     1       1.817  12.842  17.178  0.00  0.00    +0.000 HD
ENDBRANCH  15  22
ENDBRANCH   1  15
TORSDOF 2
ENDMDL
MODEL 9
REMARK VINA RESULT:      -8.0      1.787      7.957
REMARK  Name = 
REMARK  2 active torsions:
REMARK  status: ('A' for Active; 'I' for Inactive)
REMARK    1  A    between atoms: C_7  and  C_8
REMARK    2  A    between atoms: C_8  and  C_9
REMARK                            x       y       z     vdW  Elec       q    Type
REMARK                         _______ _______ _______ _____ _____    ______ ____
ROOT
ATOM      1  C   UNL     1       3.394   7.418  17.723  0.00  0.00    +0.000 C 
ATOM      2  O   UNL     1       4.229   8.319  17.767  0.00  0.00    +0.000 OA
ATOM      3  N   UNL     1       3.765   6.081  17.556  0.00  0.00    +0.000 N 
ATOM      4  C   UNL     1       5.161   5.765  17.227  0.00  0.00    +0.000 C 
ATOM      5  C   UNL     1       5.247   4.645  16.212  0.00  0.00    +0.000 C 
ATOM      6  C   UNL     1       5.921   4.983  14.898  0.00  0.00    +0.000 C 
ATOM      7  C   UNL     1       6.562   3.992  15.817  0.00  0.00    +0.000 C 
ATOM      8  O   UNL     1       4.176   3.671  16.204  0.00  0.00    +0.000 OA
ATOM      9  C   UNL     1       3.319   3.727  17.274  0.00  0.00    +0.000 A 
ATOM     10  C   UNL     1       2.697   2.537  17.657  0.00  0.00    +0.000 A 
ATOM     11  C   UNL     1       1.711   2.554  18.642  0.00  0.00    +0.000 A 
ATOM     12  C   UNL     1       1.346   3.755  19.238  0.00  0.00    +0.000 A 
ATOM     13  C   UNL     1       2.016   4.932  18.898  0.00  0.00    +0.000 A 
ATOM     14  C   UNL     1       3.003   4.935  17.904  0.00  0.00    +0.000 A 
ENDROOT
BRANCH   1  15
ATOM     15  C   UNL     1       1.901   7.737  17.819  0.00  0.00    +0.000 C 
BRANCH  15  22
ATOM     16  O   UNL     1      -0.661  11.808  23.203  0.00  0.00    +0.000 OA
ATOM     17  C   UNL     1      -0.189  11.405  22.151  0.00  0.00    +0.000 C 
ATOM     18  C   UNL     1       0.262  12.263  20.965  0.00  0.00    +0.000 C 
ATOM     19  C   UNL     1       0.750  11.230  20.004  0.00  0.00    +0.000 A 
ATOM     20  C   UNL     1       1.285  11.386  18.746  0.00  0.00    +0.000 A 
ATOM     21  C   UNL     1       1.679  10.237  18.067  0.00  0.00    +0.000 A 
ATOM     22  C   UNL     1       1.530   8.943  18.640  0.00  0.00    +0.000 A 
ATOM     23  C   UNL     1       0.968   8.808  19.917  0.00  0.00    +0.000 A 
ATOM     24  C   UNL     1       0.601   9.961  20.566  0.00  0.00    +0.000 A 
ATOM     25  N   UNL     1       0.042  10.075  21.827  0.00  0.00    +0.000 N 
ATOM     26  H   UNL     1      -0.166   9.311  22.452  0.00  0.00    +0.000 HD
ENDBRANCH  15  22
ENDBRANCH   1  15
TORSDOF 2
ENDMDL
