MODEL 1
REMARK VINA RESULT:      -9.1      0.000      0.000
REMARK  Name = 
REMARK  5 active torsions:
REMARK  status: ('A' for Active; 'I' for Inactive)
REMARK    1  A    between atoms: C_1  and  C_2
REMARK    2  A    between atoms: C_5  and  C_6
REMARK    3  A    between atoms: C_9  and  C_10
REMARK    4  A    between atoms: N_12  and  C_13
REMARK    5  A    between atoms: N_12  and  C_19
REMARK                            x       y       z     vdW  Elec       q    Type
REMARK                         _______ _______ _______ _____ _____    ______ ____
ROOT
ATOM      1  C   UNL     1       3.634   6.653  17.893  0.00  0.00    +0.000 C 
ATOM      2  O   UNL     1       4.431   7.199  17.118  0.00  0.00    +0.000 OA
ATOM      3  N   UNL     1       3.712   5.263  18.165  0.00  0.00    +0.000 N 
ENDROOT
BRANCH   1   7
ATOM      4  C   UNL     1       0.699   9.390  19.630  0.00  0.00    +0.000 A 
ATOM      5  C   UNL     1       1.106   9.479  18.290  0.00  0.00    +0.000 A 
ATOM      6  C   UNL     1       2.031   8.573  17.744  0.00  0.00    +0.000 A 
ATOM      7  C   UNL     1       2.606   7.564  18.533  0.00  0.00    +0.000 A 
ATOM      8  C   UNL     1       2.232   7.521  19.882  0.00  0.00    +0.000 A 
ATOM      9  C   UNL     1       1.254   8.378  20.412  0.00  0.00    +0.000 A 
BRANCH   4  14
ATOM     10  C   UNL     1      -1.438  12.175  22.957  0.00  0.00    +0.000 C 
ATOM     11  C   UNL     1      -1.170  11.608  21.624  0.00  0.00    +0.000 A 
ATOM     12  N   UNL     1      -1.663  11.974  20.460  0.00  0.00    +0.000 NA
ATOM     13  N   UNL     1      -1.061  11.172  19.517  0.00  0.00    +0.000 NA
ATOM     14  C   UNL     1      -0.242  10.373  20.169  0.00  0.00    +0.000 A 
ATOM     15  O   UNL     1      -0.265  10.583  21.526  0.00  0.00    +0.000 OA
ENDBRANCH   4  14
ENDBRANCH   1   7
BRANCH   3  16
ATOM     16  C   UNL     1       2.793   4.587  19.001  0.00  0.00    +0.000 A 
ATOM     17  C   UNL     1       3.094   4.361  20.346  0.00  0.00    +0.000 A 
ATOM     18  C   UNL     1       2.251   3.567  21.124  0.00  0.00    +0.000 A 
ATOM     19  C   UNL     1       1.095   3.019  20.562  0.00  0.00    +0.000 A 
ATOM     20  C   UNL     1       0.773   3.267  19.232  0.00  0.00    +0.000 A 
ATOM     21  C   UNL     1       1.625   4.042  18.443  0.00  0.00    +0.000 A 
ENDBRANCH   3  16
BRANCH   3  22
ATOM     22  C   UNL     1       4.803   4.459  17.551  0.00  0.00    +0.000 C 
ATOM     23  C   UNL     1       6.205   4.945  17.967  0.00  0.00    +0.000 C 
ATOM     24  C   UNL     1       7.175   4.445  16.899  0.00  0.00    +0.000 C 
ATOM     25  C   UNL     1       6.334   4.026  15.703  0.00  0.00    +0.000 C 
ATOM     26  C   UNL     1       4.923   4.492  16.014  0.00  0.00    +0.000 C 
ENDBRANCH   3  22
TORSDOF 4
ENDMDL
MODEL 2
REMARK VINA RESULT:      -8.8      0.941      1.026
REMARK  Name = 
REMARK  5 active torsions:
REMARK  status: ('A' for Active; 'I' for Inactive)
REMARK    1  A    between atoms: C_1  and  C_2
REMARK    2  A    between atoms: C_5  and  C_6
REMARK    3  A    between atoms: C_9  and  C_10
REMARK    4  A    between atoms: N_12  and  C_13
REMARK    5  A    between atoms: N_12  and  C_19
REMARK                            x       y       z     vdW  Elec       q    Type
REMARK                         _______ _______ _______ _____ _____    ______ ____
ROOT
ATOM      1  C   UNL     1       3.733   6.555  17.632  0.00  0.00    +0.000 C 
ATOM      2  O   UNL     1       4.527   7.143  16.887  0.00  0.00    +0.000 OA
ATOM      3  N   UNL     1       3.765   5.143  17.767  0.00  0.00    +0.000 N 
ENDROOT
BRANCH   1   7
ATOM      4  C   UNL     1       0.958   9.212  19.720  0.00  0.00    +0.000 A 
ATOM      5  C   UNL     1       1.306   9.400  18.374  0.00  0.00    +0.000 A 
ATOM      6  C   UNL     1       2.179   8.518  17.714  0.00  0.00    +0.000 A 
ATOM      7  C   UNL     1       2.761   7.435  18.391  0.00  0.00    +0.000 A 
ATOM      8  C   UNL     1       2.448   7.292  19.749  0.00  0.00    +0.000 A 
ATOM      9  C   UNL     1       1.519   8.127  20.392  0.00  0.00    +0.000 A 
BRANCH   4  14
ATOM     10  C   UNL     1      -2.334  12.735  20.086  0.00  0.00    +0.000 C 
ATOM     11  C   UNL     1      -1.386  11.706  20.543  0.00  0.00    +0.000 A 
ATOM     12  N   UNL     1      -1.181  11.260  21.764  0.00  0.00    +0.000 NA
ATOM     13  N   UNL     1      -0.236  10.265  21.658  0.00  0.00    +0.000 NA
ATOM     14  C   UNL     1       0.071  10.171  20.380  0.00  0.00    +0.000 A 
ATOM     15  O   UNL     1      -0.617  11.070  19.603  0.00  0.00    +0.000 OA
ENDBRANCH   4  14
ENDBRANCH   1   7
BRANCH   3  16
ATOM     16  C   UNL     1       2.845   4.422  18.565  0.00  0.00    +0.000 A 
ATOM     17  C   UNL     1       3.181   4.049  19.868  0.00  0.00    +0.000 A 
ATOM     18  C   UNL     1       2.330   3.215  20.594  0.00  0.00    +0.000 A 
ATOM     19  C   UNL     1       1.134   2.773  20.023  0.00  0.00    +0.000 A 
ATOM     20  C   UNL     1       0.779   3.166  18.738  0.00  0.00    +0.000 A 
ATOM     21  C   UNL     1       1.638   3.983  17.999  0.00  0.00    +0.000 A 
ENDBRANCH   3  16
BRANCH   3  22
ATOM     22  C   UNL     1       4.805   4.364  17.043  0.00  0.00    +0.000 C 
ATOM     23  C   UNL     1       6.233   4.706  17.505  0.00  0.00    +0.000 C 
ATOM     24  C   UNL     1       7.170   4.295  16.371  0.00  0.00    +0.000 C 
ATOM     25  C   UNL     1       6.304   4.088  15.139  0.00  0.00    +0.000 C 
ATOM     26  C   UNL     1       4.924   4.591  15.522  0.00  0.00    +0.000 C 
ENDBRANCH   3  22
TORSDOF 4
ENDMDL
MODEL 3
REMARK VINA RESULT:      -8.6      4.300      6.818
REMARK  Name = 
REMARK  5 active torsions:
REMARK  status: ('A' for Active; 'I' for Inactive)
REMARK    1  A    between atoms: C_1  and  C_2
REMARK    2  A    between atoms: C_5  and  C_6
REMARK    3  A    between atoms: C_9  and  C_10
REMARK    4  A    between atoms: N_12  and  C_13
REMARK    5  A    between atoms: N_12  and  C_19
REMARK                            x       y       z     vdW  Elec       q    Type
REMARK                         _______ _______ _______ _____ _____    ______ ____
ROOT
ATOM      1  C   UNL     1       6.298   5.044  17.553  0.00  0.00    +0.000 C 
ATOM      2  O   UNL     1       6.991   4.115  17.115  0.00  0.00    +0.000 OA
ATOM      3  N   UNL     1       4.917   4.863  17.821  0.00  0.00    +0.000 N 
ENDROOT
BRANCH   1   7
ATOM      4  C   UNL     1       8.415   8.772  18.412  0.00  0.00    +0.000 A 
ATOM      5  C   UNL     1       8.594   7.614  19.183  0.00  0.00    +0.000 A 
ATOM      6  C   UNL     1       7.924   6.418  18.874  0.00  0.00    +0.000 A 
ATOM      7  C   UNL     1       7.024   6.351  17.799  0.00  0.00    +0.000 A 
ATOM      8  C   UNL     1       6.814   7.529  17.071  0.00  0.00    +0.000 A 
ATOM      9  C   UNL     1       7.536   8.705  17.332  0.00  0.00    +0.000 A 
BRANCH   4  14
ATOM     10  C   UNL     1      10.578  13.051  17.781  0.00  0.00    +0.000 C 
ATOM     11  C   UNL     1      10.041  11.893  18.514  0.00  0.00    +0.000 A 
ATOM     12  N   UNL     1       9.920  11.725  19.814  0.00  0.00    +0.000 NA
ATOM     13  N   UNL     1       9.313  10.501  19.990  0.00  0.00    +0.000 NA
ATOM     14  C   UNL     1       9.106  10.006  18.787  0.00  0.00    +0.000 A 
ATOM     15  O   UNL     1       9.557  10.835  17.789  0.00  0.00    +0.000 OA
ENDBRANCH   4  14
ENDBRANCH   1   7
BRANCH   3  16
ATOM     16  C   UNL     1       4.075   5.907  18.271  0.00  0.00    +0.000 A 
ATOM     17  C   UNL     1       3.480   5.840  19.533  0.00  0.00    +0.000 A 
ATOM     18  C   UNL     1       2.538   6.798  19.910  0.00  0.00    +0.000 A 
ATOM     19  C   UNL     1       2.209   7.834  19.032  0.00  0.00    +0.000 A 
ATOM     20  C   UNL     1       2.821   7.924  17.787  0.00  0.00    +0.000 A 
ATOM     21  C   UNL     1       3.748   6.955  17.397  0.00  0.00    +0.000 A 
ENDBRANCH   3  16
BRANCH   3  22
ATOM     22  C   UNL     1       4.304   3.522  17.623  0.00  0.00    +0.000 C 
ATOM     23  C   UNL     1       2.805   3.599  17.278  0.00  0.00    +0.000 C 
ATOM     24  C   UNL     1       2.204   2.243  17.641  0.00  0.00    +0.000 C 
ATOM     25  C   UNL     1       3.216   1.535  18.528  0.00  0.00    +0.000 C 
ATOM     26  C   UNL     1       4.280   2.573  18.838  0.00  0.00    +0.000 C 
ENDBRANCH   3  22
TORSDOF 4
ENDMDL
MODEL 4
REMARK VINA RESULT:      -8.5      1.298      1.670
REMARK  Name = 
REMARK  5 active torsions:
REMARK  status: ('A' for Active; 'I' for Inactive)
REMARK    1  A    between atoms: C_1  and  C_2
REMARK    2  A    between atoms: C_5  and  C_6
REMARK    3  A    between atoms: C_9  and  C_10
REMARK    4  A    between atoms: N_12  and  C_13
REMARK    5  A    between atoms: N_12  and  C_19
REMARK                            x       y       z     vdW  Elec       q    Type
REMARK                         _______ _______ _______ _____ _____    ______ ____
ROOT
ATOM      1  C   UNL     1       3.931   6.290  17.389  0.00  0.00    +0.000 C 
ATOM      2  O   UNL     1       4.646   7.004  16.674  0.00  0.00    +0.000 OA
ATOM      3  N   UNL     1       3.999   4.874  17.311  0.00  0.00    +0.000 N 
ENDROOT
BRANCH   1   7
ATOM      4  C   UNL     1       1.313   8.532  20.079  0.00  0.00    +0.000 A 
ATOM      5  C   UNL     1       1.571   8.949  18.765  0.00  0.00    +0.000 A 
ATOM      6  C   UNL     1       2.395   8.200  17.908  0.00  0.00    +0.000 A 
ATOM      7  C   UNL     1       3.016   7.021  18.350  0.00  0.00    +0.000 A 
ATOM      8  C   UNL     1       2.792   6.645  19.681  0.00  0.00    +0.000 A 
ATOM      9  C   UNL     1       1.912   7.352  20.517  0.00  0.00    +0.000 A 
BRANCH   4  14
ATOM     10  C   UNL     1      -1.564  12.211  21.334  0.00  0.00    +0.000 C 
ATOM     11  C   UNL     1      -0.801  10.963  21.499  0.00  0.00    +0.000 A 
ATOM     12  N   UNL     1      -0.788  10.135  22.522  0.00  0.00    +0.000 NA
ATOM     13  N   UNL     1       0.040   9.094  22.165  0.00  0.00    +0.000 NA
ATOM     14  C   UNL     1       0.475   9.358  20.950  0.00  0.00    +0.000 A 
ATOM     15  O   UNL     1      -0.010  10.545  20.460  0.00  0.00    +0.000 OA
ENDBRANCH   4  14
ENDBRANCH   1   7
BRANCH   3  16
ATOM     16  C   UNL     1       3.166   4.019  18.069  0.00  0.00    +0.000 A 
ATOM     17  C   UNL     1       1.803   3.921  17.780  0.00  0.00    +0.000 A 
ATOM     18  C   UNL     1       0.964   3.191  18.622  0.00  0.00    +0.000 A 
ATOM     19  C   UNL     1       1.492   2.542  19.741  0.00  0.00    +0.000 A 
ATOM     20  C   UNL     1       2.854   2.609  20.016  0.00  0.00    +0.000 A 
ATOM     21  C   UNL     1       3.694   3.357  19.189  0.00  0.00    +0.000 A 
ENDBRANCH   3  16
BRANCH   3  22
ATOM     22  C   UNL     1       4.983   4.241  16.394  0.00  0.00    +0.000 C 
ATOM     23  C   UNL     1       6.440   4.588  16.753  0.00  0.00    +0.000 C 
ATOM     24  C   UNL     1       7.267   4.365  15.489  0.00  0.00    +0.000 C 
ATOM     25  C   UNL     1       6.286   4.274  14.331  0.00  0.00    +0.000 C 
ATOM     26  C   UNL     1       4.937   4.661  14.911  0.00  0.00    +0.000 C 
ENDBRANCH   3  22
TORSDOF 4
ENDMDL
MODEL 5
REMARK VINA RESULT:      -8.5      4.317      6.708
REMARK  Name = 
REMARK  5 active torsions:
REMARK  status: ('A' for Active; 'I' for Inactive)
REMARK    1  A    between atoms: C_1  and  C_2
REMARK    2  A    between atoms: C_5  and  C_6
REMARK    3  A    between atoms: C_9  and  C_10
REMARK    4  A    between atoms: N_12  and  C_13
REMARK    5  A    between atoms: N_12  and  C_19
REMARK                            x       y       z     vdW  Elec       q    Type
REMARK                         _______ _______ _______ _____ _____    ______ ____
ROOT
ATOM      1  C   UNL     1       6.288   5.047  17.585  0.00  0.00    +0.000 C 
ATOM      2  O   UNL     1       6.985   4.110  17.174  0.00  0.00    +0.000 OA
ATOM      3  N   UNL     1       4.906   4.869  17.852  0.00  0.00    +0.000 N 
ENDROOT
BRANCH   1   7
ATOM      4  C   UNL     1       8.391   8.803  18.351  0.00  0.00    +0.000 A 
ATOM      5  C   UNL     1       8.590   7.659  19.138  0.00  0.00    +0.000 A 
ATOM      6  C   UNL     1       7.924   6.453  18.858  0.00  0.00    +0.000 A 
ATOM      7  C   UNL     1       7.008   6.362  17.799  0.00  0.00    +0.000 A 
ATOM      8  C   UNL     1       6.779   7.527  17.055  0.00  0.00    +0.000 A 
ATOM      9  C   UNL     1       7.497   8.712  17.286  0.00  0.00    +0.000 A 
BRANCH   4  14
ATOM     10  C   UNL     1      10.266  12.233  21.198  0.00  0.00    +0.000 C 
ATOM     11  C   UNL     1       9.918  11.546  19.944  0.00  0.00    +0.000 A 
ATOM     12  N   UNL     1      10.288  11.839  18.715  0.00  0.00    +0.000 NA
ATOM     13  N   UNL     1       9.744  10.866  17.906  0.00  0.00    +0.000 NA
ATOM     14  C   UNL     1       9.080  10.047  18.696  0.00  0.00    +0.000 A 
ATOM     15  O   UNL     1       9.134  10.424  20.015  0.00  0.00    +0.000 OA
ENDBRANCH   4  14
ENDBRANCH   1   7
BRANCH   3  16
ATOM     16  C   UNL     1       4.059   5.921  18.272  0.00  0.00    +0.000 A 
ATOM     17  C   UNL     1       3.461   5.887  19.534  0.00  0.00    +0.000 A 
ATOM     18  C   UNL     1       2.515   6.851  19.882  0.00  0.00    +0.000 A 
ATOM     19  C   UNL     1       2.183   7.861  18.976  0.00  0.00    +0.000 A 
ATOM     20  C   UNL     1       2.798   7.919  17.730  0.00  0.00    +0.000 A 
ATOM     21  C   UNL     1       3.730   6.943  17.368  0.00  0.00    +0.000 A 
ENDBRANCH   3  16
BRANCH   3  22
ATOM     22  C   UNL     1       4.298   3.521  17.688  0.00  0.00    +0.000 C 
ATOM     23  C   UNL     1       2.813   3.583  17.285  0.00  0.00    +0.000 C 
ATOM     24  C   UNL     1       2.196   2.244  17.681  0.00  0.00    +0.000 C 
ATOM     25  C   UNL     1       3.174   1.574  18.634  0.00  0.00    +0.000 C 
ATOM     26  C   UNL     1       4.227   2.623  18.940  0.00  0.00    +0.000 C 
ENDBRANCH   3  22
TORSDOF 4
ENDMDL
MODEL 6
REMARK VINA RESULT:      -8.3      4.341      6.734
REMARK  Name = 
REMARK  5 active torsions:
REMARK  status: ('A' for Active; 'I' for Inactive)
REMARK    1  A    between atoms: C_1  and  C_2
REMARK    2  A    between atoms: C_5  and  C_6
REMARK    3  A    between atoms: C_9  and  C_10
REMARK    4  A    between atoms: N_12  and  C_13
REMARK    5  A    between atoms: N_12  and  C_19
REMARK                            x       y       z     vdW  Elec       q    Type
REMARK                         _______ _______ _______ _____ _____    ______ ____
ROOT
ATOM      1  C   UNL     1       6.296   5.077  17.639  0.00  0.00    +0.000 C 
ATOM      2  O   UNL     1       7.001   4.167  17.184  0.00  0.00    +0.000 OA
ATOM      3  N   UNL     1       4.911   4.881  17.877  0.00  0.00    +0.000 N 
ENDROOT
BRANCH   1   7
ATOM      4  C   UNL     1       8.325   8.884  18.354  0.00  0.00    +0.000 A 
ATOM      5  C   UNL     1       7.362   8.726  17.346  0.00  0.00    +0.000 A 
ATOM      6  C   UNL     1       6.702   7.500  17.150  0.00  0.00    +0.000 A 
ATOM      7  C   UNL     1       7.009   6.380  17.937  0.00  0.00    +0.000 A 
ATOM      8  C   UNL     1       8.011   6.537  18.904  0.00  0.00    +0.000 A 
ATOM      9  C   UNL     1       8.619   7.779  19.151  0.00  0.00    +0.000 A 
BRANCH   4  14
ATOM     10  C   UNL     1      11.452  12.092  20.175  0.00  0.00    +0.000 C 
ATOM     11  C   UNL     1      10.396  11.572  19.291  0.00  0.00    +0.000 A 
ATOM     12  N   UNL     1       9.852  12.140  18.236  0.00  0.00    +0.000 NA
ATOM     13  N   UNL     1       8.955  11.228  17.726  0.00  0.00    +0.000 NA
ATOM     14  C   UNL     1       9.012  10.167  18.504  0.00  0.00    +0.000 A 
ATOM     15  O   UNL     1       9.905  10.316  19.537  0.00  0.00    +0.000 OA
ENDBRANCH   4  14
ENDBRANCH   1   7
BRANCH   3  16
ATOM     16  C   UNL     1       4.056   5.906  18.346  0.00  0.00    +0.000 A 
ATOM     17  C   UNL     1       3.477   5.819  19.614  0.00  0.00    +0.000 A 
ATOM     18  C   UNL     1       2.522   6.757  20.009  0.00  0.00    +0.000 A 
ATOM     19  C   UNL     1       2.163   7.793  19.143  0.00  0.00    +0.000 A 
ATOM     20  C   UNL     1       2.758   7.903  17.891  0.00  0.00    +0.000 A 
ATOM     21  C   UNL     1       3.698   6.954  17.482  0.00  0.00    +0.000 A 
ENDBRANCH   3  16
BRANCH   3  22
ATOM     22  C   UNL     1       4.309   3.544  17.628  0.00  0.00    +0.000 C 
ATOM     23  C   UNL     1       2.813   3.622  17.272  0.00  0.00    +0.000 C 
ATOM     24  C   UNL     1       2.218   2.250  17.582  0.00  0.00    +0.000 C 
ATOM     25  C   UNL     1       3.228   1.519  18.453  0.00  0.00    +0.000 C 
ATOM     26  C   UNL     1       4.281   2.553  18.809  0.00  0.00    +0.000 C 
ENDBRANCH   3  22
TORSDOF 4
ENDMDL
MODEL 7
REMARK VINA RESULT:      -8.3      0.373      1.385
REMARK  Name = 
REMARK  5 active torsions:
REMARK  status: ('A' for Active; 'I' for Inactive)
REMARK    1  A    between atoms: C_1  and  C_2
REMARK    2  A    between atoms: C_5  and  C_6
REMARK    3  A    between atoms: C_9  and  C_10
REMARK    4  A    between atoms: N_12  and  C_13
REMARK    5  A    between atoms: N_12  and  C_19
REMARK                            x       y       z     vdW  Elec       q    Type
REMARK                         _______ _______ _______ _____ _____    ______ ____
ROOT
ATOM      1  C   UNL     1       3.816   6.682  17.644  0.00  0.00    +0.000 C 
ATOM      2  O   UNL     1       4.622   7.179  16.847  0.00  0.00    +0.000 OA
ATOM      3  N   UNL     1       3.865   5.302  17.969  0.00  0.00    +0.000 N 
ENDROOT
BRANCH   1   7
ATOM      4  C   UNL     1       0.889   9.339  19.513  0.00  0.00    +0.000 A 
ATOM      5  C   UNL     1       1.546   8.326  20.229  0.00  0.00    +0.000 A 
ATOM      6  C   UNL     1       2.504   7.500  19.615  0.00  0.00    +0.000 A 
ATOM      7  C   UNL     1       2.811   7.639  18.253  0.00  0.00    +0.000 A 
ATOM      8  C   UNL     1       2.109   8.618  17.538  0.00  0.00    +0.000 A 
ATOM      9  C   UNL     1       1.206   9.493  18.164  0.00  0.00    +0.000 A 
BRANCH   4  14
ATOM     10  C   UNL     1      -1.419  11.480  23.184  0.00  0.00    +0.000 C 
ATOM     11  C   UNL     1      -1.130  11.111  21.789  0.00  0.00    +0.000 A 
ATOM     12  N   UNL     1      -1.679  11.571  20.685  0.00  0.00    +0.000 NA
ATOM     13  N   UNL     1      -1.026  10.952  19.642  0.00  0.00    +0.000 NA
ATOM     14  C   UNL     1      -0.125  10.156  20.180  0.00  0.00    +0.000 A 
ATOM     15  O   UNL     1      -0.138  10.194  21.553  0.00  0.00    +0.000 OA
ENDBRANCH   4  14
ENDBRANCH   1   7
BRANCH   3  16
ATOM     16  C   UNL     1       2.934   4.679  18.833  0.00  0.00    +0.000 A 
ATOM     17  C   UNL     1       1.721   4.198  18.337  0.00  0.00    +0.000 A 
ATOM     18  C   UNL     1       0.749   3.720  19.217  0.00  0.00    +0.000 A 
ATOM     19  C   UNL     1       1.001   3.704  20.591  0.00  0.00    +0.000 A 
ATOM     20  C   UNL     1       2.219   4.153  21.089  0.00  0.00    +0.000 A 
ATOM     21  C   UNL     1       3.186   4.652  20.214  0.00  0.00    +0.000 A 
ENDBRANCH   3  16
BRANCH   3  22
ATOM     22  C   UNL     1       4.936   4.451  17.384  0.00  0.00    +0.000 C 
ATOM     23  C   UNL     1       6.349   4.931  17.762  0.00  0.00    +0.000 C 
ATOM     24  C   UNL     1       7.299   4.365  16.709  0.00  0.00    +0.000 C 
ATOM     25  C   UNL     1       6.439   3.905  15.542  0.00  0.00    +0.000 C 
ATOM     26  C   UNL     1       5.040   4.409  15.846  0.00  0.00    +0.000 C 
ENDBRANCH   3  22
TORSDOF 4
ENDMDL
MODEL 8
REMARK VINA RESULT:      -8.2      1.689      2.216
REMARK  Name = 
REMARK  5 active torsions:
REMARK  status: ('A' for Active; 'I' for Inactive)
REMARK    1  A    between atoms: C_1  and  C_2
REMARK    2  A    between atoms: C_5  and  C_6
REMARK    3  A    between atoms: C_9  and  C_10
REMARK    4  A    between atoms: N_12  and  C_13
REMARK    5  A    between atoms: N_12  and  C_19
REMARK                            x       y       z     vdW  Elec       q    Type
REMARK                         _______ _______ _______ _____ _____    ______ ____
ROOT
ATOM      1  C   UNL     1       4.456   6.158  16.709  0.00  0.00    +0.000 C 
ATOM      2  O   UNL     1       5.062   6.919  15.942  0.00  0.00    +0.000 OA
ATOM      3  N   UNL     1       4.656   4.755  16.658  0.00  0.00    +0.000 N 
ENDROOT
BRANCH   1   7
ATOM      4  C   UNL     1       1.783   8.216  19.491  0.00  0.00    +0.000 A 
ATOM      5  C   UNL     1       2.032   8.697  18.197  0.00  0.00    +0.000 A 
ATOM      6  C   UNL     1       2.874   8.006  17.309  0.00  0.00    +0.000 A 
ATOM      7  C   UNL     1       3.523   6.825  17.700  0.00  0.00    +0.000 A 
ATOM      8  C   UNL     1       3.308   6.386  19.013  0.00  0.00    +0.000 A 
ATOM      9  C   UNL     1       2.411   7.033  19.878  0.00  0.00    +0.000 A 
BRANCH   4  14
ATOM     10  C   UNL     1      -0.198   9.577  23.688  0.00  0.00    +0.000 C 
ATOM     11  C   UNL     1       0.067   9.593  22.240  0.00  0.00    +0.000 A 
ATOM     12  N   UNL     1      -0.335  10.463  21.339  0.00  0.00    +0.000 NA
ATOM     13  N   UNL     1       0.222  10.067  20.144  0.00  0.00    +0.000 NA
ATOM     14  C   UNL     1       0.926   8.983  20.397  0.00  0.00    +0.000 A 
ATOM     15  O   UNL     1       0.866   8.609  21.717  0.00  0.00    +0.000 OA
ENDBRANCH   4  14
ENDBRANCH   1   7
BRANCH   3  16
ATOM     16  C   UNL     1       3.948   3.844  17.477  0.00  0.00    +0.000 A 
ATOM     17  C   UNL     1       2.634   3.489  17.167  0.00  0.00    +0.000 A 
ATOM     18  C   UNL     1       1.895   2.708  18.057  0.00  0.00    +0.000 A 
ATOM     19  C   UNL     1       2.480   2.266  19.246  0.00  0.00    +0.000 A 
ATOM     20  C   UNL     1       3.799   2.589  19.546  0.00  0.00    +0.000 A 
ATOM     21  C   UNL     1       4.535   3.389  18.669  0.00  0.00    +0.000 A 
ENDBRANCH   3  16
BRANCH   3  22
ATOM     22  C   UNL     1       5.651   4.193  15.705  0.00  0.00    +0.000 C 
ATOM     23  C   UNL     1       6.915   5.064  15.584  0.00  0.00    +0.000 C 
ATOM     24  C   UNL     1       7.561   4.713  14.245  0.00  0.00    +0.000 C 
ATOM     25  C   UNL     1       6.515   3.961  13.436  0.00  0.00    +0.000 C 
ATOM     26  C   UNL     1       5.225   4.082  14.227  0.00  0.00    +0.000 C 
ENDBRANCH   3  22
TORSDOF 4
ENDMDL
MODEL 9
REMARK VINA RESULT:      -8.1      1.366      1.968
REMARK  Name = 
REMARK  5 active torsions:
REMARK  status: ('A' for Active; 'I' for Inactive)
REMARK    1  A    between atoms: C_1  and  C_2
REMARK    2  A    between atoms: C_5  and  C_6
REMARK    3  A    between atoms: C_9  and  C_10
REMARK    4  A    between atoms: N_12  and  C_13
REMARK    5  A    between atoms: N_12  and  C_19
REMARK                            x       y       z     vdW  Elec       q    Type
REMARK                         _______ _______ _______ _____ _____    ______ ____
ROOT
ATOM      1  C   UNL     1       3.963   6.320  17.272  0.00  0.00    +0.000 C 
ATOM      2  O   UNL     1       4.691   6.996  16.533  0.00  0.00    +0.000 OA
ATOM      3  N   UNL     1       3.977   4.903  17.215  0.00  0.00    +0.000 N 
ENDROOT
BRANCH   1   7
ATOM      4  C   UNL     1       1.437   8.441  20.142  0.00  0.00    +0.000 A 
ATOM      5  C   UNL     1       2.143   7.278  20.482  0.00  0.00    +0.000 A 
ATOM      6  C   UNL     1       2.971   6.626  19.552  0.00  0.00    +0.000 A 
ATOM      7  C   UNL     1       3.093   7.100  18.236  0.00  0.00    +0.000 A 
ATOM      8  C   UNL     1       2.340   8.231  17.896  0.00  0.00    +0.000 A 
ATOM      9  C   UNL     1       1.570   8.927  18.842  0.00  0.00    +0.000 A 
BRANCH   4  14
ATOM     10  C   UNL     1      -0.808  12.030  22.481  0.00  0.00    +0.000 C 
ATOM     11  C   UNL     1      -0.439  10.644  22.147  0.00  0.00    +0.000 A 
ATOM     12  N   UNL     1      -0.952   9.523  22.607  0.00  0.00    +0.000 NA
ATOM     13  N   UNL     1      -0.303   8.503  21.946  0.00  0.00    +0.000 NA
ATOM     14  C   UNL     1       0.560   9.072  21.130  0.00  0.00    +0.000 A 
ATOM     15  O   UNL     1       0.541  10.442  21.210  0.00  0.00    +0.000 OA
ENDBRANCH   4  14
ENDBRANCH   1   7
BRANCH   3  16
ATOM     16  C   UNL     1       3.126   4.091  18.001  0.00  0.00    +0.000 A 
ATOM     17  C   UNL     1       1.760   4.016  17.718  0.00  0.00    +0.000 A 
ATOM     18  C   UNL     1       0.906   3.332  18.584  0.00  0.00    +0.000 A 
ATOM     19  C   UNL     1       1.422   2.706  19.721  0.00  0.00    +0.000 A 
ATOM     20  C   UNL     1       2.786   2.750  19.992  0.00  0.00    +0.000 A 
ATOM     21  C   UNL     1       3.642   3.452  19.140  0.00  0.00    +0.000 A 
ENDBRANCH   3  16
BRANCH   3  22
ATOM     22  C   UNL     1       4.920   4.218  16.291  0.00  0.00    +0.000 C 
ATOM     23  C   UNL     1       6.395   4.531  16.608  0.00  0.00    +0.000 C 
ATOM     24  C   UNL     1       7.184   4.253  15.331  0.00  0.00    +0.000 C 
ATOM     25  C   UNL     1       6.173   4.163  14.199  0.00  0.00    +0.000 C 
ATOM     26  C   UNL     1       4.850   4.604  14.800  0.00  0.00    +0.000 C 
ENDBRANCH   3  22
TORSDOF 4
ENDMDL
