MODEL 1
REMARK VINA RESULT:      -8.8      0.000      0.000
REMARK  Name = 
REMARK  7 active torsions:
REMARK  status: ('A' for Active; 'I' for Inactive)
REMARK    1  A    between atoms: C_2  and  C_11
REMARK    2  A    between atoms: N_3  and  C_4
REMARK    3  A    between atoms: C_4  and  C_5
REMARK    4  A    between atoms: C_15  and  O_16
REMARK    5  A    between atoms: O_16  and  C_17
REMARK    6  A    between atoms: C_17  and  C_18
REMARK    7  A    between atoms: N_22  and  C_23
REMARK                            x       y       z     vdW  Elec       q    Type
REMARK                         _______ _______ _______ _____ _____    ______ ____
ROOT
ATOM      1  C   UNL     1       0.685   9.521  20.916  0.00  0.00    +0.000 A 
ATOM      2  C   UNL     1       0.362   8.854  22.106  0.00  0.00    +0.000 A 
ATOM      3  C   UNL     1      -0.372   9.499  23.100  0.00  0.00    +0.000 A 
ATOM      4  C   UNL     1      -0.782  10.819  22.917  0.00  0.00    +0.000 A 
ATOM      5  C   UNL     1      -0.445  11.498  21.744  0.00  0.00    +0.000 A 
ATOM      6  C   UNL     1       0.264  10.843  20.731  0.00  0.00    +0.000 A 
ENDROOT
BRANCH   1   8
ATOM      7  O   UNL     1       1.456   9.178  18.729  0.00  0.00    +0.000 OA
ATOM      8  C   UNL     1       1.440   8.766  19.886  0.00  0.00    +0.000 C 
ATOM      9  N   UNL     1       2.060   7.595  20.272  0.00  0.00    +0.000 N 
ATOM     10  H   UNL     1       1.822   7.174  21.160  0.00  0.00    +0.000 HD
BRANCH   9  11
ATOM     11  C   UNL     1       2.639   6.733  19.262  0.00  0.00    +0.000 C 
BRANCH  11  12
ATOM     12  C   UNL     1       2.098   5.330  19.322  0.00  0.00    +0.000 A 
ATOM     13  C   UNL     1       1.504   4.837  20.493  0.00  0.00    +0.000 A 
ATOM     14  C   UNL     1       0.929   3.564  20.515  0.00  0.00    +0.000 A 
ATOM     15  C   UNL     1       0.942   2.772  19.368  0.00  0.00    +0.000 A 
ATOM     16  C   UNL     1       1.534   3.248  18.201  0.00  0.00    +0.000 A 
ATOM     17  C   UNL     1       2.109   4.520  18.177  0.00  0.00    +0.000 A 
ENDBRANCH  11  12
ENDBRANCH   9  11
ENDBRANCH   1   8
BRANCH   5  18
ATOM     18  O   UNL     1      -0.789  12.795  21.477  0.00  0.00    +0.000 OA
BRANCH  18  19
ATOM     19  C   UNL     1      -1.403  13.032  20.207  0.00  0.00    +0.000 C 
BRANCH  19  20
ATOM     20  C   UNL     1      -2.841  12.704  20.355  0.00  0.00    +0.000 A 
ATOM     21  N   UNL     1      -3.610  13.105  21.352  0.00  0.00    +0.000 NA
ATOM     22  N   UNL     1      -4.896  12.842  20.979  0.00  0.00    +0.000 NA
ATOM     23  N   UNL     1      -4.937  12.291  19.777  0.00  0.00    +0.000 NA
ATOM     24  N   UNL     1      -3.648  12.101  19.401  0.00  0.00    +0.000 N 
BRANCH  24  25
ATOM     25  C   UNL     1      -3.333  11.388  18.220  0.00  0.00    +0.000 A 
ATOM     26  C   UNL     1      -4.175  11.511  17.105  0.00  0.00    +0.000 A 
ATOM     27  C   UNL     1      -3.862  10.850  15.915  0.00  0.00    +0.000 A 
ATOM     28  C   UNL     1      -2.733  10.037  15.844  0.00  0.00    +0.000 A 
ATOM     29  C   UNL     1      -1.920   9.872  16.963  0.00  0.00    +0.000 A 
ATOM     30  C   UNL     1      -2.217  10.546  18.151  0.00  0.00    +0.000 A 
ENDBRANCH  24  25
ENDBRANCH  19  20
ENDBRANCH  18  19
ENDBRANCH   5  18
TORSDOF 7
ENDMDL
MODEL 2
REMARK VINA RESULT:      -8.5      4.347      9.690
REMARK  Name = 
REMARK  7 active torsions:
REMARK  status: ('A' for Active; 'I' for Inactive)
REMARK    1  A    between atoms: C_2  and  C_11
REMARK    2  A    between atoms: N_3  and  C_4
REMARK    3  A    between atoms: C_4  and  C_5
REMARK    4  A    between atoms: C_15  and  O_16
REMARK    5  A    between atoms: O_16  and  C_17
REMARK    6  A    between atoms: C_17  and  C_18
REMARK    7  A    between atoms: N_22  and  C_23
REMARK                            x       y       z     vdW  Elec       q    Type
REMARK                         _______ _______ _______ _____ _____    ______ ____
ROOT
ATOM      1  C   UNL     1       2.048   6.384  19.831  0.00  0.00    +0.000 A 
ATOM      2  C   UNL     1       1.561   5.303  20.579  0.00  0.00    +0.000 A 
ATOM      3  C   UNL     1       1.855   3.994  20.200  0.00  0.00    +0.000 A 
ATOM      4  C   UNL     1       2.631   3.755  19.066  0.00  0.00    +0.000 A 
ATOM      5  C   UNL     1       3.100   4.827  18.303  0.00  0.00    +0.000 A 
ATOM      6  C   UNL     1       2.834   6.142  18.700  0.00  0.00    +0.000 A 
ENDROOT
BRANCH   1   8
ATOM      7  O   UNL     1       1.580   7.950  21.513  0.00  0.00    +0.000 OA
ATOM      8  C   UNL     1       1.725   7.752  20.309  0.00  0.00    +0.000 C 
ATOM      9  N   UNL     1       1.555   8.741  19.362  0.00  0.00    +0.000 N 
ATOM     10  H   UNL     1       1.444   8.486  18.390  0.00  0.00    +0.000 HD
BRANCH   9  11
ATOM     11  C   UNL     1       1.051  10.036  19.772  0.00  0.00    +0.000 C 
BRANCH  11  12
ATOM     12  C   UNL     1      -0.165  10.456  18.990  0.00  0.00    +0.000 A 
ATOM     13  C   UNL     1      -0.608   9.705  17.891  0.00  0.00    +0.000 A 
ATOM     14  C   UNL     1      -1.783  10.053  17.222  0.00  0.00    +0.000 A 
ATOM     15  C   UNL     1      -2.527  11.155  17.644  0.00  0.00    +0.000 A 
ATOM     16  C   UNL     1      -2.094  11.912  18.729  0.00  0.00    +0.000 A 
ATOM     17  C   UNL     1      -0.920  11.565  19.399  0.00  0.00    +0.000 A 
ENDBRANCH  11  12
ENDBRANCH   9  11
ENDBRANCH   1   8
BRANCH   5  18
ATOM     18  O   UNL     1       3.855   4.695  17.170  0.00  0.00    +0.000 OA
BRANCH  18  19
ATOM     19  C   UNL     1       4.688   5.810  16.839  0.00  0.00    +0.000 C 
BRANCH  19  20
ATOM     20  C   UNL     1       6.083   5.412  17.146  0.00  0.00    +0.000 A 
ATOM     21  N   UNL     1       6.629   5.436  18.349  0.00  0.00    +0.000 NA
ATOM     22  N   UNL     1       7.799   4.741  18.256  0.00  0.00    +0.000 NA
ATOM     23  N   UNL     1       7.986   4.289  17.028  0.00  0.00    +0.000 NA
ATOM     24  N   UNL     1       6.966   4.783  16.282  0.00  0.00    +0.000 N 
BRANCH  24  25
ATOM     25  C   UNL     1       6.945   4.613  14.877  0.00  0.00    +0.000 A 
ATOM     26  C   UNL     1       6.063   3.677  14.317  0.00  0.00    +0.000 A 
ATOM     27  C   UNL     1       5.995   3.522  12.931  0.00  0.00    +0.000 A 
ATOM     28  C   UNL     1       6.828   4.270  12.102  0.00  0.00    +0.000 A 
ATOM     29  C   UNL     1       7.741   5.166  12.656  0.00  0.00    +0.000 A 
ATOM     30  C   UNL     1       7.801   5.340  14.040  0.00  0.00    +0.000 A 
ENDBRANCH  24  25
ENDBRANCH  19  20
ENDBRANCH  18  19
ENDBRANCH   5  18
TORSDOF 7
ENDMDL
MODEL 3
REMARK VINA RESULT:      -8.4      2.710      8.781
REMARK  Name = 
REMARK  7 active torsions:
REMARK  status: ('A' for Active; 'I' for Inactive)
REMARK    1  A    between atoms: C_2  and  C_11
REMARK    2  A    between atoms: N_3  and  C_4
REMARK    3  A    between atoms: C_4  and  C_5
REMARK    4  A    between atoms: C_15  and  O_16
REMARK    5  A    between atoms: O_16  and  C_17
REMARK    6  A    between atoms: C_17  and  C_18
REMARK    7  A    between atoms: N_22  and  C_23
REMARK                            x       y       z     vdW  Elec       q    Type
REMARK                         _______ _______ _______ _____ _____    ______ ____
ROOT
ATOM      1  C   UNL     1       1.229   9.552  19.210  0.00  0.00    +0.000 A 
ATOM      2  C   UNL     1       1.898   9.455  17.982  0.00  0.00    +0.000 A 
ATOM      3  C   UNL     1       2.625   8.309  17.664  0.00  0.00    +0.000 A 
ATOM      4  C   UNL     1       2.697   7.254  18.574  0.00  0.00    +0.000 A 
ATOM      5  C   UNL     1       2.052   7.353  19.809  0.00  0.00    +0.000 A 
ATOM      6  C   UNL     1       1.294   8.489  20.117  0.00  0.00    +0.000 A 
ENDROOT
BRANCH   1   8
ATOM      7  O   UNL     1       0.879  11.615  20.268  0.00  0.00    +0.000 OA
ATOM      8  C   UNL     1       0.446  10.786  19.472  0.00  0.00    +0.000 C 
ATOM      9  N   UNL     1      -0.769  10.924  18.834  0.00  0.00    +0.000 N 
ATOM     10  H   UNL     1      -1.191  10.122  18.386  0.00  0.00    +0.000 HD
BRANCH   9  11
ATOM     11  C   UNL     1      -1.647  12.014  19.209  0.00  0.00    +0.000 C 
BRANCH  11  12
ATOM     12  C   UNL     1      -3.050  11.826  18.697  0.00  0.00    +0.000 A 
ATOM     13  C   UNL     1      -4.155  12.222  19.465  0.00  0.00    +0.000 A 
ATOM     14  C   UNL     1      -5.449  12.122  18.950  0.00  0.00    +0.000 A 
ATOM     15  C   UNL     1      -5.652  11.626  17.662  0.00  0.00    +0.000 A 
ATOM     16  C   UNL     1      -4.563  11.225  16.892  0.00  0.00    +0.000 A 
ATOM     17  C   UNL     1      -3.269  11.324  17.406  0.00  0.00    +0.000 A 
ENDBRANCH  11  12
ENDBRANCH   9  11
ENDBRANCH   1   8
BRANCH   5  18
ATOM     18  O   UNL     1       2.074   6.381  20.771  0.00  0.00    +0.000 OA
BRANCH  18  19
ATOM     19  C   UNL     1       1.414   5.156  20.439  0.00  0.00    +0.000 C 
BRANCH  19  20
ATOM     20  C   UNL     1       2.292   4.054  20.900  0.00  0.00    +0.000 A 
ATOM     21  N   UNL     1       2.084   3.323  21.981  0.00  0.00    +0.000 NA
ATOM     22  N   UNL     1       2.934   2.259  21.898  0.00  0.00    +0.000 NA
ATOM     23  N   UNL     1       3.658   2.316  20.793  0.00  0.00    +0.000 NA
ATOM     24  N   UNL     1       3.344   3.491  20.193  0.00  0.00    +0.000 N 
BRANCH  24  25
ATOM     25  C   UNL     1       4.057   3.939  19.056  0.00  0.00    +0.000 A 
ATOM     26  C   UNL     1       3.585   3.601  17.779  0.00  0.00    +0.000 A 
ATOM     27  C   UNL     1       4.247   4.067  16.642  0.00  0.00    +0.000 A 
ATOM     28  C   UNL     1       5.401   4.838  16.771  0.00  0.00    +0.000 A 
ATOM     29  C   UNL     1       5.901   5.136  18.037  0.00  0.00    +0.000 A 
ATOM     30  C   UNL     1       5.232   4.690  19.179  0.00  0.00    +0.000 A 
ENDBRANCH  24  25
ENDBRANCH  19  20
ENDBRANCH  18  19
ENDBRANCH   5  18
TORSDOF 7
ENDMDL
MODEL 4
REMARK VINA RESULT:      -8.4      4.252      9.789
REMARK  Name = 
REMARK  7 active torsions:
REMARK  status: ('A' for Active; 'I' for Inactive)
REMARK    1  A    between atoms: C_2  and  C_11
REMARK    2  A    between atoms: N_3  and  C_4
REMARK    3  A    between atoms: C_4  and  C_5
REMARK    4  A    between atoms: C_15  and  O_16
REMARK    5  A    between atoms: O_16  and  C_17
REMARK    6  A    between atoms: C_17  and  C_18
REMARK    7  A    between atoms: N_22  and  C_23
REMARK                            x       y       z     vdW  Elec       q    Type
REMARK                         _______ _______ _______ _____ _____    ______ ____
ROOT
ATOM      1  C   UNL     1       2.238   6.610  19.673  0.00  0.00    +0.000 A 
ATOM      2  C   UNL     1       2.004   5.480  20.469  0.00  0.00    +0.000 A 
ATOM      3  C   UNL     1       2.473   4.229  20.072  0.00  0.00    +0.000 A 
ATOM      4  C   UNL     1       3.172   4.095  18.873  0.00  0.00    +0.000 A 
ATOM      5  C   UNL     1       3.390   5.212  18.063  0.00  0.00    +0.000 A 
ATOM      6  C   UNL     1       2.949   6.475  18.475  0.00  0.00    +0.000 A 
ENDROOT
BRANCH   1   8
ATOM      7  O   UNL     1       1.466   8.042  21.361  0.00  0.00    +0.000 OA
ATOM      8  C   UNL     1       1.740   7.917  20.171  0.00  0.00    +0.000 C 
ATOM      9  N   UNL     1       1.564   8.931  19.252  0.00  0.00    +0.000 N 
ATOM     10  H   UNL     1       1.569   8.714  18.264  0.00  0.00    +0.000 HD
BRANCH   9  11
ATOM     11  C   UNL     1       0.900  10.151  19.661  0.00  0.00    +0.000 C 
BRANCH  11  12
ATOM     12  C   UNL     1      -0.244  10.518  18.754  0.00  0.00    +0.000 A 
ATOM     13  C   UNL     1      -0.752   9.596  17.828  0.00  0.00    +0.000 A 
ATOM     14  C   UNL     1      -1.867   9.914  17.049  0.00  0.00    +0.000 A 
ATOM     15  C   UNL     1      -2.484  11.156  17.187  0.00  0.00    +0.000 A 
ATOM     16  C   UNL     1      -1.985  12.083  18.099  0.00  0.00    +0.000 A 
ATOM     17  C   UNL     1      -0.871  11.766  18.878  0.00  0.00    +0.000 A 
ENDBRANCH  11  12
ENDBRANCH   9  11
ENDBRANCH   1   8
BRANCH   5  18
ATOM     18  O   UNL     1       4.051   5.181  16.866  0.00  0.00    +0.000 OA
BRANCH  18  19
ATOM     19  C   UNL     1       4.563   3.906  16.467  0.00  0.00    +0.000 C 
BRANCH  19  20
ATOM     20  C   UNL     1       5.669   4.165  15.514  0.00  0.00    +0.000 A 
ATOM     21  N   UNL     1       5.701   3.747  14.261  0.00  0.00    +0.000 NA
ATOM     22  N   UNL     1       6.723   4.419  13.655  0.00  0.00    +0.000 NA
ATOM     23  N   UNL     1       7.318   5.240  14.504  0.00  0.00    +0.000 NA
ATOM     24  N   UNL     1       6.737   5.026  15.711  0.00  0.00    +0.000 N 
BRANCH  24  25
ATOM     25  C   UNL     1       7.246   5.639  16.880  0.00  0.00    +0.000 A 
ATOM     26  C   UNL     1       7.418   7.031  16.900  0.00  0.00    +0.000 A 
ATOM     27  C   UNL     1       7.879   7.663  18.058  0.00  0.00    +0.000 A 
ATOM     28  C   UNL     1       8.204   6.909  19.183  0.00  0.00    +0.000 A 
ATOM     29  C   UNL     1       8.082   5.522  19.153  0.00  0.00    +0.000 A 
ATOM     30  C   UNL     1       7.603   4.885  18.005  0.00  0.00    +0.000 A 
ENDBRANCH  24  25
ENDBRANCH  19  20
ENDBRANCH  18  19
ENDBRANCH   5  18
TORSDOF 7
ENDMDL
MODEL 5
REMARK VINA RESULT:      -8.3      3.084      9.153
REMARK  Name = 
REMARK  7 active torsions:
REMARK  status: ('A' for Active; 'I' for Inactive)
REMARK    1  A    between atoms: C_2  and  C_11
REMARK    2  A    between atoms: N_3  and  C_4
REMARK    3  A    between atoms: C_4  and  C_5
REMARK    4  A    between atoms: C_15  and  O_16
REMARK    5  A    between atoms: O_16  and  C_17
REMARK    6  A    between atoms: C_17  and  C_18
REMARK    7  A    between atoms: N_22  and  C_23
REMARK                            x       y       z     vdW  Elec       q    Type
REMARK                         _______ _______ _______ _____ _____    ______ ____
ROOT
ATOM      1  C   UNL     1       1.580   8.982  19.027  0.00  0.00    +0.000 A 
ATOM      2  C   UNL     1       2.272   8.928  17.808  0.00  0.00    +0.000 A 
ATOM      3  C   UNL     1       2.975   7.780  17.447  0.00  0.00    +0.000 A 
ATOM      4  C   UNL     1       3.001   6.679  18.303  0.00  0.00    +0.000 A 
ATOM      5  C   UNL     1       2.333   6.734  19.529  0.00  0.00    +0.000 A 
ATOM      6  C   UNL     1       1.599   7.873  19.880  0.00  0.00    +0.000 A 
ENDROOT
BRANCH   1   8
ATOM      7  O   UNL     1       0.985  10.767  20.424  0.00  0.00    +0.000 OA
ATOM      8  C   UNL     1       0.825  10.222  19.335  0.00  0.00    +0.000 C 
ATOM      9  N   UNL     1      -0.067  10.684  18.390  0.00  0.00    +0.000 N 
ATOM     10  H   UNL     1      -0.341  10.080  17.627  0.00  0.00    +0.000 HD
BRANCH   9  11
ATOM     11  C   UNL     1      -0.960  11.772  18.730  0.00  0.00    +0.000 C 
BRANCH  11  12
ATOM     12  C   UNL     1      -2.309  11.637  18.077  0.00  0.00    +0.000 A 
ATOM     13  C   UNL     1      -2.431  11.135  16.774  0.00  0.00    +0.000 A 
ATOM     14  C   UNL     1      -3.691  10.935  16.205  0.00  0.00    +0.000 A 
ATOM     15  C   UNL     1      -4.841  11.233  16.934  0.00  0.00    +0.000 A 
ATOM     16  C   UNL     1      -4.734  11.739  18.227  0.00  0.00    +0.000 A 
ATOM     17  C   UNL     1      -3.475  11.939  18.797  0.00  0.00    +0.000 A 
ENDBRANCH  11  12
ENDBRANCH   9  11
ENDBRANCH   1   8
BRANCH   5  18
ATOM     18  O   UNL     1       2.310   5.714  20.441  0.00  0.00    +0.000 OA
BRANCH  18  19
ATOM     19  C   UNL     1       2.015   4.415  19.920  0.00  0.00    +0.000 C 
BRANCH  19  20
ATOM     20  C   UNL     1       3.103   3.513  20.368  0.00  0.00    +0.000 A 
ATOM     21  N   UNL     1       3.054   2.744  21.442  0.00  0.00    +0.000 NA
ATOM     22  N   UNL     1       4.104   1.879  21.346  0.00  0.00    +0.000 NA
ATOM     23  N   UNL     1       4.796   2.094  20.240  0.00  0.00    +0.000 NA
ATOM     24  N   UNL     1       4.245   3.186  19.653  0.00  0.00    +0.000 N 
BRANCH  24  25
ATOM     25  C   UNL     1       4.845   3.781  18.519  0.00  0.00    +0.000 A 
ATOM     26  C   UNL     1       5.965   4.607  18.695  0.00  0.00    +0.000 A 
ATOM     27  C   UNL     1       6.600   5.172  17.587  0.00  0.00    +0.000 A 
ATOM     28  C   UNL     1       6.101   4.947  16.306  0.00  0.00    +0.000 A 
ATOM     29  C   UNL     1       4.960   4.167  16.129  0.00  0.00    +0.000 A 
ATOM     30  C   UNL     1       4.332   3.583  17.231  0.00  0.00    +0.000 A 
ENDBRANCH  24  25
ENDBRANCH  19  20
ENDBRANCH  18  19
ENDBRANCH   5  18
TORSDOF 7
ENDMDL
MODEL 6
REMARK VINA RESULT:      -8.3      4.550      9.870
REMARK  Name = 
REMARK  7 active torsions:
REMARK  status: ('A' for Active; 'I' for Inactive)
REMARK    1  A    between atoms: C_2  and  C_11
REMARK    2  A    between atoms: N_3  and  C_4
REMARK    3  A    between atoms: C_4  and  C_5
REMARK    4  A    between atoms: C_15  and  O_16
REMARK    5  A    between atoms: O_16  and  C_17
REMARK    6  A    between atoms: C_17  and  C_18
REMARK    7  A    between atoms: N_22  and  C_23
REMARK                            x       y       z     vdW  Elec       q    Type
REMARK                         _______ _______ _______ _____ _____    ______ ____
ROOT
ATOM      1  C   UNL     1       2.612   5.418  19.160  0.00  0.00    +0.000 A 
ATOM      2  C   UNL     1       2.607   4.017  19.176  0.00  0.00    +0.000 A 
ATOM      3  C   UNL     1       3.287   3.298  18.194  0.00  0.00    +0.000 A 
ATOM      4  C   UNL     1       3.971   3.974  17.184  0.00  0.00    +0.000 A 
ATOM      5  C   UNL     1       3.963   5.370  17.149  0.00  0.00    +0.000 A 
ATOM      6  C   UNL     1       3.307   6.095  18.152  0.00  0.00    +0.000 A 
ENDROOT
BRANCH   1   8
ATOM      7  O   UNL     1       1.082   5.501  20.935  0.00  0.00    +0.000 OA
ATOM      8  C   UNL     1       1.894   6.121  20.253  0.00  0.00    +0.000 C 
ATOM      9  N   UNL     1       2.143   7.467  20.425  0.00  0.00    +0.000 N 
ATOM     10  H   UNL     1       2.625   7.981  19.700  0.00  0.00    +0.000 HD
BRANCH   9  11
ATOM     11  C   UNL     1       1.325   8.228  21.347  0.00  0.00    +0.000 C 
BRANCH  11  12
ATOM     12  C   UNL     1       0.641   9.393  20.685  0.00  0.00    +0.000 A 
ATOM     13  C   UNL     1       0.781   9.623  19.309  0.00  0.00    +0.000 A 
ATOM     14  C   UNL     1       0.078  10.657  18.687  0.00  0.00    +0.000 A 
ATOM     15  C   UNL     1      -0.773  11.471  19.434  0.00  0.00    +0.000 A 
ATOM     16  C   UNL     1      -0.916  11.257  20.802  0.00  0.00    +0.000 A 
ATOM     17  C   UNL     1      -0.213  10.224  21.425  0.00  0.00    +0.000 A 
ENDBRANCH  11  12
ENDBRANCH   9  11
ENDBRANCH   1   8
BRANCH   5  18
ATOM     18  O   UNL     1       4.591   6.122  16.195  0.00  0.00    +0.000 OA
BRANCH  18  19
ATOM     19  C   UNL     1       5.698   6.909  16.646  0.00  0.00    +0.000 C 
BRANCH  19  20
ATOM     20  C   UNL     1       6.793   5.965  16.975  0.00  0.00    +0.000 A 
ATOM     21  N   UNL     1       7.352   5.841  18.166  0.00  0.00    +0.000 NA
ATOM     22  N   UNL     1       8.096   4.698  18.126  0.00  0.00    +0.000 NA
ATOM     23  N   UNL     1       8.008   4.116  16.941  0.00  0.00    +0.000 NA
ATOM     24  N   UNL     1       7.271   4.948  16.164  0.00  0.00    +0.000 N 
BRANCH  24  25
ATOM     25  C   UNL     1       7.111   4.696  14.780  0.00  0.00    +0.000 A 
ATOM     26  C   UNL     1       7.877   5.428  13.861  0.00  0.00    +0.000 A 
ATOM     27  C   UNL     1       7.767   5.167  12.494  0.00  0.00    +0.000 A 
ATOM     28  C   UNL     1       6.870   4.205  12.035  0.00  0.00    +0.000 A 
ATOM     29  C   UNL     1       6.071   3.509  12.940  0.00  0.00    +0.000 A 
ATOM     30  C   UNL     1       6.190   3.751  14.311  0.00  0.00    +0.000 A 
ENDBRANCH  24  25
ENDBRANCH  19  20
ENDBRANCH  18  19
ENDBRANCH   5  18
TORSDOF 7
ENDMDL
MODEL 7
REMARK VINA RESULT:      -8.3      4.156      9.633
REMARK  Name = 
REMARK  7 active torsions:
REMARK  status: ('A' for Active; 'I' for Inactive)
REMARK    1  A    between atoms: C_2  and  C_11
REMARK    2  A    between atoms: N_3  and  C_4
REMARK    3  A    between atoms: C_4  and  C_5
REMARK    4  A    between atoms: C_15  and  O_16
REMARK    5  A    between atoms: O_16  and  C_17
REMARK    6  A    between atoms: C_17  and  C_18
REMARK    7  A    between atoms: N_22  and  C_23
REMARK                            x       y       z     vdW  Elec       q    Type
REMARK                         _______ _______ _______ _____ _____    ______ ____
ROOT
ATOM      1  C   UNL     1       2.048   7.547  19.394  0.00  0.00    +0.000 A 
ATOM      2  C   UNL     1       1.851   6.548  20.358  0.00  0.00    +0.000 A 
ATOM      3  C   UNL     1       2.409   5.282  20.186  0.00  0.00    +0.000 A 
ATOM      4  C   UNL     1       3.161   5.001  19.046  0.00  0.00    +0.000 A 
ATOM      5  C   UNL     1       3.343   5.984  18.070  0.00  0.00    +0.000 A 
ATOM      6  C   UNL     1       2.811   7.266  18.255  0.00  0.00    +0.000 A 
ENDROOT
BRANCH   1   8
ATOM      7  O   UNL     1       1.190   9.207  20.809  0.00  0.00    +0.000 OA
ATOM      8  C   UNL     1       1.453   8.882  19.654  0.00  0.00    +0.000 C 
ATOM      9  N   UNL     1       1.178   9.687  18.568  0.00  0.00    +0.000 N 
ATOM     10  H   UNL     1       1.184   9.289  17.638  0.00  0.00    +0.000 HD
BRANCH   9  11
ATOM     11  C   UNL     1       0.424  10.908  18.763  0.00  0.00    +0.000 C 
BRANCH  11  12
ATOM     12  C   UNL     1      -1.017  10.768  18.349  0.00  0.00    +0.000 A 
ATOM     13  C   UNL     1      -2.001  11.622  18.868  0.00  0.00    +0.000 A 
ATOM     14  C   UNL     1      -3.320  11.541  18.416  0.00  0.00    +0.000 A 
ATOM     15  C   UNL     1      -3.668  10.607  17.441  0.00  0.00    +0.000 A 
ATOM     16  C   UNL     1      -2.701   9.750  16.922  0.00  0.00    +0.000 A 
ATOM     17  C   UNL     1      -1.382   9.829  17.373  0.00  0.00    +0.000 A 
ENDBRANCH  11  12
ENDBRANCH   9  11
ENDBRANCH   1   8
BRANCH   5  18
ATOM     18  O   UNL     1       4.051   5.802  16.914  0.00  0.00    +0.000 OA
BRANCH  18  19
ATOM     19  C   UNL     1       4.323   4.444  16.554  0.00  0.00    +0.000 C 
BRANCH  19  20
ATOM     20  C   UNL     1       5.479   4.467  15.626  0.00  0.00    +0.000 A 
ATOM     21  N   UNL     1       5.480   3.958  14.406  0.00  0.00    +0.000 NA
ATOM     22  N   UNL     1       6.605   4.427  13.793  0.00  0.00    +0.000 NA
ATOM     23  N   UNL     1       7.295   5.212  14.603  0.00  0.00    +0.000 NA
ATOM     24  N   UNL     1       6.658   5.175  15.800  0.00  0.00    +0.000 N 
BRANCH  24  25
ATOM     25  C   UNL     1       7.223   5.791  16.942  0.00  0.00    +0.000 A 
ATOM     26  C   UNL     1       7.466   7.172  16.921  0.00  0.00    +0.000 A 
ATOM     27  C   UNL     1       7.983   7.809  18.052  0.00  0.00    +0.000 A 
ATOM     28  C   UNL     1       8.295   7.069  19.190  0.00  0.00    +0.000 A 
ATOM     29  C   UNL     1       8.101   5.689  19.199  0.00  0.00    +0.000 A 
ATOM     30  C   UNL     1       7.566   5.049  18.079  0.00  0.00    +0.000 A 
ENDBRANCH  24  25
ENDBRANCH  19  20
ENDBRANCH  18  19
ENDBRANCH   5  18
TORSDOF 7
ENDMDL
MODEL 8
REMARK VINA RESULT:      -8.2      3.117      9.132
REMARK  Name = 
REMARK  7 active torsions:
REMARK  status: ('A' for Active; 'I' for Inactive)
REMARK    1  A    between atoms: C_2  and  C_11
REMARK    2  A    between atoms: N_3  and  C_4
REMARK    3  A    between atoms: C_4  and  C_5
REMARK    4  A    between atoms: C_15  and  O_16
REMARK    5  A    between atoms: O_16  and  C_17
REMARK    6  A    between atoms: C_17  and  C_18
REMARK    7  A    between atoms: N_22  and  C_23
REMARK                            x       y       z     vdW  Elec       q    Type
REMARK                         _______ _______ _______ _____ _____    ______ ____
ROOT
ATOM      1  C   UNL     1       0.990   9.464  20.499  0.00  0.00    +0.000 A 
ATOM      2  C   UNL     1       0.705  10.292  19.405  0.00  0.00    +0.000 A 
ATOM      3  C   UNL     1       1.120   9.934  18.123  0.00  0.00    +0.000 A 
ATOM      4  C   UNL     1       1.829   8.750  17.925  0.00  0.00    +0.000 A 
ATOM      5  C   UNL     1       2.136   7.930  19.014  0.00  0.00    +0.000 A 
ATOM      6  C   UNL     1       1.693   8.271  20.298  0.00  0.00    +0.000 A 
ENDROOT
BRANCH   1   8
ATOM      7  O   UNL     1       1.128   9.585  22.836  0.00  0.00    +0.000 OA
ATOM      8  C   UNL     1       0.491   9.888  21.831  0.00  0.00    +0.000 C 
ATOM      9  N   UNL     1      -0.706  10.574  21.882  0.00  0.00    +0.000 N 
ATOM     10  H   UNL     1      -1.307  10.587  21.069  0.00  0.00    +0.000 HD
BRANCH   9  11
ATOM     11  C   UNL     1      -1.320  10.833  23.168  0.00  0.00    +0.000 C 
BRANCH  11  12
ATOM     12  C   UNL     1      -1.955  12.196  23.240  0.00  0.00    +0.000 A 
ATOM     13  C   UNL     1      -3.303  12.344  23.598  0.00  0.00    +0.000 A 
ATOM     14  C   UNL     1      -3.862  13.615  23.743  0.00  0.00    +0.000 A 
ATOM     15  C   UNL     1      -3.081  14.751  23.532  0.00  0.00    +0.000 A 
ATOM     16  C   UNL     1      -1.743  14.617  23.170  0.00  0.00    +0.000 A 
ATOM     17  C   UNL     1      -1.182  13.346  23.024  0.00  0.00    +0.000 A 
ENDBRANCH  11  12
ENDBRANCH   9  11
ENDBRANCH   1   8
BRANCH   5  18
ATOM     18  O   UNL     1       2.837   6.759  18.925  0.00  0.00    +0.000 OA
BRANCH  18  19
ATOM     19  C   UNL     1       3.762   6.664  17.838  0.00  0.00    +0.000 C 
BRANCH  19  20
ATOM     20  C   UNL     1       4.694   5.557  18.160  0.00  0.00    +0.000 A 
ATOM     21  N   UNL     1       6.002   5.593  17.978  0.00  0.00    +0.000 NA
ATOM     22  N   UNL     1       6.515   4.521  18.648  0.00  0.00    +0.000 NA
ATOM     23  N   UNL     1       5.556   3.828  19.239  0.00  0.00    +0.000 NA
ATOM     24  N   UNL     1       4.386   4.403  18.865  0.00  0.00    +0.000 N 
BRANCH  24  25
ATOM     25  C   UNL     1       3.146   3.811  19.202  0.00  0.00    +0.000 A 
ATOM     26  C   UNL     1       2.723   3.830  20.539  0.00  0.00    +0.000 A 
ATOM     27  C   UNL     1       1.484   3.290  20.889  0.00  0.00    +0.000 A 
ATOM     28  C   UNL     1       0.679   2.698  19.917  0.00  0.00    +0.000 A 
ATOM     29  C   UNL     1       1.116   2.634  18.596  0.00  0.00    +0.000 A 
ATOM     30  C   UNL     1       2.346   3.190  18.236  0.00  0.00    +0.000 A 
ENDBRANCH  24  25
ENDBRANCH  19  20
ENDBRANCH  18  19
ENDBRANCH   5  18
TORSDOF 7
ENDMDL
MODEL 9
REMARK VINA RESULT:      -8.2      4.257      9.639
REMARK  Name = 
REMARK  7 active torsions:
REMARK  status: ('A' for Active; 'I' for Inactive)
REMARK    1  A    between atoms: C_2  and  C_11
REMARK    2  A    between atoms: N_3  and  C_4
REMARK    3  A    between atoms: C_4  and  C_5
REMARK    4  A    between atoms: C_15  and  O_16
REMARK    5  A    between atoms: O_16  and  C_17
REMARK    6  A    between atoms: C_17  and  C_18
REMARK    7  A    between atoms: N_22  and  C_23
REMARK                            x       y       z     vdW  Elec       q    Type
REMARK                         _______ _______ _______ _____ _____    ______ ____
ROOT
ATOM      1  C   UNL     1       1.654   7.615  19.988  0.00  0.00    +0.000 A 
ATOM      2  C   UNL     1       1.469   6.461  20.763  0.00  0.00    +0.000 A 
ATOM      3  C   UNL     1       2.177   5.296  20.473  0.00  0.00    +0.000 A 
ATOM      4  C   UNL     1       3.070   5.271  19.402  0.00  0.00    +0.000 A 
ATOM      5  C   UNL     1       3.243   6.409  18.612  0.00  0.00    +0.000 A 
ATOM      6  C   UNL     1       2.557   7.590  18.920  0.00  0.00    +0.000 A 
ENDROOT
BRANCH   1   8
ATOM      7  O   UNL     1       0.311   8.859  21.451  0.00  0.00    +0.000 OA
ATOM      8  C   UNL     1       0.893   8.830  20.370  0.00  0.00    +0.000 C 
ATOM      9  N   UNL     1       0.838   9.867  19.462  0.00  0.00    +0.000 N 
ATOM     10  H   UNL     1       1.121   9.707  18.505  0.00  0.00    +0.000 HD
BRANCH   9  11
ATOM     11  C   UNL     1      -0.050  10.984  19.715  0.00  0.00    +0.000 C 
BRANCH  11  12
ATOM     12  C   UNL     1      -1.271  10.960  18.835  0.00  0.00    +0.000 A 
ATOM     13  C   UNL     1      -1.349  10.095  17.735  0.00  0.00    +0.000 A 
ATOM     14  C   UNL     1      -2.517  10.018  16.974  0.00  0.00    +0.000 A 
ATOM     15  C   UNL     1      -3.619  10.806  17.305  0.00  0.00    +0.000 A 
ATOM     16  C   UNL     1      -3.553  11.674  18.392  0.00  0.00    +0.000 A 
ATOM     17  C   UNL     1      -2.385  11.751  19.154  0.00  0.00    +0.000 A 
ENDBRANCH  11  12
ENDBRANCH   9  11
ENDBRANCH   1   8
BRANCH   5  18
ATOM     18  O   UNL     1       4.082   6.480  17.534  0.00  0.00    +0.000 OA
BRANCH  18  19
ATOM     19  C   UNL     1       4.466   5.228  16.956  0.00  0.00    +0.000 C 
BRANCH  19  20
ATOM     20  C   UNL     1       5.917   5.061  17.212  0.00  0.00    +0.000 A 
ATOM     21  N   UNL     1       6.488   5.134  18.401  0.00  0.00    +0.000 NA
ATOM     22  N   UNL     1       7.755   4.650  18.252  0.00  0.00    +0.000 NA
ATOM     23  N   UNL     1       7.977   4.281  17.001  0.00  0.00    +0.000 NA
ATOM     24  N   UNL     1       6.866   4.622  16.302  0.00  0.00    +0.000 N 
BRANCH  24  25
ATOM     25  C   UNL     1       6.830   4.502  14.892  0.00  0.00    +0.000 A 
ATOM     26  C   UNL     1       7.710   5.275  14.120  0.00  0.00    +0.000 A 
ATOM     27  C   UNL     1       7.722   5.142  12.730  0.00  0.00    +0.000 A 
ATOM     28  C   UNL     1       6.835   4.270  12.103  0.00  0.00    +0.000 A 
ATOM     29  C   UNL     1       5.926   3.536  12.862  0.00  0.00    +0.000 A 
ATOM     30  C   UNL     1       5.922   3.649  14.254  0.00  0.00    +0.000 A 
ENDBRANCH  24  25
ENDBRANCH  19  20
ENDBRANCH  18  19
ENDBRANCH   5  18
TORSDOF 7
ENDMDL
