MODEL 1
REMARK VINA RESULT:      -9.3      0.000      0.000
REMARK  Name = 
REMARK  6 active torsions:
REMARK  status: ('A' for Active; 'I' for Inactive)
REMARK    1  A    between atoms: C_1  and  C_2
REMARK    2  A    between atoms: C_4  and  C_5
REMARK    3  A    between atoms: C_5  and  C_6
REMARK    4  A    between atoms: C_5  and  N_7
REMARK    5  A    between atoms: C_8  and  C_10
REMARK    6  A    between atoms: N_12  and  C_13
REMARK                            x       y       z     vdW  Elec       q    Type
REMARK                         _______ _______ _______ _____ _____    ______ ____
ROOT
ATOM      1  C   UNL     1       8.053   8.595  18.069  0.00  0.00    +0.000 C 
ATOM      2  O   UNL     1       7.536   9.299  17.207  0.00  0.00    +0.000 OA
ATOM      3  N   UNL     1       8.966   8.979  19.039  0.00  0.00    +0.000 N 
ATOM      4  H   UNL     1       9.389   8.228  19.577  0.00  0.00    +0.000 HD
ENDROOT
BRANCH   3   5
ATOM      5  C   UNL     1       9.457  10.298  19.187  0.00  0.00    +0.000 A 
ATOM      6  C   UNL     1       9.377  11.013  20.375  0.00  0.00    +0.000 A 
ATOM      7  N   UNL     1       9.779  12.296  20.533  0.00  0.00    +0.000 NA
ATOM      8  C   UNL     1      10.261  12.952  19.464  0.00  0.00    +0.000 A 
ATOM      9  C   UNL     1      10.620  14.295  19.564  0.00  0.00    +0.000 A 
ATOM     10  F   UNL     1      10.504  14.933  20.741  0.00  0.00    +0.000 F 
ATOM     11  C   UNL     1      11.088  15.027  18.475  0.00  0.00    +0.000 A 
ATOM     12  C   UNL     1      11.217  14.406  17.239  0.00  0.00    +0.000 A 
ATOM     13  C   UNL     1      10.887  13.055  17.108  0.00  0.00    +0.000 A 
ATOM     14  C   UNL     1      10.406  12.317  18.210  0.00  0.00    +0.000 A 
ATOM     15  C   UNL     1      10.027  10.959  18.099  0.00  0.00    +0.000 A 
ENDBRANCH   3   5
BRANCH   1  17
ATOM     16  N   UNL     1       6.953   6.738  16.949  0.00  0.00    +0.000 N 
ATOM     17  C   UNL     1       7.711   7.091  18.044  0.00  0.00    +0.000 C 
ATOM     18  O   UNL     1       8.117   6.355  18.933  0.00  0.00    +0.000 OA
ATOM     19  H   UNL     1       6.751   7.482  16.286  0.00  0.00    +0.000 HD
BRANCH  16  20
ATOM     20  C   UNL     1       6.569   5.374  16.641  0.00  0.00    +0.000 C 
ATOM     21  C   UNL     1       6.802   5.043  15.164  0.00  0.00    +0.000 C 
BRANCH  20  25
ATOM     22  C   UNL     1       2.701   2.173  17.631  0.00  0.00    +0.000 C 
ATOM     23  C   UNL     1       3.278   3.555  17.549  0.00  0.00    +0.000 A 
ATOM     24  C   UNL     1       4.596   3.784  17.113  0.00  0.00    +0.000 A 
ATOM     25  C   UNL     1       5.128   5.089  17.054  0.00  0.00    +0.000 A 
ATOM     26  C   UNL     1       4.300   6.162  17.425  0.00  0.00    +0.000 A 
ATOM     27  C   UNL     1       2.994   5.943  17.864  0.00  0.00    +0.000 A 
ATOM     28  C   UNL     1       2.495   4.648  17.925  0.00  0.00    +0.000 A 
ATOM     29  F   UNL     1       1.243   4.456  18.360  0.00  0.00    +0.000 F 
ENDBRANCH  20  25
ENDBRANCH  16  20
ENDBRANCH   1  17
TORSDOF 4
ENDMDL
MODEL 2
REMARK VINA RESULT:      -9.1      0.367      1.320
REMARK  Name = 
REMARK  6 active torsions:
REMARK  status: ('A' for Active; 'I' for Inactive)
REMARK    1  A    between atoms: C_1  and  C_2
REMARK    2  A    between atoms: C_4  and  C_5
REMARK    3  A    between atoms: C_5  and  C_6
REMARK    4  A    between atoms: C_5  and  N_7
REMARK    5  A    between atoms: C_8  and  C_10
REMARK    6  A    between atoms: N_12  and  C_13
REMARK                            x       y       z     vdW  Elec       q    Type
REMARK                         _______ _______ _______ _____ _____    ______ ____
ROOT
ATOM      1  C   UNL     1       8.159   8.568  18.091  0.00  0.00    +0.000 C 
ATOM      2  O   UNL     1       7.780   9.245  17.141  0.00  0.00    +0.000 OA
ATOM      3  N   UNL     1       8.945   8.973  19.159  0.00  0.00    +0.000 N 
ATOM      4  H   UNL     1       9.272   8.236  19.778  0.00  0.00    +0.000 HD
ENDROOT
BRANCH   3   5
ATOM      5  C   UNL     1       9.446  10.286  19.320  0.00  0.00    +0.000 A 
ATOM      6  C   UNL     1       9.438  10.963  20.533  0.00  0.00    +0.000 A 
ATOM      7  N   UNL     1       9.851  12.240  20.708  0.00  0.00    +0.000 NA
ATOM      8  C   UNL     1      10.271  12.929  19.633  0.00  0.00    +0.000 A 
ATOM      9  C   UNL     1      10.638  14.269  19.756  0.00  0.00    +0.000 A 
ATOM     10  F   UNL     1      10.594  14.869  20.957  0.00  0.00    +0.000 F 
ATOM     11  C   UNL     1      11.042  15.035  18.665  0.00  0.00    +0.000 A 
ATOM     12  C   UNL     1      11.096  14.454  17.404  0.00  0.00    +0.000 A 
ATOM     13  C   UNL     1      10.757  13.109  17.250  0.00  0.00    +0.000 A 
ATOM     14  C   UNL     1      10.339  12.335  18.353  0.00  0.00    +0.000 A 
ATOM     15  C   UNL     1       9.952  10.981  18.222  0.00  0.00    +0.000 A 
ENDBRANCH   3   5
BRANCH   1  17
ATOM     16  N   UNL     1       7.051   6.718  16.967  0.00  0.00    +0.000 N 
ATOM     17  C   UNL     1       7.783   7.071  18.079  0.00  0.00    +0.000 C 
ATOM     18  O   UNL     1       8.146   6.340  18.991  0.00  0.00    +0.000 OA
ATOM     19  H   UNL     1       6.886   7.456  16.287  0.00  0.00    +0.000 HD
BRANCH  16  20
ATOM     20  C   UNL     1       6.644   5.358  16.669  0.00  0.00    +0.000 C 
ATOM     21  C   UNL     1       6.859   5.018  15.191  0.00  0.00    +0.000 C 
BRANCH  20  25
ATOM     22  C   UNL     1       2.194   6.847  18.707  0.00  0.00    +0.000 C 
ATOM     23  C   UNL     1       3.062   5.813  18.055  0.00  0.00    +0.000 A 
ATOM     24  C   UNL     1       4.404   6.074  17.721  0.00  0.00    +0.000 A 
ATOM     25  C   UNL     1       5.203   5.095  17.097  0.00  0.00    +0.000 A 
ATOM     26  C   UNL     1       4.632   3.840  16.830  0.00  0.00    +0.000 A 
ATOM     27  C   UNL     1       3.300   3.575  17.153  0.00  0.00    +0.000 A 
ATOM     28  C   UNL     1       2.528   4.558  17.758  0.00  0.00    +0.000 A 
ATOM     29  F   UNL     1       1.248   4.289  18.049  0.00  0.00    +0.000 F 
ENDBRANCH  20  25
ENDBRANCH  16  20
ENDBRANCH   1  17
TORSDOF 4
ENDMDL
MODEL 3
REMARK VINA RESULT:      -9.0      6.437      7.955
REMARK  Name = 
REMARK  6 active torsions:
REMARK  status: ('A' for Active; 'I' for Inactive)
REMARK    1  A    between atoms: C_1  and  C_2
REMARK    2  A    between atoms: C_4  and  C_5
REMARK    3  A    between atoms: C_5  and  C_6
REMARK    4  A    between atoms: C_5  and  N_7
REMARK    5  A    between atoms: C_8  and  C_10
REMARK    6  A    between atoms: N_12  and  C_13
REMARK                            x       y       z     vdW  Elec       q    Type
REMARK                         _______ _______ _______ _____ _____    ______ ____
ROOT
ATOM      1  C   UNL     1       2.911   5.264  18.097  0.00  0.00    +0.000 C 
ATOM      2  O   UNL     1       1.774   4.888  17.828  0.00  0.00    +0.000 OA
ATOM      3  N   UNL     1       3.298   6.498  18.596  0.00  0.00    +0.000 N 
ATOM      4  H   UNL     1       4.299   6.675  18.624  0.00  0.00    +0.000 HD
ENDROOT
BRANCH   3   5
ATOM      5  C   UNL     1       2.400   7.552  18.885  0.00  0.00    +0.000 A 
ATOM      6  C   UNL     1       2.045   8.526  17.960  0.00  0.00    +0.000 A 
ATOM      7  N   UNL     1       1.238   9.582  18.222  0.00  0.00    +0.000 NA
ATOM      8  C   UNL     1       0.766   9.732  19.471  0.00  0.00    +0.000 A 
ATOM      9  C   UNL     1      -0.009  10.842  19.802  0.00  0.00    +0.000 A 
ATOM     10  F   UNL     1      -0.305  11.757  18.863  0.00  0.00    +0.000 F 
ATOM     11  C   UNL     1      -0.488  11.062  21.092  0.00  0.00    +0.000 A 
ATOM     12  C   UNL     1      -0.200  10.143  22.093  0.00  0.00    +0.000 A 
ATOM     13  C   UNL     1       0.555   9.008  21.791  0.00  0.00    +0.000 A 
ATOM     14  C   UNL     1       1.047   8.791  20.487  0.00  0.00    +0.000 A 
ATOM     15  C   UNL     1       1.847   7.671  20.160  0.00  0.00    +0.000 A 
ENDBRANCH   3   5
BRANCH   1  17
ATOM     16  N   UNL     1       5.061   4.866  17.032  0.00  0.00    +0.000 N 
ATOM     17  C   UNL     1       4.064   4.287  17.786  0.00  0.00    +0.000 C 
ATOM     18  O   UNL     1       4.028   3.140  18.211  0.00  0.00    +0.000 OA
ATOM     19  H   UNL     1       4.940   5.851  16.812  0.00  0.00    +0.000 HD
BRANCH  16  20
ATOM     20  C   UNL     1       6.295   4.193  16.675  0.00  0.00    +0.000 C 
ATOM     21  C   UNL     1       7.481   4.725  17.486  0.00  0.00    +0.000 C 
BRANCH  20  25
ATOM     22  C   UNL     1       5.267   2.927  11.826  0.00  0.00    +0.000 C 
ATOM     23  C   UNL     1       6.062   3.683  12.848  0.00  0.00    +0.000 A 
ATOM     24  C   UNL     1       5.818   3.545  14.227  0.00  0.00    +0.000 A 
ATOM     25  C   UNL     1       6.566   4.274  15.175  0.00  0.00    +0.000 A 
ATOM     26  C   UNL     1       7.576   5.131  14.710  0.00  0.00    +0.000 A 
ATOM     27  C   UNL     1       7.819   5.278  13.344  0.00  0.00    +0.000 A 
ATOM     28  C   UNL     1       7.064   4.560  12.427  0.00  0.00    +0.000 A 
ATOM     29  F   UNL     1       7.303   4.724  11.119  0.00  0.00    +0.000 F 
ENDBRANCH  20  25
ENDBRANCH  16  20
ENDBRANCH   1  17
TORSDOF 4
ENDMDL
MODEL 4
REMARK VINA RESULT:      -9.0      0.993      1.678
REMARK  Name = 
REMARK  6 active torsions:
REMARK  status: ('A' for Active; 'I' for Inactive)
REMARK    1  A    between atoms: C_1  and  C_2
REMARK    2  A    between atoms: C_4  and  C_5
REMARK    3  A    between atoms: C_5  and  C_6
REMARK    4  A    between atoms: C_5  and  N_7
REMARK    5  A    between atoms: C_8  and  C_10
REMARK    6  A    between atoms: N_12  and  C_13
REMARK                            x       y       z     vdW  Elec       q    Type
REMARK                         _______ _______ _______ _____ _____    ______ ____
ROOT
ATOM      1  C   UNL     1       8.035   8.628  18.012  0.00  0.00    +0.000 C 
ATOM      2  O   UNL     1       7.480   9.276  17.131  0.00  0.00    +0.000 OA
ATOM      3  N   UNL     1       8.954   9.081  18.946  0.00  0.00    +0.000 N 
ATOM      4  H   UNL     1       9.411   8.368  19.507  0.00  0.00    +0.000 HD
ENDROOT
BRANCH   3   5
ATOM      5  C   UNL     1       9.406  10.420  19.026  0.00  0.00    +0.000 A 
ATOM      6  C   UNL     1      10.083  11.060  17.994  0.00  0.00    +0.000 A 
ATOM      7  N   UNL     1      10.583  12.316  18.061  0.00  0.00    +0.000 NA
ATOM      8  C   UNL     1      10.452  12.996  19.213  0.00  0.00    +0.000 A 
ATOM      9  C   UNL     1      11.014  14.264  19.349  0.00  0.00    +0.000 A 
ATOM     10  F   UNL     1      11.670  14.821  18.317  0.00  0.00    +0.000 F 
ATOM     11  C   UNL     1      10.940  14.991  20.536  0.00  0.00    +0.000 A 
ATOM     12  C   UNL     1      10.276  14.449  21.628  0.00  0.00    +0.000 A 
ATOM     13  C   UNL     1       9.682  13.190  21.520  0.00  0.00    +0.000 A 
ATOM     14  C   UNL     1       9.766  12.451  20.321  0.00  0.00    +0.000 A 
ATOM     15  C   UNL     1       9.209  11.157  20.193  0.00  0.00    +0.000 A 
ENDBRANCH   3   5
BRANCH   1  17
ATOM     16  N   UNL     1       6.939   6.697  17.019  0.00  0.00    +0.000 N 
ATOM     17  C   UNL     1       7.740   7.114  18.060  0.00  0.00    +0.000 C 
ATOM     18  O   UNL     1       8.214   6.424  18.952  0.00  0.00    +0.000 OA
ATOM     19  H   UNL     1       6.681   7.409  16.341  0.00  0.00    +0.000 HD
BRANCH  16  20
ATOM     20  C   UNL     1       6.583   5.311  16.781  0.00  0.00    +0.000 C 
ATOM     21  C   UNL     1       6.891   4.890  15.341  0.00  0.00    +0.000 C 
BRANCH  20  25
ATOM     22  C   UNL     1       2.643   2.140  17.554  0.00  0.00    +0.000 C 
ATOM     23  C   UNL     1       3.241   3.515  17.532  0.00  0.00    +0.000 A 
ATOM     24  C   UNL     1       4.575   3.738  17.144  0.00  0.00    +0.000 A 
ATOM     25  C   UNL     1       5.126   5.036  17.141  0.00  0.00    +0.000 A 
ATOM     26  C   UNL     1       4.303   6.109  17.520  0.00  0.00    +0.000 A 
ATOM     27  C   UNL     1       2.981   5.896  17.912  0.00  0.00    +0.000 A 
ATOM     28  C   UNL     1       2.462   4.608  17.918  0.00  0.00    +0.000 A 
ATOM     29  F   UNL     1       1.195   4.421  18.310  0.00  0.00    +0.000 F 
ENDBRANCH  20  25
ENDBRANCH  16  20
ENDBRANCH   1  17
TORSDOF 4
ENDMDL
MODEL 5
REMARK VINA RESULT:      -8.8      6.260      8.202
REMARK  Name = 
REMARK  6 active torsions:
REMARK  status: ('A' for Active; 'I' for Inactive)
REMARK    1  A    between atoms: C_1  and  C_2
REMARK    2  A    between atoms: C_4  and  C_5
REMARK    3  A    between atoms: C_5  and  C_6
REMARK    4  A    between atoms: C_5  and  N_7
REMARK    5  A    between atoms: C_8  and  C_10
REMARK    6  A    between atoms: N_12  and  C_13
REMARK                            x       y       z     vdW  Elec       q    Type
REMARK                         _______ _______ _______ _____ _____    ______ ____
ROOT
ATOM      1  C   UNL     1       4.988   4.282  18.719  0.00  0.00    +0.000 C 
ATOM      2  O   UNL     1       6.126   4.049  19.115  0.00  0.00    +0.000 OA
ATOM      3  N   UNL     1       4.588   4.586  17.426  0.00  0.00    +0.000 N 
ATOM      4  H   UNL     1       3.623   4.885  17.316  0.00  0.00    +0.000 HD
ENDROOT
BRANCH   3   5
ATOM      5  C   UNL     1       5.471   4.674  16.324  0.00  0.00    +0.000 A 
ATOM      6  C   UNL     1       6.563   5.533  16.289  0.00  0.00    +0.000 A 
ATOM      7  N   UNL     1       7.390   5.687  15.228  0.00  0.00    +0.000 NA
ATOM      8  C   UNL     1       7.130   4.991  14.108  0.00  0.00    +0.000 A 
ATOM      9  C   UNL     1       7.913   5.172  12.969  0.00  0.00    +0.000 A 
ATOM     10  F   UNL     1       8.946   6.031  12.996  0.00  0.00    +0.000 F 
ATOM     11  C   UNL     1       7.659   4.503  11.773  0.00  0.00    +0.000 A 
ATOM     12  C   UNL     1       6.596   3.612  11.701  0.00  0.00    +0.000 A 
ATOM     13  C   UNL     1       5.805   3.389  12.831  0.00  0.00    +0.000 A 
ATOM     14  C   UNL     1       6.057   4.074  14.038  0.00  0.00    +0.000 A 
ATOM     15  C   UNL     1       5.250   3.899  15.186  0.00  0.00    +0.000 A 
ENDBRANCH   3   5
BRANCH   1  17
ATOM     16  N   UNL     1       3.218   5.524  19.832  0.00  0.00    +0.000 N 
ATOM     17  C   UNL     1       3.868   4.310  19.780  0.00  0.00    +0.000 C 
ATOM     18  O   UNL     1       3.636   3.316  20.454  0.00  0.00    +0.000 OA
ATOM     19  H   UNL     1       3.519   6.221  19.156  0.00  0.00    +0.000 HD
BRANCH  16  20
ATOM     20  C   UNL     1       2.072   5.789  20.680  0.00  0.00    +0.000 C 
ATOM     21  C   UNL     1       0.954   4.768  20.450  0.00  0.00    +0.000 C 
BRANCH  20  25
ATOM     22  C   UNL     1       1.642  10.144  18.030  0.00  0.00    +0.000 C 
ATOM     23  C   UNL     1       1.341   9.300  19.232  0.00  0.00    +0.000 A 
ATOM     24  C   UNL     1       1.868   8.004  19.379  0.00  0.00    +0.000 A 
ATOM     25  C   UNL     1       1.565   7.218  20.510  0.00  0.00    +0.000 A 
ATOM     26  C   UNL     1       0.734   7.769  21.500  0.00  0.00    +0.000 A 
ATOM     27  C   UNL     1       0.202   9.051  21.358  0.00  0.00    +0.000 A 
ATOM     28  C   UNL     1       0.506   9.803  20.231  0.00  0.00    +0.000 A 
ATOM     29  F   UNL     1      -0.025  11.027  20.107  0.00  0.00    +0.000 F 
ENDBRANCH  20  25
ENDBRANCH  16  20
ENDBRANCH   1  17
TORSDOF 4
ENDMDL
MODEL 6
REMARK VINA RESULT:      -8.8      6.216      8.287
REMARK  Name = 
REMARK  6 active torsions:
REMARK  status: ('A' for Active; 'I' for Inactive)
REMARK    1  A    between atoms: C_1  and  C_2
REMARK    2  A    between atoms: C_4  and  C_5
REMARK    3  A    between atoms: C_5  and  C_6
REMARK    4  A    between atoms: C_5  and  N_7
REMARK    5  A    between atoms: C_8  and  C_10
REMARK    6  A    between atoms: N_12  and  C_13
REMARK                            x       y       z     vdW  Elec       q    Type
REMARK                         _______ _______ _______ _____ _____    ______ ____
ROOT
ATOM      1  C   UNL     1       4.897   4.319  18.738  0.00  0.00    +0.000 C 
ATOM      2  O   UNL     1       5.985   3.885  19.103  0.00  0.00    +0.000 OA
ATOM      3  N   UNL     1       4.547   4.772  17.475  0.00  0.00    +0.000 N 
ATOM      4  H   UNL     1       3.640   5.225  17.398  0.00  0.00    +0.000 HD
ENDROOT
BRANCH   3   5
ATOM      5  C   UNL     1       5.431   4.799  16.371  0.00  0.00    +0.000 A 
ATOM      6  C   UNL     1       6.555   5.614  16.313  0.00  0.00    +0.000 A 
ATOM      7  N   UNL     1       7.386   5.710  15.249  0.00  0.00    +0.000 NA
ATOM      8  C   UNL     1       7.097   4.997  14.146  0.00  0.00    +0.000 A 
ATOM      9  C   UNL     1       7.885   5.120  13.003  0.00  0.00    +0.000 A 
ATOM     10  F   UNL     1       8.951   5.938  13.008  0.00  0.00    +0.000 F 
ATOM     11  C   UNL     1       7.604   4.432  11.824  0.00  0.00    +0.000 A 
ATOM     12  C   UNL     1       6.508   3.580  11.775  0.00  0.00    +0.000 A 
ATOM     13  C   UNL     1       5.710   3.417  12.910  0.00  0.00    +0.000 A 
ATOM     14  C   UNL     1       5.990   4.120  14.100  0.00  0.00    +0.000 A 
ATOM     15  C   UNL     1       5.179   4.005  15.253  0.00  0.00    +0.000 A 
ENDBRANCH   3   5
BRANCH   1  17
ATOM     16  N   UNL     1       3.203   5.690  19.818  0.00  0.00    +0.000 N 
ATOM     17  C   UNL     1       3.797   4.447  19.813  0.00  0.00    +0.000 C 
ATOM     18  O   UNL     1       3.531   3.496  20.535  0.00  0.00    +0.000 OA
ATOM     19  H   UNL     1       3.523   6.342  19.106  0.00  0.00    +0.000 HD
BRANCH  16  20
ATOM     20  C   UNL     1       2.083   6.045  20.669  0.00  0.00    +0.000 C 
ATOM     21  C   UNL     1       0.941   5.032  20.549  0.00  0.00    +0.000 C 
BRANCH  20  25
ATOM     22  C   UNL     1      -0.192  10.396  22.108  0.00  0.00    +0.000 C 
ATOM     23  C   UNL     1       0.525   9.560  21.091  0.00  0.00    +0.000 A 
ATOM     24  C   UNL     1       0.913   8.235  21.360  0.00  0.00    +0.000 A 
ATOM     25  C   UNL     1       1.598   7.466  20.397  0.00  0.00    +0.000 A 
ATOM     26  C   UNL     1       1.872   8.052  19.150  0.00  0.00    +0.000 A 
ATOM     27  C   UNL     1       1.497   9.369  18.878  0.00  0.00    +0.000 A 
ATOM     28  C   UNL     1       0.832  10.111  19.845  0.00  0.00    +0.000 A 
ATOM     29  F   UNL     1       0.491  11.376  19.570  0.00  0.00    +0.000 F 
ENDBRANCH  20  25
ENDBRANCH  16  20
ENDBRANCH   1  17
TORSDOF 4
ENDMDL
MODEL 7
REMARK VINA RESULT:      -8.8      1.059      2.135
REMARK  Name = 
REMARK  6 active torsions:
REMARK  status: ('A' for Active; 'I' for Inactive)
REMARK    1  A    between atoms: C_1  and  C_2
REMARK    2  A    between atoms: C_4  and  C_5
REMARK    3  A    between atoms: C_5  and  C_6
REMARK    4  A    between atoms: C_5  and  N_7
REMARK    5  A    between atoms: C_8  and  C_10
REMARK    6  A    between atoms: N_12  and  C_13
REMARK                            x       y       z     vdW  Elec       q    Type
REMARK                         _______ _______ _______ _____ _____    ______ ____
ROOT
ATOM      1  C   UNL     1       8.091   8.613  18.026  0.00  0.00    +0.000 C 
ATOM      2  O   UNL     1       7.623   9.247  17.086  0.00  0.00    +0.000 OA
ATOM      3  N   UNL     1       8.940   9.075  19.020  0.00  0.00    +0.000 N 
ATOM      4  H   UNL     1       9.335   8.369  19.635  0.00  0.00    +0.000 HD
ENDROOT
BRANCH   3   5
ATOM      5  C   UNL     1       9.411  10.407  19.102  0.00  0.00    +0.000 A 
ATOM      6  C   UNL     1      10.145  11.020  18.095  0.00  0.00    +0.000 A 
ATOM      7  N   UNL     1      10.663  12.269  18.167  0.00  0.00    +0.000 NA
ATOM      8  C   UNL     1      10.491  12.968  19.303  0.00  0.00    +0.000 A 
ATOM      9  C   UNL     1      11.068  14.229  19.447  0.00  0.00    +0.000 A 
ATOM     10  F   UNL     1      11.780  14.759  18.439  0.00  0.00    +0.000 F 
ATOM     11  C   UNL     1      10.951  14.974  20.618  0.00  0.00    +0.000 A 
ATOM     12  C   UNL     1      10.227  14.460  21.686  0.00  0.00    +0.000 A 
ATOM     13  C   UNL     1       9.618  13.208  21.567  0.00  0.00    +0.000 A 
ATOM     14  C   UNL     1       9.744  12.451  20.384  0.00  0.00    +0.000 A 
ATOM     15  C   UNL     1       9.172  11.164  20.249  0.00  0.00    +0.000 A 
ENDBRANCH   3   5
BRANCH   1  17
ATOM     16  N   UNL     1       7.031   6.678  17.002  0.00  0.00    +0.000 N 
ATOM     17  C   UNL     1       7.763   7.106  18.088  0.00  0.00    +0.000 C 
ATOM     18  O   UNL     1       8.158   6.430  19.029  0.00  0.00    +0.000 OA
ATOM     19  H   UNL     1       6.836   7.378  16.291  0.00  0.00    +0.000 HD
BRANCH  16  20
ATOM     20  C   UNL     1       6.665   5.294  16.772  0.00  0.00    +0.000 C 
ATOM     21  C   UNL     1       6.961   4.865  15.332  0.00  0.00    +0.000 C 
BRANCH  20  25
ATOM     22  C   UNL     1       2.140   6.770  18.649  0.00  0.00    +0.000 C 
ATOM     23  C   UNL     1       3.033   5.740  18.025  0.00  0.00    +0.000 A 
ATOM     24  C   UNL     1       4.386   6.003  17.743  0.00  0.00    +0.000 A 
ATOM     25  C   UNL     1       5.209   5.028  17.144  0.00  0.00    +0.000 A 
ATOM     26  C   UNL     1       4.649   3.774  16.850  0.00  0.00    +0.000 A 
ATOM     27  C   UNL     1       3.306   3.506  17.121  0.00  0.00    +0.000 A 
ATOM     28  C   UNL     1       2.511   4.486  17.702  0.00  0.00    +0.000 A 
ATOM     29  F   UNL     1       1.222   4.215  17.943  0.00  0.00    +0.000 F 
ENDBRANCH  20  25
ENDBRANCH  16  20
ENDBRANCH   1  17
TORSDOF 4
ENDMDL
MODEL 8
REMARK VINA RESULT:      -8.7      0.880      1.186
REMARK  Name = 
REMARK  6 active torsions:
REMARK  status: ('A' for Active; 'I' for Inactive)
REMARK    1  A    between atoms: C_1  and  C_2
REMARK    2  A    between atoms: C_4  and  C_5
REMARK    3  A    between atoms: C_5  and  C_6
REMARK    4  A    between atoms: C_5  and  N_7
REMARK    5  A    between atoms: C_8  and  C_10
REMARK    6  A    between atoms: N_12  and  C_13
REMARK                            x       y       z     vdW  Elec       q    Type
REMARK                         _______ _______ _______ _____ _____    ______ ____
ROOT
ATOM      1  C   UNL     1       7.962   8.518  18.059  0.00  0.00    +0.000 C 
ATOM      2  O   UNL     1       7.386   9.238  17.249  0.00  0.00    +0.000 OA
ATOM      3  N   UNL     1       8.913   8.891  18.997  0.00  0.00    +0.000 N 
ATOM      4  H   UNL     1       9.380   8.132  19.486  0.00  0.00    +0.000 HD
ENDROOT
BRANCH   3   5
ATOM      5  C   UNL     1       9.378  10.216  19.169  0.00  0.00    +0.000 A 
ATOM      6  C   UNL     1       9.292  10.904  20.373  0.00  0.00    +0.000 A 
ATOM      7  N   UNL     1       9.669  12.192  20.555  0.00  0.00    +0.000 NA
ATOM      8  C   UNL     1      10.131  12.879  19.496  0.00  0.00    +0.000 A 
ATOM      9  C   UNL     1      10.463  14.227  19.622  0.00  0.00    +0.000 A 
ATOM     10  F   UNL     1      10.343  14.838  20.813  0.00  0.00    +0.000 F 
ATOM     11  C   UNL     1      10.908  14.991  18.545  0.00  0.00    +0.000 A 
ATOM     12  C   UNL     1      11.041  14.399  17.296  0.00  0.00    +0.000 A 
ATOM     13  C   UNL     1      10.738  13.044  17.139  0.00  0.00    +0.000 A 
ATOM     14  C   UNL     1      10.279  12.274  18.228  0.00  0.00    +0.000 A 
ATOM     15  C   UNL     1       9.927  10.911  18.091  0.00  0.00    +0.000 A 
ENDBRANCH   3   5
BRANCH   1  17
ATOM     16  N   UNL     1       6.811   6.681  16.957  0.00  0.00    +0.000 N 
ATOM     17  C   UNL     1       7.656   7.007  17.995  0.00  0.00    +0.000 C 
ATOM     18  O   UNL     1       8.159   6.244  18.809  0.00  0.00    +0.000 OA
ATOM     19  H   UNL     1       6.532   7.447  16.350  0.00  0.00    +0.000 HD
BRANCH  16  20
ATOM     20  C   UNL     1       6.434   5.321  16.622  0.00  0.00    +0.000 C 
ATOM     21  C   UNL     1       6.087   5.183  15.136  0.00  0.00    +0.000 C 
BRANCH  20  25
ATOM     22  C   UNL     1       1.467   4.626  17.637  0.00  0.00    +0.000 C 
ATOM     23  C   UNL     1       2.917   4.467  17.986  0.00  0.00    +0.000 A 
ATOM     24  C   UNL     1       3.938   4.989  17.171  0.00  0.00    +0.000 A 
ATOM     25  C   UNL     1       5.297   4.819  17.507  0.00  0.00    +0.000 A 
ATOM     26  C   UNL     1       5.609   4.128  18.690  0.00  0.00    +0.000 A 
ATOM     27  C   UNL     1       4.602   3.602  19.500  0.00  0.00    +0.000 A 
ATOM     28  C   UNL     1       3.270   3.772  19.145  0.00  0.00    +0.000 A 
ATOM     29  F   UNL     1       2.318   3.249  19.928  0.00  0.00    +0.000 F 
ENDBRANCH  20  25
ENDBRANCH  16  20
ENDBRANCH   1  17
TORSDOF 4
ENDMDL
MODEL 9
REMARK VINA RESULT:      -8.7      1.509      2.016
REMARK  Name = 
REMARK  6 active torsions:
REMARK  status: ('A' for Active; 'I' for Inactive)
REMARK    1  A    between atoms: C_1  and  C_2
REMARK    2  A    between atoms: C_4  and  C_5
REMARK    3  A    between atoms: C_5  and  C_6
REMARK    4  A    between atoms: C_5  and  N_7
REMARK    5  A    between atoms: C_8  and  C_10
REMARK    6  A    between atoms: N_12  and  C_13
REMARK                            x       y       z     vdW  Elec       q    Type
REMARK                         _______ _______ _______ _____ _____    ______ ____
ROOT
ATOM      1  C   UNL     1       7.924   7.968  18.097  0.00  0.00    +0.000 C 
ATOM      2  O   UNL     1       7.483   8.481  17.073  0.00  0.00    +0.000 OA
ATOM      3  N   UNL     1       8.713   8.563  19.070  0.00  0.00    +0.000 N 
ATOM      4  H   UNL     1       9.097   7.941  19.775  0.00  0.00    +0.000 HD
ENDROOT
BRANCH   3   5
ATOM      5  C   UNL     1       9.142   9.910  19.025  0.00  0.00    +0.000 A 
ATOM      6  C   UNL     1       9.596  10.528  17.866  0.00  0.00    +0.000 A 
ATOM      7  N   UNL     1      10.073  11.793  17.801  0.00  0.00    +0.000 NA
ATOM      8  C   UNL     1      10.150  12.507  18.938  0.00  0.00    +0.000 A 
ATOM      9  C   UNL     1      10.700  13.788  18.929  0.00  0.00    +0.000 A 
ATOM     10  F   UNL     1      11.135  14.322  17.775  0.00  0.00    +0.000 F 
ATOM     11  C   UNL     1      10.838  14.550  20.087  0.00  0.00    +0.000 A 
ATOM     12  C   UNL     1      10.406  14.032  21.301  0.00  0.00    +0.000 A 
ATOM     13  C   UNL     1       9.829  12.760  21.343  0.00  0.00    +0.000 A 
ATOM     14  C   UNL     1       9.699  11.986  20.171  0.00  0.00    +0.000 A 
ATOM     15  C   UNL     1       9.155  10.680  20.188  0.00  0.00    +0.000 A 
ENDBRANCH   3   5
BRANCH   1  17
ATOM     16  N   UNL     1       6.575   6.019  17.552  0.00  0.00    +0.000 N 
ATOM     17  C   UNL     1       7.633   6.467  18.310  0.00  0.00    +0.000 C 
ATOM     18  O   UNL     1       8.324   5.812  19.079  0.00  0.00    +0.000 OA
ATOM     19  H   UNL     1       6.150   6.702  16.929  0.00  0.00    +0.000 HD
BRANCH  16  20
ATOM     20  C   UNL     1       6.150   4.633  17.500  0.00  0.00    +0.000 C 
ATOM     21  C   UNL     1       6.257   4.064  16.082  0.00  0.00    +0.000 C 
BRANCH  20  25
ATOM     22  C   UNL     1       2.882   2.793  20.980  0.00  0.00    +0.000 C 
ATOM     23  C   UNL     1       3.178   3.590  19.745  0.00  0.00    +0.000 A 
ATOM     24  C   UNL     1       4.480   3.691  19.221  0.00  0.00    +0.000 A 
ATOM     25  C   UNL     1       4.744   4.455  18.066  0.00  0.00    +0.000 A 
ATOM     26  C   UNL     1       3.668   5.103  17.437  0.00  0.00    +0.000 A 
ATOM     27  C   UNL     1       2.375   5.013  17.954  0.00  0.00    +0.000 A 
ATOM     28  C   UNL     1       2.140   4.264  19.099  0.00  0.00    +0.000 A 
ATOM     29  F   UNL     1       0.894   4.200  19.587  0.00  0.00    +0.000 F 
ENDBRANCH  20  25
ENDBRANCH  16  20
ENDBRANCH   1  17
TORSDOF 4
ENDMDL
