MODEL 1
REMARK VINA RESULT:      -8.4      0.000      0.000
REMARK  Name = 
REMARK  10 active torsions:
REMARK  status: ('A' for Active; 'I' for Inactive)
REMARK    1  A    between atoms: C_1  and  C_2
REMARK    2  A    between atoms: C_2  and  C_3
REMARK    3  A    between atoms: C_2  and  C_26
REMARK    4  A    between atoms: C_3  and  C_4
REMARK    5  A    between atoms: C_4  and  C_5
REMARK    6  A    between atoms: C_5  and  C_6
REMARK    7  A    between atoms: C_5  and  C_7
REMARK    8  A    between atoms: C_11  and  N_12
REMARK    9  A    between atoms: C_13  and  C_15
REMARK   10  A    between atoms: C_17  and  C_18
REMARK                            x       y       z     vdW  Elec       q    Type
REMARK                         _______ _______ _______ _____ _____    ______ ____
ROOT
ATOM      1  C   UNL     1       4.632   5.338  17.088  0.00  0.00    +0.000 A 
ATOM      2  C   UNL     1       3.903   4.144  17.021  0.00  0.00    +0.000 A 
ATOM      3  C   UNL     1       2.626   4.061  17.559  0.00  0.00    +0.000 A 
ATOM      4  C   UNL     1       2.064   5.165  18.194  0.00  0.00    +0.000 A 
ATOM      5  C   UNL     1       2.764   6.371  18.296  0.00  0.00    +0.000 A 
ATOM      6  C   UNL     1       4.040   6.459  17.712  0.00  0.00    +0.000 A 
ENDROOT
BRANCH   5   7
ATOM      7  N   UNL     1       2.259   7.487  19.004  0.00  0.00    +0.000 N 
ATOM      8  C   UNL     1       1.887   8.710  18.458  0.00  0.00    +0.000 C 
ATOM      9  O   UNL     1       2.013   9.069  17.294  0.00  0.00    +0.000 OA
ATOM     10  H   UNL     1       2.068   7.382  19.995  0.00  0.00    +0.000 HD
BRANCH   8  11
ATOM     11  C   UNL     1       1.241   9.661  19.421  0.00  0.00    +0.000 A 
ATOM     12  C   UNL     1       0.748   9.166  20.627  0.00  0.00    +0.000 A 
ATOM     13  C   UNL     1       0.191  10.062  21.545  0.00  0.00    +0.000 A 
ATOM     14  C   UNL     1       0.152  11.418  21.206  0.00  0.00    +0.000 A 
ATOM     15  C   UNL     1       0.662  11.818  19.977  0.00  0.00    +0.000 A 
ATOM     16  N   UNL     1       1.208  10.974  19.073  0.00  0.00    +0.000 NA
BRANCH  13  17
ATOM     17  C   UNL     1      -0.339   9.588  22.873  0.00  0.00    +0.000 C 
ATOM     18  F   UNL     1      -1.164  10.480  23.485  0.00  0.00    +0.000 F 
ATOM     19  F   UNL     1      -1.053   8.434  22.761  0.00  0.00    +0.000 F 
ATOM     20  F   UNL     1       0.656   9.326  23.764  0.00  0.00    +0.000 F 
ENDBRANCH  13  17
ENDBRANCH   8  11
ENDBRANCH   5   7
BRANCH   1  21
ATOM     21  C   UNL     1       6.059   5.394  16.548  0.00  0.00    +0.000 C 
ATOM     22  C   UNL     1       6.784   6.648  17.053  0.00  0.00    +0.000 C 
BRANCH  21  23
ATOM     23  C   UNL     1       6.029   5.308  15.001  0.00  0.00    +0.000 C 
BRANCH  23  24
ATOM     24  C   UNL     1       6.034   3.877  14.450  0.00  0.00    +0.000 C 
BRANCH  24  26
ATOM     25  C   UNL     1       7.274   5.084  12.565  0.00  0.00    +0.000 C 
ATOM     26  C   UNL     1       6.729   3.757  13.083  0.00  0.00    +0.000 C 
BRANCH  26  27
ATOM     27  C   UNL     1       5.790   3.208  12.124  0.00  0.00    +0.000 C 
ATOM     28  N   UNL     1       5.493   2.176  11.454  0.00  0.00    +0.000 NA
ATOM     29  N   UNL     1       4.611   3.313  11.531  0.00  0.00    +0.000 N 
ATOM     30  H   UNL     1       4.578   3.792  10.633  0.00  0.00    +0.000 HD
ENDBRANCH  26  27
ENDBRANCH  24  26
ENDBRANCH  23  24
ENDBRANCH  21  23
ENDBRANCH   1  21
TORSDOF 8
ENDMDL
MODEL 2
REMARK VINA RESULT:      -8.3      5.870      8.158
REMARK  Name = 
REMARK  10 active torsions:
REMARK  status: ('A' for Active; 'I' for Inactive)
REMARK    1  A    between atoms: C_1  and  C_2
REMARK    2  A    between atoms: C_2  and  C_3
REMARK    3  A    between atoms: C_2  and  C_26
REMARK    4  A    between atoms: C_3  and  C_4
REMARK    5  A    between atoms: C_4  and  C_5
REMARK    6  A    between atoms: C_5  and  C_6
REMARK    7  A    between atoms: C_5  and  C_7
REMARK    8  A    between atoms: C_11  and  N_12
REMARK    9  A    between atoms: C_13  and  C_15
REMARK   10  A    between atoms: C_17  and  C_18
REMARK                            x       y       z     vdW  Elec       q    Type
REMARK                         _______ _______ _______ _____ _____    ______ ____
ROOT
ATOM      1  C   UNL     1       4.770   5.022  16.931  0.00  0.00    +0.000 A 
ATOM      2  C   UNL     1       5.533   4.164  16.129  0.00  0.00    +0.000 A 
ATOM      3  C   UNL     1       6.810   4.525  15.719  0.00  0.00    +0.000 A 
ATOM      4  C   UNL     1       7.337   5.760  16.086  0.00  0.00    +0.000 A 
ATOM      5  C   UNL     1       6.602   6.652  16.873  0.00  0.00    +0.000 A 
ATOM      6  C   UNL     1       5.326   6.261  17.318  0.00  0.00    +0.000 A 
ENDROOT
BRANCH   5   7
ATOM      7  N   UNL     1       7.071   7.946  17.197  0.00  0.00    +0.000 N 
ATOM      8  C   UNL     1       8.043   8.259  18.140  0.00  0.00    +0.000 C 
ATOM      9  O   UNL     1       8.598   7.488  18.914  0.00  0.00    +0.000 OA
ATOM     10  H   UNL     1       6.735   8.731  16.648  0.00  0.00    +0.000 HD
BRANCH   8  11
ATOM     11  C   UNL     1       8.454   9.701  18.169  0.00  0.00    +0.000 A 
ATOM     12  C   UNL     1       9.574  10.067  18.915  0.00  0.00    +0.000 A 
ATOM     13  C   UNL     1       9.985  11.403  18.900  0.00  0.00    +0.000 A 
ATOM     14  C   UNL     1       9.248  12.313  18.136  0.00  0.00    +0.000 A 
ATOM     15  C   UNL     1       8.142  11.858  17.430  0.00  0.00    +0.000 A 
ATOM     16  N   UNL     1       7.724  10.572  17.425  0.00  0.00    +0.000 NA
BRANCH  13  17
ATOM     17  C   UNL     1      11.199  11.854  19.670  0.00  0.00    +0.000 C 
ATOM     18  F   UNL     1      11.463  13.183  19.550  0.00  0.00    +0.000 F 
ATOM     19  F   UNL     1      11.079  11.615  21.006  0.00  0.00    +0.000 F 
ATOM     20  F   UNL     1      12.331  11.209  19.275  0.00  0.00    +0.000 F 
ENDBRANCH  13  17
ENDBRANCH   8  11
ENDBRANCH   5   7
BRANCH   1  21
ATOM     21  C   UNL     1       3.344   4.637  17.320  0.00  0.00    +0.000 C 
ATOM     22  C   UNL     1       2.826   5.535  18.450  0.00  0.00    +0.000 C 
BRANCH  21  23
ATOM     23  C   UNL     1       3.298   3.132  17.688  0.00  0.00    +0.000 C 
BRANCH  23  24
ATOM     24  C   UNL     1       3.359   2.851  19.195  0.00  0.00    +0.000 C 
BRANCH  24  26
ATOM     25  C   UNL     1       0.828   2.558  18.956  0.00  0.00    +0.000 C 
ATOM     26  C   UNL     1       2.083   2.184  19.737  0.00  0.00    +0.000 C 
BRANCH  26  27
ATOM     27  C   UNL     1       1.918   2.551  21.131  0.00  0.00    +0.000 C 
ATOM     28  N   UNL     1       2.203   3.421  22.004  0.00  0.00    +0.000 NA
ATOM     29  N   UNL     1       1.252   2.370  22.261  0.00  0.00    +0.000 N 
ATOM     30  H   UNL     1       1.635   1.706  22.932  0.00  0.00    +0.000 HD
ENDBRANCH  26  27
ENDBRANCH  24  26
ENDBRANCH  23  24
ENDBRANCH  21  23
ENDBRANCH   1  21
TORSDOF 8
ENDMDL
MODEL 3
REMARK VINA RESULT:      -8.2      2.658      3.551
REMARK  Name = 
REMARK  10 active torsions:
REMARK  status: ('A' for Active; 'I' for Inactive)
REMARK    1  A    between atoms: C_1  and  C_2
REMARK    2  A    between atoms: C_2  and  C_3
REMARK    3  A    between atoms: C_2  and  C_26
REMARK    4  A    between atoms: C_3  and  C_4
REMARK    5  A    between atoms: C_4  and  C_5
REMARK    6  A    between atoms: C_5  and  C_6
REMARK    7  A    between atoms: C_5  and  C_7
REMARK    8  A    between atoms: C_11  and  N_12
REMARK    9  A    between atoms: C_13  and  C_15
REMARK   10  A    between atoms: C_17  and  C_18
REMARK                            x       y       z     vdW  Elec       q    Type
REMARK                         _______ _______ _______ _____ _____    ______ ____
ROOT
ATOM      1  C   UNL     1       4.266   4.886  16.799  0.00  0.00    +0.000 A 
ATOM      2  C   UNL     1       3.842   3.625  17.235  0.00  0.00    +0.000 A 
ATOM      3  C   UNL     1       2.851   3.504  18.201  0.00  0.00    +0.000 A 
ATOM      4  C   UNL     1       2.283   4.644  18.763  0.00  0.00    +0.000 A 
ATOM      5  C   UNL     1       2.690   5.922  18.367  0.00  0.00    +0.000 A 
ATOM      6  C   UNL     1       3.664   6.034  17.359  0.00  0.00    +0.000 A 
ENDROOT
BRANCH   5   7
ATOM      7  N   UNL     1       2.194   7.101  18.972  0.00  0.00    +0.000 N 
ATOM      8  C   UNL     1       2.051   8.342  18.364  0.00  0.00    +0.000 C 
ATOM      9  O   UNL     1       2.407   8.659  17.236  0.00  0.00    +0.000 OA
ATOM     10  H   UNL     1       1.831   7.039  19.918  0.00  0.00    +0.000 HD
BRANCH   8  11
ATOM     11  C   UNL     1       1.357   9.378  19.199  0.00  0.00    +0.000 A 
ATOM     12  C   UNL     1       0.955   9.042  20.491  0.00  0.00    +0.000 A 
ATOM     13  C   UNL     1       0.354  10.023  21.285  0.00  0.00    +0.000 A 
ATOM     14  C   UNL     1       0.180  11.299  20.741  0.00  0.00    +0.000 A 
ATOM     15  C   UNL     1       0.606  11.539  19.441  0.00  0.00    +0.000 A 
ATOM     16  N   UNL     1       1.193  10.611  18.653  0.00  0.00    +0.000 NA
BRANCH  13  17
ATOM     17  C   UNL     1      -0.083   9.724  22.696  0.00  0.00    +0.000 C 
ATOM     18  F   UNL     1       0.946   9.454  23.543  0.00  0.00    +0.000 F 
ATOM     19  F   UNL     1      -0.765  10.762  23.254  0.00  0.00    +0.000 F 
ATOM     20  F   UNL     1      -0.917   8.651  22.763  0.00  0.00    +0.000 F 
ENDBRANCH  13  17
ENDBRANCH   8  11
ENDBRANCH   5   7
BRANCH   1  21
ATOM     21  C   UNL     1       5.401   5.001  15.783  0.00  0.00    +0.000 C 
ATOM     22  C   UNL     1       4.931   4.564  14.390  0.00  0.00    +0.000 C 
BRANCH  21  23
ATOM     23  C   UNL     1       6.623   4.188  16.281  0.00  0.00    +0.000 C 
BRANCH  23  24
ATOM     24  C   UNL     1       7.731   5.040  16.913  0.00  0.00    +0.000 C 
BRANCH  24  26
ATOM     25  C   UNL     1       7.733   7.510  17.585  0.00  0.00    +0.000 C 
ATOM     26  C   UNL     1       7.194   6.113  17.876  0.00  0.00    +0.000 C 
BRANCH  26  27
ATOM     27  C   UNL     1       7.530   5.734  19.235  0.00  0.00    +0.000 C 
ATOM     28  N   UNL     1       7.093   5.175  20.283  0.00  0.00    +0.000 NA
ATOM     29  N   UNL     1       8.480   5.533  20.135  0.00  0.00    +0.000 N 
ATOM     30  H   UNL     1       8.711   6.307  20.757  0.00  0.00    +0.000 HD
ENDBRANCH  26  27
ENDBRANCH  24  26
ENDBRANCH  23  24
ENDBRANCH  21  23
ENDBRANCH   1  21
TORSDOF 8
ENDMDL
MODEL 4
REMARK VINA RESULT:      -7.9      5.267     10.202
REMARK  Name = 
REMARK  10 active torsions:
REMARK  status: ('A' for Active; 'I' for Inactive)
REMARK    1  A    between atoms: C_1  and  C_2
REMARK    2  A    between atoms: C_2  and  C_3
REMARK    3  A    between atoms: C_2  and  C_26
REMARK    4  A    between atoms: C_3  and  C_4
REMARK    5  A    between atoms: C_4  and  C_5
REMARK    6  A    between atoms: C_5  and  C_6
REMARK    7  A    between atoms: C_5  and  C_7
REMARK    8  A    between atoms: C_11  and  N_12
REMARK    9  A    between atoms: C_13  and  C_15
REMARK   10  A    between atoms: C_17  and  C_18
REMARK                            x       y       z     vdW  Elec       q    Type
REMARK                         _______ _______ _______ _____ _____    ______ ____
ROOT
ATOM      1  C   UNL     1      -1.682  10.547  18.009  0.00  0.00    +0.000 A 
ATOM      2  C   UNL     1      -1.364  11.817  18.506  0.00  0.00    +0.000 A 
ATOM      3  C   UNL     1      -0.062  12.127  18.879  0.00  0.00    +0.000 A 
ATOM      4  C   UNL     1       0.939  11.165  18.781  0.00  0.00    +0.000 A 
ATOM      5  C   UNL     1       0.659   9.880  18.305  0.00  0.00    +0.000 A 
ATOM      6  C   UNL     1      -0.653   9.588  17.891  0.00  0.00    +0.000 A 
ENDROOT
BRANCH   5   7
ATOM      7  N   UNL     1       1.632   8.854  18.268  0.00  0.00    +0.000 N 
ATOM      8  C   UNL     1       2.017   8.044  19.330  0.00  0.00    +0.000 C 
ATOM      9  O   UNL     1       1.655   8.132  20.496  0.00  0.00    +0.000 OA
ATOM     10  H   UNL     1       2.046   8.616  17.372  0.00  0.00    +0.000 HD
BRANCH   8  11
ATOM     11  C   UNL     1       2.960   6.935  18.968  0.00  0.00    +0.000 A 
ATOM     12  C   UNL     1       3.724   7.052  17.808  0.00  0.00    +0.000 A 
ATOM     13  C   UNL     1       4.639   6.041  17.500  0.00  0.00    +0.000 A 
ATOM     14  C   UNL     1       4.742   4.954  18.373  0.00  0.00    +0.000 A 
ATOM     15  C   UNL     1       3.935   4.920  19.503  0.00  0.00    +0.000 A 
ATOM     16  N   UNL     1       3.045   5.885  19.826  0.00  0.00    +0.000 NA
BRANCH  13  17
ATOM     17  C   UNL     1       5.506   6.123  16.270  0.00  0.00    +0.000 C 
ATOM     18  F   UNL     1       6.668   6.803  16.462  0.00  0.00    +0.000 F 
ATOM     19  F   UNL     1       5.864   4.892  15.809  0.00  0.00    +0.000 F 
ATOM     20  F   UNL     1       4.877   6.741  15.234  0.00  0.00    +0.000 F 
ENDBRANCH  13  17
ENDBRANCH   8  11
ENDBRANCH   5   7
BRANCH   1  21
ATOM     21  C   UNL     1      -3.130  10.203  17.664  0.00  0.00    +0.000 C 
ATOM     22  C   UNL     1      -3.256   9.795  16.191  0.00  0.00    +0.000 C 
BRANCH  21  23
ATOM     23  C   UNL     1      -4.046  11.399  18.030  0.00  0.00    +0.000 C 
BRANCH  23  24
ATOM     24  C   UNL     1      -5.532  11.169  17.728  0.00  0.00    +0.000 C 
BRANCH  24  26
ATOM     25  C   UNL     1      -5.753  12.285  20.020  0.00  0.00    +0.000 C 
ATOM     26  C   UNL     1      -6.448  11.487  18.922  0.00  0.00    +0.000 C 
BRANCH  26  27
ATOM     27  C   UNL     1      -6.955  10.244  19.469  0.00  0.00    +0.000 C 
ATOM     28  N   UNL     1      -7.321   9.663  20.533  0.00  0.00    +0.000 NA
ATOM     29  N   UNL     1      -7.529   9.073  19.236  0.00  0.00    +0.000 N 
ATOM     30  H   UNL     1      -6.920   8.266  19.115  0.00  0.00    +0.000 HD
ENDBRANCH  26  27
ENDBRANCH  24  26
ENDBRANCH  23  24
ENDBRANCH  21  23
ENDBRANCH   1  21
TORSDOF 8
ENDMDL
MODEL 5
REMARK VINA RESULT:      -7.9      5.331     10.246
REMARK  Name = 
REMARK  10 active torsions:
REMARK  status: ('A' for Active; 'I' for Inactive)
REMARK    1  A    between atoms: C_1  and  C_2
REMARK    2  A    between atoms: C_2  and  C_3
REMARK    3  A    between atoms: C_2  and  C_26
REMARK    4  A    between atoms: C_3  and  C_4
REMARK    5  A    between atoms: C_4  and  C_5
REMARK    6  A    between atoms: C_5  and  C_6
REMARK    7  A    between atoms: C_5  and  C_7
REMARK    8  A    between atoms: C_11  and  N_12
REMARK    9  A    between atoms: C_13  and  C_15
REMARK   10  A    between atoms: C_17  and  C_18
REMARK                            x       y       z     vdW  Elec       q    Type
REMARK                         _______ _______ _______ _____ _____    ______ ____
ROOT
ATOM      1  C   UNL     1       2.717   6.484  18.889  0.00  0.00    +0.000 A 
ATOM      2  C   UNL     1       2.766   5.436  19.818  0.00  0.00    +0.000 A 
ATOM      3  C   UNL     1       3.564   4.323  19.588  0.00  0.00    +0.000 A 
ATOM      4  C   UNL     1       4.309   4.228  18.416  0.00  0.00    +0.000 A 
ATOM      5  C   UNL     1       4.275   5.245  17.457  0.00  0.00    +0.000 A 
ATOM      6  C   UNL     1       3.497   6.387  17.716  0.00  0.00    +0.000 A 
ENDROOT
BRANCH   5   7
ATOM      7  N   UNL     1       4.953   5.147  16.220  0.00  0.00    +0.000 N 
ATOM      8  C   UNL     1       6.299   4.848  16.037  0.00  0.00    +0.000 C 
ATOM      9  O   UNL     1       7.149   4.706  16.907  0.00  0.00    +0.000 OA
ATOM     10  H   UNL     1       4.410   5.223  15.366  0.00  0.00    +0.000 HD
BRANCH   8  11
ATOM     11  C   UNL     1       6.716   4.660  14.609  0.00  0.00    +0.000 A 
ATOM     12  C   UNL     1       6.084   3.679  13.847  0.00  0.00    +0.000 A 
ATOM     13  C   UNL     1       6.439   3.539  12.502  0.00  0.00    +0.000 A 
ATOM     14  C   UNL     1       7.418   4.392  11.984  0.00  0.00    +0.000 A 
ATOM     15  C   UNL     1       7.999   5.337  12.822  0.00  0.00    +0.000 A 
ATOM     16  N   UNL     1       7.672   5.495  14.124  0.00  0.00    +0.000 NA
BRANCH  13  17
ATOM     17  C   UNL     1       5.776   2.510  11.624  0.00  0.00    +0.000 C 
ATOM     18  F   UNL     1       4.594   2.922  11.092  0.00  0.00    +0.000 F 
ATOM     19  F   UNL     1       6.559   2.154  10.567  0.00  0.00    +0.000 F 
ATOM     20  F   UNL     1       5.505   1.356  12.293  0.00  0.00    +0.000 F 
ENDBRANCH  13  17
ENDBRANCH   8  11
ENDBRANCH   5   7
BRANCH   1  21
ATOM     21  C   UNL     1       1.786   7.672  19.127  0.00  0.00    +0.000 C 
ATOM     22  C   UNL     1       2.135   8.833  18.188  0.00  0.00    +0.000 C 
BRANCH  21  23
ATOM     23  C   UNL     1       1.841   8.079  20.621  0.00  0.00    +0.000 C 
BRANCH  23  24
ATOM     24  C   UNL     1       0.484   8.480  21.214  0.00  0.00    +0.000 C 
BRANCH  24  26
ATOM     25  C   UNL     1      -0.624   9.861  23.062  0.00  0.00    +0.000 C 
ATOM     26  C   UNL     1       0.562   9.726  22.113  0.00  0.00    +0.000 C 
BRANCH  26  27
ATOM     27  C   UNL     1       0.652  10.906  21.274  0.00  0.00    +0.000 C 
ATOM     28  N   UNL     1       1.198  12.041  21.154  0.00  0.00    +0.000 NA
ATOM     29  N   UNL     1       0.428  11.452  20.089  0.00  0.00    +0.000 N 
ATOM     30  H   UNL     1      -0.445  11.962  19.963  0.00  0.00    +0.000 HD
ENDBRANCH  26  27
ENDBRANCH  24  26
ENDBRANCH  23  24
ENDBRANCH  21  23
ENDBRANCH   1  21
TORSDOF 8
ENDMDL
MODEL 6
REMARK VINA RESULT:      -7.9      4.683      9.336
REMARK  Name = 
REMARK  10 active torsions:
REMARK  status: ('A' for Active; 'I' for Inactive)
REMARK    1  A    between atoms: C_1  and  C_2
REMARK    2  A    between atoms: C_2  and  C_3
REMARK    3  A    between atoms: C_2  and  C_26
REMARK    4  A    between atoms: C_3  and  C_4
REMARK    5  A    between atoms: C_4  and  C_5
REMARK    6  A    between atoms: C_5  and  C_6
REMARK    7  A    between atoms: C_5  and  C_7
REMARK    8  A    between atoms: C_11  and  N_12
REMARK    9  A    between atoms: C_13  and  C_15
REMARK   10  A    between atoms: C_17  and  C_18
REMARK                            x       y       z     vdW  Elec       q    Type
REMARK                         _______ _______ _______ _____ _____    ______ ____
ROOT
ATOM      1  C   UNL     1      -0.178  10.300  19.834  0.00  0.00    +0.000 A 
ATOM      2  C   UNL     1      -0.448  10.525  21.189  0.00  0.00    +0.000 A 
ATOM      3  C   UNL     1       0.182   9.773  22.173  0.00  0.00    +0.000 A 
ATOM      4  C   UNL     1       1.077   8.769  21.816  0.00  0.00    +0.000 A 
ATOM      5  C   UNL     1       1.363   8.502  20.474  0.00  0.00    +0.000 A 
ATOM      6  C   UNL     1       0.752   9.295  19.486  0.00  0.00    +0.000 A 
ENDROOT
BRANCH   5   7
ATOM      7  N   UNL     1       2.203   7.437  20.071  0.00  0.00    +0.000 N 
ATOM      8  C   UNL     1       2.645   7.179  18.779  0.00  0.00    +0.000 C 
ATOM      9  O   UNL     1       2.319   7.765  17.754  0.00  0.00    +0.000 OA
ATOM     10  H   UNL     1       2.596   6.837  20.789  0.00  0.00    +0.000 HD
BRANCH   8  11
ATOM     11  C   UNL     1       3.651   6.072  18.665  0.00  0.00    +0.000 A 
ATOM     12  C   UNL     1       4.765   6.257  17.847  0.00  0.00    +0.000 A 
ATOM     13  C   UNL     1       5.727   5.244  17.782  0.00  0.00    +0.000 A 
ATOM     14  C   UNL     1       5.523   4.088  18.541  0.00  0.00    +0.000 A 
ATOM     15  C   UNL     1       4.378   3.990  19.322  0.00  0.00    +0.000 A 
ATOM     16  N   UNL     1       3.435   4.955  19.406  0.00  0.00    +0.000 NA
BRANCH  13  17
ATOM     17  C   UNL     1       6.961   5.396  16.931  0.00  0.00    +0.000 C 
ATOM     18  F   UNL     1       7.852   4.377  17.071  0.00  0.00    +0.000 F 
ATOM     19  F   UNL     1       6.667   5.456  15.603  0.00  0.00    +0.000 F 
ATOM     20  F   UNL     1       7.648   6.537  17.214  0.00  0.00    +0.000 F 
ENDBRANCH  13  17
ENDBRANCH   8  11
ENDBRANCH   5   7
BRANCH   1  21
ATOM     21  C   UNL     1      -0.927  11.092  18.764  0.00  0.00    +0.000 C 
ATOM     22  C   UNL     1      -2.070  11.902  19.386  0.00  0.00    +0.000 C 
BRANCH  21  23
ATOM     23  C   UNL     1      -1.418  10.125  17.656  0.00  0.00    +0.000 C 
BRANCH  23  24
ATOM     24  C   UNL     1      -2.909   9.776  17.741  0.00  0.00    +0.000 C 
BRANCH  24  26
ATOM     25  C   UNL     1      -2.841  10.842  15.416  0.00  0.00    +0.000 C 
ATOM     26  C   UNL     1      -3.713  10.255  16.521  0.00  0.00    +0.000 C 
BRANCH  26  27
ATOM     27  C   UNL     1      -4.681  11.244  16.955  0.00  0.00    +0.000 C 
ATOM     28  N   UNL     1      -5.576  11.497  17.813  0.00  0.00    +0.000 NA
ATOM     29  N   UNL     1      -5.094  12.501  16.900  0.00  0.00    +0.000 N 
ATOM     30  H   UNL     1      -5.815  12.730  16.218  0.00  0.00    +0.000 HD
ENDBRANCH  26  27
ENDBRANCH  24  26
ENDBRANCH  23  24
ENDBRANCH  21  23
ENDBRANCH   1  21
TORSDOF 8
ENDMDL
MODEL 7
REMARK VINA RESULT:      -7.8      4.109      8.848
REMARK  Name = 
REMARK  10 active torsions:
REMARK  status: ('A' for Active; 'I' for Inactive)
REMARK    1  A    between atoms: C_1  and  C_2
REMARK    2  A    between atoms: C_2  and  C_3
REMARK    3  A    between atoms: C_2  and  C_26
REMARK    4  A    between atoms: C_3  and  C_4
REMARK    5  A    between atoms: C_4  and  C_5
REMARK    6  A    between atoms: C_5  and  C_6
REMARK    7  A    between atoms: C_5  and  C_7
REMARK    8  A    between atoms: C_11  and  N_12
REMARK    9  A    between atoms: C_13  and  C_15
REMARK   10  A    between atoms: C_17  and  C_18
REMARK                            x       y       z     vdW  Elec       q    Type
REMARK                         _______ _______ _______ _____ _____    ______ ____
ROOT
ATOM      1  C   UNL     1      -0.118  10.550  20.150  0.00  0.00    +0.000 A 
ATOM      2  C   UNL     1      -0.127  10.606  21.550  0.00  0.00    +0.000 A 
ATOM      3  C   UNL     1       0.564   9.665  22.302  0.00  0.00    +0.000 A 
ATOM      4  C   UNL     1       1.259   8.639  21.667  0.00  0.00    +0.000 A 
ATOM      5  C   UNL     1       1.280   8.538  20.273  0.00  0.00    +0.000 A 
ATOM      6  C   UNL     1       0.611   9.519  19.518  0.00  0.00    +0.000 A 
ENDROOT
BRANCH   5   7
ATOM      7  N   UNL     1       1.906   7.465  19.596  0.00  0.00    +0.000 N 
ATOM      8  C   UNL     1       2.590   7.538  18.389  0.00  0.00    +0.000 C 
ATOM      9  O   UNL     1       2.697   8.515  17.657  0.00  0.00    +0.000 OA
ATOM     10  H   UNL     1       1.937   6.560  20.055  0.00  0.00    +0.000 HD
BRANCH   8  11
ATOM     11  C   UNL     1       3.285   6.274  17.979  0.00  0.00    +0.000 A 
ATOM     12  C   UNL     1       2.748   5.051  18.378  0.00  0.00    +0.000 A 
ATOM     13  C   UNL     1       3.368   3.872  17.952  0.00  0.00    +0.000 A 
ATOM     14  C   UNL     1       4.506   3.978  17.147  0.00  0.00    +0.000 A 
ATOM     15  C   UNL     1       4.974   5.241  16.806  0.00  0.00    +0.000 A 
ATOM     16  N   UNL     1       4.392   6.395  17.200  0.00  0.00    +0.000 NA
BRANCH  13  17
ATOM     17  C   UNL     1       2.822   2.522  18.334  0.00  0.00    +0.000 C 
ATOM     18  F   UNL     1       2.447   1.761  17.271  0.00  0.00    +0.000 F 
ATOM     19  F   UNL     1       3.727   1.777  19.028  0.00  0.00    +0.000 F 
ATOM     20  F   UNL     1       1.724   2.615  19.135  0.00  0.00    +0.000 F 
ENDBRANCH  13  17
ENDBRANCH   8  11
ENDBRANCH   5   7
BRANCH   1  21
ATOM     21  C   UNL     1      -0.935  11.554  19.340  0.00  0.00    +0.000 C 
ATOM     22  C   UNL     1      -2.124  12.075  20.158  0.00  0.00    +0.000 C 
BRANCH  21  23
ATOM     23  C   UNL     1      -1.373  10.904  18.003  0.00  0.00    +0.000 C 
BRANCH  23  24
ATOM     24  C   UNL     1      -2.861  10.539  17.938  0.00  0.00    +0.000 C 
BRANCH  24  26
ATOM     25  C   UNL     1      -5.115  11.553  17.274  0.00  0.00    +0.000 C 
ATOM     26  C   UNL     1      -3.644  11.375  16.911  0.00  0.00    +0.000 C 
BRANCH  26  27
ATOM     27  C   UNL     1      -3.536  10.743  15.611  0.00  0.00    +0.000 C 
ATOM     28  N   UNL     1      -2.724  10.382  14.709  0.00  0.00    +0.000 NA
ATOM     29  N   UNL     1      -4.112   9.997  14.681  0.00  0.00    +0.000 N 
ATOM     30  H   UNL     1      -4.594  10.478  13.923  0.00  0.00    +0.000 HD
ENDBRANCH  26  27
ENDBRANCH  24  26
ENDBRANCH  23  24
ENDBRANCH  21  23
ENDBRANCH   1  21
TORSDOF 8
ENDMDL
MODEL 8
REMARK VINA RESULT:      -7.8      5.852      7.905
REMARK  Name = 
REMARK  10 active torsions:
REMARK  status: ('A' for Active; 'I' for Inactive)
REMARK    1  A    between atoms: C_1  and  C_2
REMARK    2  A    between atoms: C_2  and  C_3
REMARK    3  A    between atoms: C_2  and  C_26
REMARK    4  A    between atoms: C_3  and  C_4
REMARK    5  A    between atoms: C_4  and  C_5
REMARK    6  A    between atoms: C_5  and  C_6
REMARK    7  A    between atoms: C_5  and  C_7
REMARK    8  A    between atoms: C_11  and  N_12
REMARK    9  A    between atoms: C_13  and  C_15
REMARK   10  A    between atoms: C_17  and  C_18
REMARK                            x       y       z     vdW  Elec       q    Type
REMARK                         _______ _______ _______ _____ _____    ______ ____
ROOT
ATOM      1  C   UNL     1       4.506   5.125  16.970  0.00  0.00    +0.000 A 
ATOM      2  C   UNL     1       5.320   4.148  16.383  0.00  0.00    +0.000 A 
ATOM      3  C   UNL     1       6.667   4.395  16.148  0.00  0.00    +0.000 A 
ATOM      4  C   UNL     1       7.217   5.631  16.477  0.00  0.00    +0.000 A 
ATOM      5  C   UNL     1       6.435   6.638  17.051  0.00  0.00    +0.000 A 
ATOM      6  C   UNL     1       5.082   6.365  17.323  0.00  0.00    +0.000 A 
ENDROOT
BRANCH   5   7
ATOM      7  N   UNL     1       6.939   7.931  17.323  0.00  0.00    +0.000 N 
ATOM      8  C   UNL     1       7.979   8.246  18.189  0.00  0.00    +0.000 C 
ATOM      9  O   UNL     1       8.580   7.480  18.932  0.00  0.00    +0.000 OA
ATOM     10  H   UNL     1       6.572   8.713  16.788  0.00  0.00    +0.000 HD
BRANCH   8  11
ATOM     11  C   UNL     1       8.405   9.684  18.169  0.00  0.00    +0.000 A 
ATOM     12  C   UNL     1       9.557  10.055  18.861  0.00  0.00    +0.000 A 
ATOM     13  C   UNL     1       9.981  11.386  18.798  0.00  0.00    +0.000 A 
ATOM     14  C   UNL     1       9.223  12.286  18.044  0.00  0.00    +0.000 A 
ATOM     15  C   UNL     1       8.084  11.827  17.393  0.00  0.00    +0.000 A 
ATOM     16  N   UNL     1       7.654  10.546  17.434  0.00  0.00    +0.000 NA
BRANCH  13  17
ATOM     17  C   UNL     1      11.229  11.841  19.509  0.00  0.00    +0.000 C 
ATOM     18  F   UNL     1      11.516  13.157  19.325  0.00  0.00    +0.000 F 
ATOM     19  F   UNL     1      11.150  11.659  20.856  0.00  0.00    +0.000 F 
ATOM     20  F   UNL     1      12.333  11.155  19.104  0.00  0.00    +0.000 F 
ENDBRANCH  13  17
ENDBRANCH   8  11
ENDBRANCH   5   7
BRANCH   1  21
ATOM     21  C   UNL     1       3.014   4.861  17.163  0.00  0.00    +0.000 C 
ATOM     22  C   UNL     1       2.424   5.810  18.214  0.00  0.00    +0.000 C 
BRANCH  21  23
ATOM     23  C   UNL     1       2.797   3.369  17.521  0.00  0.00    +0.000 C 
BRANCH  23  24
ATOM     24  C   UNL     1       1.731   3.128  18.597  0.00  0.00    +0.000 C 
BRANCH  24  26
ATOM     25  C   UNL     1       1.570   2.658  21.107  0.00  0.00    +0.000 C 
ATOM     26  C   UNL     1       2.248   2.304  19.787  0.00  0.00    +0.000 C 
BRANCH  26  27
ATOM     27  C   UNL     1       3.680   2.498  19.907  0.00  0.00    +0.000 C 
ATOM     28  N   UNL     1       4.808   1.947  19.747  0.00  0.00    +0.000 NA
ATOM     29  N   UNL     1       4.684   3.353  20.035  0.00  0.00    +0.000 N 
ATOM     30  H   UNL     1       5.018   3.548  20.977  0.00  0.00    +0.000 HD
ENDBRANCH  26  27
ENDBRANCH  24  26
ENDBRANCH  23  24
ENDBRANCH  21  23
ENDBRANCH   1  21
TORSDOF 8
ENDMDL
MODEL 9
REMARK VINA RESULT:      -7.8      5.017      9.790
REMARK  Name = 
REMARK  10 active torsions:
REMARK  status: ('A' for Active; 'I' for Inactive)
REMARK    1  A    between atoms: C_1  and  C_2
REMARK    2  A    between atoms: C_2  and  C_3
REMARK    3  A    between atoms: C_2  and  C_26
REMARK    4  A    between atoms: C_3  and  C_4
REMARK    5  A    between atoms: C_4  and  C_5
REMARK    6  A    between atoms: C_5  and  C_6
REMARK    7  A    between atoms: C_5  and  C_7
REMARK    8  A    between atoms: C_11  and  N_12
REMARK    9  A    between atoms: C_13  and  C_15
REMARK   10  A    between atoms: C_17  and  C_18
REMARK                            x       y       z     vdW  Elec       q    Type
REMARK                         _______ _______ _______ _____ _____    ______ ____
ROOT
ATOM      1  C   UNL     1       2.747   6.787  19.259  0.00  0.00    +0.000 A 
ATOM      2  C   UNL     1       2.490   5.665  20.058  0.00  0.00    +0.000 A 
ATOM      3  C   UNL     1       2.957   4.410  19.689  0.00  0.00    +0.000 A 
ATOM      4  C   UNL     1       3.669   4.252  18.503  0.00  0.00    +0.000 A 
ATOM      5  C   UNL     1       3.932   5.343  17.670  0.00  0.00    +0.000 A 
ATOM      6  C   UNL     1       3.492   6.617  18.072  0.00  0.00    +0.000 A 
ENDROOT
BRANCH   5   7
ATOM      7  N   UNL     1       4.581   5.207  16.420  0.00  0.00    +0.000 N 
ATOM      8  C   UNL     1       5.952   5.129  16.206  0.00  0.00    +0.000 C 
ATOM      9  O   UNL     1       6.839   5.251  17.042  0.00  0.00    +0.000 OA
ATOM     10  H   UNL     1       4.007   5.076  15.592  0.00  0.00    +0.000 HD
BRANCH   8  11
ATOM     11  C   UNL     1       6.355   4.834  14.792  0.00  0.00    +0.000 A 
ATOM     12  C   UNL     1       5.483   4.109  13.980  0.00  0.00    +0.000 A 
ATOM     13  C   UNL     1       5.838   3.880  12.648  0.00  0.00    +0.000 A 
ATOM     14  C   UNL     1       7.058   4.388  12.191  0.00  0.00    +0.000 A 
ATOM     15  C   UNL     1       7.865   5.093  13.075  0.00  0.00    +0.000 A 
ATOM     16  N   UNL     1       7.545   5.332  14.367  0.00  0.00    +0.000 NA
BRANCH  13  17
ATOM     17  C   UNL     1       4.927   3.121  11.718  0.00  0.00    +0.000 C 
ATOM     18  F   UNL     1       5.395   1.890  11.376  0.00  0.00    +0.000 F 
ATOM     19  F   UNL     1       3.694   2.915  12.259  0.00  0.00    +0.000 F 
ATOM     20  F   UNL     1       4.716   3.781  10.547  0.00  0.00    +0.000 F 
ENDBRANCH  13  17
ENDBRANCH   8  11
ENDBRANCH   5   7
BRANCH   1  21
ATOM     21  C   UNL     1       2.172   8.148  19.647  0.00  0.00    +0.000 C 
ATOM     22  C   UNL     1       1.135   8.002  20.767  0.00  0.00    +0.000 C 
BRANCH  21  23
ATOM     23  C   UNL     1       1.593   8.841  18.387  0.00  0.00    +0.000 C 
BRANCH  23  24
ATOM     24  C   UNL     1       0.369   9.723  18.661  0.00  0.00    +0.000 C 
BRANCH  24  26
ATOM     25  C   UNL     1       1.087  11.649  20.184  0.00  0.00    +0.000 C 
ATOM     26  C   UNL     1       0.712  11.218  18.770  0.00  0.00    +0.000 C 
BRANCH  26  27
ATOM     27  C   UNL     1      -0.421  11.995  18.307  0.00  0.00    +0.000 C 
ATOM     28  N   UNL     1      -1.635  11.931  17.954  0.00  0.00    +0.000 NA
ATOM     29  N   UNL     1      -0.971  13.192  18.166  0.00  0.00    +0.000 N 
ATOM     30  H   UNL     1      -0.834  13.670  17.277  0.00  0.00    +0.000 HD
ENDBRANCH  26  27
ENDBRANCH  24  26
ENDBRANCH  23  24
ENDBRANCH  21  23
ENDBRANCH   1  21
TORSDOF 8
ENDMDL
