MODEL 1
REMARK VINA RESULT:      -8.0      0.000      0.000
REMARK  Name = 
REMARK  6 active torsions:
REMARK  status: ('A' for Active; 'I' for Inactive)
REMARK    1  A    between atoms: C_1  and  N_2
REMARK    2  A    between atoms: C_6  and  C_7
REMARK    3  A    between atoms: C_7  and  C_8
REMARK    4  A    between atoms: C_8  and  C_9
REMARK    5  A    between atoms: C_13  and  N_14
REMARK    6  A    between atoms: C_17  and  C_18
REMARK                            x       y       z     vdW  Elec       q    Type
REMARK                         _______ _______ _______ _____ _____    ______ ____
ROOT
ATOM      1  C   UNL     1       4.978   6.080  17.477  0.00  0.00    +0.000 A 
ATOM      2  C   UNL     1       4.479   7.364  17.189  0.00  0.00    +0.000 A 
ATOM      3  C   UNL     1       3.193   7.739  17.560  0.00  0.00    +0.000 A 
ATOM      4  C   UNL     1       2.341   6.792  18.115  0.00  0.00    +0.000 A 
ATOM      5  C   UNL     1       2.741   5.446  18.160  0.00  0.00    +0.000 A 
ATOM      6  C   UNL     1       4.094   5.137  18.010  0.00  0.00    +0.000 A 
ENDROOT
BRANCH   5   7
ATOM      7  N   UNL     1       1.783   4.392  17.832  0.00  0.00    +0.000 N 
ATOM      8  C   UNL     1       1.106   3.943  19.078  0.00  0.00    +0.000 C 
ATOM      9  C   UNL     1       2.051   2.882  19.564  0.00  0.00    +0.000 A 
ATOM     10  C   UNL     1       2.578   2.671  20.833  0.00  0.00    +0.000 A 
ATOM     11  C   UNL     1       3.715   1.845  20.918  0.00  0.00    +0.000 A 
ATOM     12  C   UNL     1       4.279   1.267  19.760  0.00  0.00    +0.000 A 
ATOM     13  F   UNL     1       5.423   0.582  19.883  0.00  0.00    +0.000 F 
ATOM     14  C   UNL     1       3.751   1.493  18.499  0.00  0.00    +0.000 A 
ATOM     15  C   UNL     1       2.656   2.321  18.433  0.00  0.00    +0.000 A 
ATOM     16  C   UNL     1       2.344   3.210  17.278  0.00  0.00    +0.000 C 
ATOM     17  O   UNL     1       2.735   3.026  16.141  0.00  0.00    +0.000 OA
BRANCH  10  18
ATOM     18  C   UNL     1       2.127   3.452  22.037  0.00  0.00    +0.000 C 
ATOM     19  F   UNL     1       2.346   4.791  21.913  0.00  0.00    +0.000 F 
ENDBRANCH  10  18
ENDBRANCH   5   7
BRANCH   1  20
ATOM     20  C   UNL     1       6.439   5.749  17.227  0.00  0.00    +0.000 C 
ATOM     21  C   UNL     1       7.500   6.837  17.326  0.00  0.00    +0.000 C 
ATOM     22  C   UNL     1       7.367   5.841  18.436  0.00  0.00    +0.000 C 
BRANCH  20  23
ATOM     23  C   UNL     1       6.570   4.678  16.152  0.00  0.00    +0.000 C 
BRANCH  23  29
ATOM     24  C   UNL     1       5.396   3.585  13.491  0.00  0.00    +0.000 C 
ATOM     25  N   UNL     1       6.544   4.442  13.630  0.00  0.00    +0.000 N 
ATOM     26  C   UNL     1       7.388   4.811  12.633  0.00  0.00    +0.000 A 
ATOM     27  N   UNL     1       8.325   5.592  13.116  0.00  0.00    +0.000 NA
ATOM     28  N   UNL     1       8.114   5.706  14.469  0.00  0.00    +0.000 NA
ATOM     29  C   UNL     1       7.046   4.998  14.779  0.00  0.00    +0.000 A 
ENDBRANCH  23  29
ENDBRANCH  20  23
ENDBRANCH   1  20
TORSDOF 5
ENDMDL
MODEL 2
REMARK VINA RESULT:      -7.9      4.277      7.346
REMARK  Name = 
REMARK  6 active torsions:
REMARK  status: ('A' for Active; 'I' for Inactive)
REMARK    1  A    between atoms: C_1  and  N_2
REMARK    2  A    between atoms: C_6  and  C_7
REMARK    3  A    between atoms: C_7  and  C_8
REMARK    4  A    between atoms: C_8  and  C_9
REMARK    5  A    between atoms: C_13  and  N_14
REMARK    6  A    between atoms: C_17  and  C_18
REMARK                            x       y       z     vdW  Elec       q    Type
REMARK                         _______ _______ _______ _____ _____    ______ ____
ROOT
ATOM      1  C   UNL     1       1.755   8.245  19.615  0.00  0.00    +0.000 A 
ATOM      2  C   UNL     1       2.243   8.799  18.416  0.00  0.00    +0.000 A 
ATOM      3  C   UNL     1       2.759   7.995  17.407  0.00  0.00    +0.000 A 
ATOM      4  C   UNL     1       2.911   6.632  17.633  0.00  0.00    +0.000 A 
ATOM      5  C   UNL     1       2.676   6.115  18.917  0.00  0.00    +0.000 A 
ATOM      6  C   UNL     1       1.944   6.877  19.830  0.00  0.00    +0.000 A 
ENDROOT
BRANCH   5   7
ATOM      7  N   UNL     1       3.580   5.110  19.473  0.00  0.00    +0.000 N 
ATOM      8  C   UNL     1       4.966   5.649  19.479  0.00  0.00    +0.000 C 
ATOM      9  C   UNL     1       5.441   5.263  18.107  0.00  0.00    +0.000 A 
ATOM     10  C   UNL     1       6.102   6.020  17.147  0.00  0.00    +0.000 A 
ATOM     11  C   UNL     1       6.088   5.524  15.830  0.00  0.00    +0.000 A 
ATOM     12  C   UNL     1       5.432   4.314  15.517  0.00  0.00    +0.000 A 
ATOM     13  F   UNL     1       5.354   3.945  14.233  0.00  0.00    +0.000 F 
ATOM     14  C   UNL     1       4.767   3.573  16.481  0.00  0.00    +0.000 A 
ATOM     15  C   UNL     1       4.770   4.085  17.757  0.00  0.00    +0.000 A 
ATOM     16  C   UNL     1       3.666   3.896  18.740  0.00  0.00    +0.000 C 
ATOM     17  O   UNL     1       2.870   2.975  18.715  0.00  0.00    +0.000 OA
BRANCH  10  18
ATOM     18  C   UNL     1       6.610   7.409  17.420  0.00  0.00    +0.000 C 
ATOM     19  F   UNL     1       7.958   7.454  17.613  0.00  0.00    +0.000 F 
ENDBRANCH  10  18
ENDBRANCH   5   7
BRANCH   1  20
ATOM     20  C   UNL     1       1.032   9.118  20.627  0.00  0.00    +0.000 C 
ATOM     21  C   UNL     1       0.022   8.503  21.586  0.00  0.00    +0.000 C 
ATOM     22  C   UNL     1       1.380   8.879  22.093  0.00  0.00    +0.000 C 
BRANCH  20  23
ATOM     23  C   UNL     1       0.761  10.499  20.045  0.00  0.00    +0.000 C 
BRANCH  23  29
ATOM     24  C   UNL     1      -1.164  10.044  17.650  0.00  0.00    +0.000 C 
ATOM     25  N   UNL     1      -1.414  10.868  18.802  0.00  0.00    +0.000 N 
ATOM     26  C   UNL     1      -2.480  11.691  18.976  0.00  0.00    +0.000 A 
ATOM     27  N   UNL     1      -2.387  12.293  20.138  0.00  0.00    +0.000 NA
ATOM     28  N   UNL     1      -1.212  11.886  20.723  0.00  0.00    +0.000 NA
ATOM     29  C   UNL     1      -0.619  11.037  19.907  0.00  0.00    +0.000 A 
ENDBRANCH  23  29
ENDBRANCH  20  23
ENDBRANCH   1  20
TORSDOF 5
ENDMDL
MODEL 3
REMARK VINA RESULT:      -7.9      4.175      7.162
REMARK  Name = 
REMARK  6 active torsions:
REMARK  status: ('A' for Active; 'I' for Inactive)
REMARK    1  A    between atoms: C_1  and  N_2
REMARK    2  A    between atoms: C_6  and  C_7
REMARK    3  A    between atoms: C_7  and  C_8
REMARK    4  A    between atoms: C_8  and  C_9
REMARK    5  A    between atoms: C_13  and  N_14
REMARK    6  A    between atoms: C_17  and  C_18
REMARK                            x       y       z     vdW  Elec       q    Type
REMARK                         _______ _______ _______ _____ _____    ______ ____
ROOT
ATOM      1  C   UNL     1       1.485   8.922  19.241  0.00  0.00    +0.000 A 
ATOM      2  C   UNL     1       2.172   9.307  18.074  0.00  0.00    +0.000 A 
ATOM      3  C   UNL     1       2.911   8.390  17.336  0.00  0.00    +0.000 A 
ATOM      4  C   UNL     1       3.077   7.099  17.823  0.00  0.00    +0.000 A 
ATOM      5  C   UNL     1       2.621   6.785  19.113  0.00  0.00    +0.000 A 
ATOM      6  C   UNL     1       1.690   7.627  19.726  0.00  0.00    +0.000 A 
ENDROOT
BRANCH   5   7
ATOM      7  N   UNL     1       3.443   5.959  19.994  0.00  0.00    +0.000 N 
ATOM      8  C   UNL     1       4.454   5.234  19.180  0.00  0.00    +0.000 C 
ATOM      9  C   UNL     1       3.694   3.998  18.793  0.00  0.00    +0.000 A 
ATOM     10  C   UNL     1       3.560   3.385  17.553  0.00  0.00    +0.000 A 
ATOM     11  C   UNL     1       2.499   2.472  17.409  0.00  0.00    +0.000 A 
ATOM     12  C   UNL     1       1.623   2.202  18.483  0.00  0.00    +0.000 A 
ATOM     13  F   UNL     1       0.566   1.412  18.260  0.00  0.00    +0.000 F 
ATOM     14  C   UNL     1       1.760   2.827  19.712  0.00  0.00    +0.000 A 
ATOM     15  C   UNL     1       2.787   3.733  19.827  0.00  0.00    +0.000 A 
ATOM     16  C   UNL     1       2.747   4.941  20.699  0.00  0.00    +0.000 C 
ATOM     17  O   UNL     1       2.042   5.057  21.685  0.00  0.00    +0.000 OA
BRANCH  10  18
ATOM     18  C   UNL     1       4.341   3.825  16.345  0.00  0.00    +0.000 C 
ATOM     19  F   UNL     1       5.652   3.457  16.396  0.00  0.00    +0.000 F 
ENDBRANCH  10  18
ENDBRANCH   5   7
BRANCH   1  20
ATOM     20  C   UNL     1       0.540   9.890  19.932  0.00  0.00    +0.000 C 
ATOM     21  C   UNL     1      -0.353   9.411  21.068  0.00  0.00    +0.000 C 
ATOM     22  C   UNL     1       0.864  10.226  21.385  0.00  0.00    +0.000 C 
BRANCH  20  23
ATOM     23  C   UNL     1      -0.002  10.910  18.938  0.00  0.00    +0.000 C 
BRANCH  23  29
ATOM     24  C   UNL     1      -2.711  12.268  19.622  0.00  0.00    +0.000 C 
ATOM     25  N   UNL     1      -2.486  11.274  18.606  0.00  0.00    +0.000 N 
ATOM     26  C   UNL     1      -3.445  10.664  17.862  0.00  0.00    +0.000 A 
ATOM     27  N   UNL     1      -2.885   9.811  17.037  0.00  0.00    +0.000 NA
ATOM     28  N   UNL     1      -1.531   9.833  17.273  0.00  0.00    +0.000 NA
ATOM     29  C   UNL     1      -1.295  10.706  18.231  0.00  0.00    +0.000 A 
ENDBRANCH  23  29
ENDBRANCH  20  23
ENDBRANCH   1  20
TORSDOF 5
ENDMDL
MODEL 4
REMARK VINA RESULT:      -7.8      4.476      6.969
REMARK  Name = 
REMARK  6 active torsions:
REMARK  status: ('A' for Active; 'I' for Inactive)
REMARK    1  A    between atoms: C_1  and  N_2
REMARK    2  A    between atoms: C_6  and  C_7
REMARK    3  A    between atoms: C_7  and  C_8
REMARK    4  A    between atoms: C_8  and  C_9
REMARK    5  A    between atoms: C_13  and  N_14
REMARK    6  A    between atoms: C_17  and  C_18
REMARK                            x       y       z     vdW  Elec       q    Type
REMARK                         _______ _______ _______ _____ _____    ______ ____
ROOT
ATOM      1  C   UNL     1       2.394   6.150  18.641  0.00  0.00    +0.000 A 
ATOM      2  C   UNL     1       2.311   7.055  17.566  0.00  0.00    +0.000 A 
ATOM      3  C   UNL     1       2.200   8.423  17.781  0.00  0.00    +0.000 A 
ATOM      4  C   UNL     1       2.044   8.898  19.078  0.00  0.00    +0.000 A 
ATOM      5  C   UNL     1       1.857   7.985  20.129  0.00  0.00    +0.000 A 
ATOM      6  C   UNL     1       2.206   6.647  19.934  0.00  0.00    +0.000 A 
ENDROOT
BRANCH   5   7
ATOM      7  N   UNL     1       0.866   8.264  21.166  0.00  0.00    +0.000 N 
ATOM      8  C   UNL     1      -0.457   8.492  20.529  0.00  0.00    +0.000 C 
ATOM      9  C   UNL     1      -0.399   9.965  20.242  0.00  0.00    +0.000 A 
ATOM     10  C   UNL     1      -0.716  10.661  19.081  0.00  0.00    +0.000 A 
ATOM     11  C   UNL     1      -0.215  11.972  18.972  0.00  0.00    +0.000 A 
ATOM     12  C   UNL     1       0.568  12.537  20.001  0.00  0.00    +0.000 A 
ATOM     13  F   UNL     1       1.112  13.744  19.798  0.00  0.00    +0.000 F 
ATOM     14  C   UNL     1       0.887  11.830  21.149  0.00  0.00    +0.000 A 
ATOM     15  C   UNL     1       0.409  10.544  21.228  0.00  0.00    +0.000 A 
ATOM     16  C   UNL     1       1.104   9.432  21.938  0.00  0.00    +0.000 C 
ATOM     17  O   UNL     1       1.901   9.585  22.845  0.00  0.00    +0.000 OA
BRANCH  10  18
ATOM     18  C   UNL     1      -1.355  10.000  17.891  0.00  0.00    +0.000 C 
ATOM     19  F   UNL     1      -2.635   9.597  18.130  0.00  0.00    +0.000 F 
ENDBRANCH  10  18
ENDBRANCH   5   7
BRANCH   1  20
ATOM     20  C   UNL     1       2.696   4.682  18.390  0.00  0.00    +0.000 C 
ATOM     21  C   UNL     1       2.430   3.647  19.475  0.00  0.00    +0.000 C 
ATOM     22  C   UNL     1       1.490   3.750  18.313  0.00  0.00    +0.000 C 
BRANCH  20  23
ATOM     23  C   UNL     1       3.927   4.533  17.505  0.00  0.00    +0.000 C 
BRANCH  23  29
ATOM     24  C   UNL     1       6.565   4.364  15.872  0.00  0.00    +0.000 C 
ATOM     25  N   UNL     1       6.442   4.705  17.265  0.00  0.00    +0.000 N 
ATOM     26  C   UNL     1       7.470   4.882  18.135  0.00  0.00    +0.000 A 
ATOM     27  N   UNL     1       6.995   5.180  19.322  0.00  0.00    +0.000 NA
ATOM     28  N   UNL     1       5.624   5.159  19.238  0.00  0.00    +0.000 NA
ATOM     29  C   UNL     1       5.292   4.857  17.998  0.00  0.00    +0.000 A 
ENDBRANCH  23  29
ENDBRANCH  20  23
ENDBRANCH   1  20
TORSDOF 5
ENDMDL
MODEL 5
REMARK VINA RESULT:      -7.8      4.096      7.261
REMARK  Name = 
REMARK  6 active torsions:
REMARK  status: ('A' for Active; 'I' for Inactive)
REMARK    1  A    between atoms: C_1  and  N_2
REMARK    2  A    between atoms: C_6  and  C_7
REMARK    3  A    between atoms: C_7  and  C_8
REMARK    4  A    between atoms: C_8  and  C_9
REMARK    5  A    between atoms: C_13  and  N_14
REMARK    6  A    between atoms: C_17  and  C_18
REMARK                            x       y       z     vdW  Elec       q    Type
REMARK                         _______ _______ _______ _____ _____    ______ ____
ROOT
ATOM      1  C   UNL     1       1.836   8.248  19.503  0.00  0.00    +0.000 A 
ATOM      2  C   UNL     1       2.411   8.847  18.365  0.00  0.00    +0.000 A 
ATOM      3  C   UNL     1       3.012   8.081  17.374  0.00  0.00    +0.000 A 
ATOM      4  C   UNL     1       3.159   6.713  17.564  0.00  0.00    +0.000 A 
ATOM      5  C   UNL     1       2.829   6.150  18.808  0.00  0.00    +0.000 A 
ATOM      6  C   UNL     1       2.020   6.875  19.686  0.00  0.00    +0.000 A 
ENDROOT
BRANCH   5   7
ATOM      7  N   UNL     1       3.696   5.132  19.399  0.00  0.00    +0.000 N 
ATOM      8  C   UNL     1       5.093   5.641  19.433  0.00  0.00    +0.000 C 
ATOM      9  C   UNL     1       5.593   5.227  18.079  0.00  0.00    +0.000 A 
ATOM     10  C   UNL     1       6.295   5.957  17.126  0.00  0.00    +0.000 A 
ATOM     11  C   UNL     1       6.303   5.444  15.816  0.00  0.00    +0.000 A 
ATOM     12  C   UNL     1       5.628   4.245  15.501  0.00  0.00    +0.000 A 
ATOM     13  F   UNL     1       5.574   3.862  14.220  0.00  0.00    +0.000 F 
ATOM     14  C   UNL     1       4.923   3.532  16.457  0.00  0.00    +0.000 A 
ATOM     15  C   UNL     1       4.905   4.060  17.726  0.00  0.00    +0.000 A 
ATOM     16  C   UNL     1       3.773   3.908  18.683  0.00  0.00    +0.000 C 
ATOM     17  O   UNL     1       2.958   3.005  18.649  0.00  0.00    +0.000 OA
BRANCH  10  18
ATOM     18  C   UNL     1       6.827   7.338  17.396  0.00  0.00    +0.000 C 
ATOM     19  F   UNL     1       8.039   7.329  18.018  0.00  0.00    +0.000 F 
ENDBRANCH  10  18
ENDBRANCH   5   7
BRANCH   1  20
ATOM     20  C   UNL     1       1.027   9.081  20.483  0.00  0.00    +0.000 C 
ATOM     21  C   UNL     1       0.001   8.415  21.390  0.00  0.00    +0.000 C 
ATOM     22  C   UNL     1       1.316   8.846  21.963  0.00  0.00    +0.000 C 
BRANCH  20  23
ATOM     23  C   UNL     1       0.723  10.453  19.897  0.00  0.00    +0.000 C 
BRANCH  23  29
ATOM     24  C   UNL     1      -1.628  12.312  20.714  0.00  0.00    +0.000 C 
ATOM     25  N   UNL     1      -1.559  11.490  19.535  0.00  0.00    +0.000 N 
ATOM     26  C   UNL     1      -2.565  11.287  18.646  0.00  0.00    +0.000 A 
ATOM     27  N   UNL     1      -2.156  10.481  17.695  0.00  0.00    +0.000 NA
ATOM     28  N   UNL     1      -0.864  10.114  17.989  0.00  0.00    +0.000 NA
ATOM     29  C   UNL     1      -0.512  10.714  19.109  0.00  0.00    +0.000 A 
ENDBRANCH  23  29
ENDBRANCH  20  23
ENDBRANCH   1  20
TORSDOF 5
ENDMDL
MODEL 6
REMARK VINA RESULT:      -7.7      8.589     12.282
REMARK  Name = 
REMARK  6 active torsions:
REMARK  status: ('A' for Active; 'I' for Inactive)
REMARK    1  A    between atoms: C_1  and  N_2
REMARK    2  A    between atoms: C_6  and  C_7
REMARK    3  A    between atoms: C_7  and  C_8
REMARK    4  A    between atoms: C_8  and  C_9
REMARK    5  A    between atoms: C_13  and  N_14
REMARK    6  A    between atoms: C_17  and  C_18
REMARK                            x       y       z     vdW  Elec       q    Type
REMARK                         _______ _______ _______ _____ _____    ______ ____
ROOT
ATOM      1  C   UNL     1      -3.993  11.359  17.983  0.00  0.00    +0.000 A 
ATOM      2  C   UNL     1      -3.911  10.705  16.739  0.00  0.00    +0.000 A 
ATOM      3  C   UNL     1      -2.780   9.985  16.376  0.00  0.00    +0.000 A 
ATOM      4  C   UNL     1      -1.661  10.011  17.200  0.00  0.00    +0.000 A 
ATOM      5  C   UNL     1      -1.641  10.875  18.307  0.00  0.00    +0.000 A 
ATOM      6  C   UNL     1      -2.847  11.395  18.782  0.00  0.00    +0.000 A 
ENDROOT
BRANCH   5   7
ATOM      7  N   UNL     1      -0.429  11.630  18.618  0.00  0.00    +0.000 N 
ATOM      8  C   UNL     1       0.519  10.751  19.352  0.00  0.00    +0.000 C 
ATOM      9  C   UNL     1       0.074  10.953  20.772  0.00  0.00    +0.000 A 
ATOM     10  C   UNL     1      -0.175  10.018  21.770  0.00  0.00    +0.000 A 
ATOM     11  C   UNL     1      -0.933  10.455  22.872  0.00  0.00    +0.000 A 
ATOM     12  C   UNL     1      -1.408  11.783  22.945  0.00  0.00    +0.000 A 
ATOM     13  F   UNL     1      -2.217  12.115  23.960  0.00  0.00    +0.000 F 
ATOM     14  C   UNL     1      -1.163  12.703  21.939  0.00  0.00    +0.000 A 
ATOM     15  C   UNL     1      -0.442  12.252  20.860  0.00  0.00    +0.000 A 
ATOM     16  C   UNL     1      -0.613  12.754  19.467  0.00  0.00    +0.000 C 
ATOM     17  O   UNL     1      -1.061  13.848  19.179  0.00  0.00    +0.000 OA
BRANCH  10  18
ATOM     18  C   UNL     1       0.131   8.555  21.603  0.00  0.00    +0.000 C 
ATOM     19  F   UNL     1       1.418   8.241  21.922  0.00  0.00    +0.000 F 
ENDBRANCH  10  18
ENDBRANCH   5   7
BRANCH   1  20
ATOM     20  C   UNL     1      -5.300  11.986  18.438  0.00  0.00    +0.000 C 
ATOM     21  C   UNL     1      -6.417  12.244  17.435  0.00  0.00    +0.000 C 
ATOM     22  C   UNL     1      -6.533  11.089  18.381  0.00  0.00    +0.000 C 
BRANCH  20  23
ATOM     23  C   UNL     1      -5.051  12.997  19.549  0.00  0.00    +0.000 C 
BRANCH  23  29
ATOM     24  C   UNL     1      -7.853  13.759  20.654  0.00  0.00    +0.000 C 
ATOM     25  N   UNL     1      -6.765  13.189  21.404  0.00  0.00    +0.000 N 
ATOM     26  C   UNL     1      -6.733  13.009  22.750  0.00  0.00    +0.000 A 
ATOM     27  N   UNL     1      -5.588  12.468  23.094  0.00  0.00    +0.000 NA
ATOM     28  N   UNL     1      -4.836  12.327  21.953  0.00  0.00    +0.000 NA
ATOM     29  C   UNL     1      -5.543  12.777  20.936  0.00  0.00    +0.000 A 
ENDBRANCH  23  29
ENDBRANCH  20  23
ENDBRANCH   1  20
TORSDOF 5
ENDMDL
MODEL 7
REMARK VINA RESULT:      -7.7      4.282      7.138
REMARK  Name = 
REMARK  6 active torsions:
REMARK  status: ('A' for Active; 'I' for Inactive)
REMARK    1  A    between atoms: C_1  and  N_2
REMARK    2  A    between atoms: C_6  and  C_7
REMARK    3  A    between atoms: C_7  and  C_8
REMARK    4  A    between atoms: C_8  and  C_9
REMARK    5  A    between atoms: C_13  and  N_14
REMARK    6  A    between atoms: C_17  and  C_18
REMARK                            x       y       z     vdW  Elec       q    Type
REMARK                         _______ _______ _______ _____ _____    ______ ____
ROOT
ATOM      1  C   UNL     1       1.843   8.128  19.532  0.00  0.00    +0.000 A 
ATOM      2  C   UNL     1       2.368   8.716  18.365  0.00  0.00    +0.000 A 
ATOM      3  C   UNL     1       2.979   7.948  17.382  0.00  0.00    +0.000 A 
ATOM      4  C   UNL     1       3.185   6.592  17.607  0.00  0.00    +0.000 A 
ATOM      5  C   UNL     1       2.906   6.053  18.873  0.00  0.00    +0.000 A 
ATOM      6  C   UNL     1       2.087   6.769  19.749  0.00  0.00    +0.000 A 
ENDROOT
BRANCH   5   7
ATOM      7  N   UNL     1       3.827   5.089  19.472  0.00  0.00    +0.000 N 
ATOM      8  C   UNL     1       5.201   5.658  19.468  0.00  0.00    +0.000 C 
ATOM      9  C   UNL     1       5.695   5.233  18.115  0.00  0.00    +0.000 A 
ATOM     10  C   UNL     1       6.348   5.968  17.132  0.00  0.00    +0.000 A 
ATOM     11  C   UNL     1       6.355   5.423  15.835  0.00  0.00    +0.000 A 
ATOM     12  C   UNL     1       5.727   4.188  15.562  0.00  0.00    +0.000 A 
ATOM     13  F   UNL     1       5.667   3.771  14.291  0.00  0.00    +0.000 F 
ATOM     14  C   UNL     1       5.070   3.470  16.548  0.00  0.00    +0.000 A 
ATOM     15  C   UNL     1       5.052   4.028  17.803  0.00  0.00    +0.000 A 
ATOM     16  C   UNL     1       3.945   3.851  18.785  0.00  0.00    +0.000 C 
ATOM     17  O   UNL     1       3.169   2.913  18.788  0.00  0.00    +0.000 OA
BRANCH  10  18
ATOM     18  C   UNL     1       6.823   7.377  17.358  0.00  0.00    +0.000 C 
ATOM     19  F   UNL     1       7.951   7.441  18.120  0.00  0.00    +0.000 F 
ENDBRANCH  10  18
ENDBRANCH   5   7
BRANCH   1  20
ATOM     20  C   UNL     1       1.022   8.955  20.507  0.00  0.00    +0.000 C 
ATOM     21  C   UNL     1       0.170   8.269  21.567  0.00  0.00    +0.000 C 
ATOM     22  C   UNL     1       1.464   8.909  21.967  0.00  0.00    +0.000 C 
BRANCH  20  23
ATOM     23  C   UNL     1       0.496  10.215  19.831  0.00  0.00    +0.000 C 
BRANCH  23  29
ATOM     24  C   UNL     1       2.279  12.246  18.299  0.00  0.00    +0.000 C 
ATOM     25  N   UNL     1       1.729  12.417  19.618  0.00  0.00    +0.000 N 
ATOM     26  C   UNL     1       2.004  13.438  20.469  0.00  0.00    +0.000 A 
ATOM     27  N   UNL     1       1.332  13.274  21.584  0.00  0.00    +0.000 NA
ATOM     28  N   UNL     1       0.630  12.098  21.477  0.00  0.00    +0.000 NA
ATOM     29  C   UNL     1       0.884  11.574  20.294  0.00  0.00    +0.000 A 
ENDBRANCH  23  29
ENDBRANCH  20  23
ENDBRANCH   1  20
TORSDOF 5
ENDMDL
MODEL 8
REMARK VINA RESULT:      -7.6      4.392      7.326
REMARK  Name = 
REMARK  6 active torsions:
REMARK  status: ('A' for Active; 'I' for Inactive)
REMARK    1  A    between atoms: C_1  and  N_2
REMARK    2  A    between atoms: C_6  and  C_7
REMARK    3  A    between atoms: C_7  and  C_8
REMARK    4  A    between atoms: C_8  and  C_9
REMARK    5  A    between atoms: C_13  and  N_14
REMARK    6  A    between atoms: C_17  and  C_18
REMARK                            x       y       z     vdW  Elec       q    Type
REMARK                         _______ _______ _______ _____ _____    ______ ____
ROOT
ATOM      1  C   UNL     1       1.465   8.828  19.520  0.00  0.00    +0.000 A 
ATOM      2  C   UNL     1       2.088   9.251  18.330  0.00  0.00    +0.000 A 
ATOM      3  C   UNL     1       2.799   8.363  17.533  0.00  0.00    +0.000 A 
ATOM      4  C   UNL     1       3.004   7.062  17.978  0.00  0.00    +0.000 A 
ATOM      5  C   UNL     1       2.616   6.710  19.281  0.00  0.00    +0.000 A 
ATOM      6  C   UNL     1       1.708   7.524  19.961  0.00  0.00    +0.000 A 
ENDROOT
BRANCH   5   7
ATOM      7  N   UNL     1       3.491   5.872  20.099  0.00  0.00    +0.000 N 
ATOM      8  C   UNL     1       4.536   5.266  19.232  0.00  0.00    +0.000 C 
ATOM      9  C   UNL     1       3.845   4.019  18.760  0.00  0.00    +0.000 A 
ATOM     10  C   UNL     1       3.738   3.488  17.480  0.00  0.00    +0.000 A 
ATOM     11  C   UNL     1       2.730   2.528  17.275  0.00  0.00    +0.000 A 
ATOM     12  C   UNL     1       1.879   2.133  18.330  0.00  0.00    +0.000 A 
ATOM     13  F   UNL     1       0.867   1.300  18.054  0.00  0.00    +0.000 F 
ATOM     14  C   UNL     1       1.988   2.676  19.600  0.00  0.00    +0.000 A 
ATOM     15  C   UNL     1       2.962   3.630  19.775  0.00  0.00    +0.000 A 
ATOM     16  C   UNL     1       2.860   4.769  20.732  0.00  0.00    +0.000 C 
ATOM     17  O   UNL     1       2.156   4.773  21.725  0.00  0.00    +0.000 OA
BRANCH  10  18
ATOM     18  C   UNL     1       4.484   4.057  16.304  0.00  0.00    +0.000 C 
ATOM     19  F   UNL     1       5.539   3.285  15.920  0.00  0.00    +0.000 F 
ENDBRANCH  10  18
ENDBRANCH   5   7
BRANCH   1  20
ATOM     20  C   UNL     1       0.544   9.767  20.281  0.00  0.00    +0.000 C 
ATOM     21  C   UNL     1      -0.375   9.226  21.368  0.00  0.00    +0.000 C 
ATOM     22  C   UNL     1       0.864   9.971  21.759  0.00  0.00    +0.000 C 
BRANCH  20  23
ATOM     23  C   UNL     1       0.045  10.882  19.371  0.00  0.00    +0.000 C 
BRANCH  23  29
ATOM     24  C   UNL     1      -1.868   9.918  17.120  0.00  0.00    +0.000 C 
ATOM     25  N   UNL     1      -2.199  10.813  18.198  0.00  0.00    +0.000 N 
ATOM     26  C   UNL     1      -3.367  11.491  18.339  0.00  0.00    +0.000 A 
ATOM     27  N   UNL     1      -3.325  12.215  19.433  0.00  0.00    +0.000 NA
ATOM     28  N   UNL     1      -2.086  12.039  20.001  0.00  0.00    +0.000 NA
ATOM     29  C   UNL     1      -1.403  11.203  19.245  0.00  0.00    +0.000 A 
ENDBRANCH  23  29
ENDBRANCH  20  23
ENDBRANCH   1  20
TORSDOF 5
ENDMDL
MODEL 9
REMARK VINA RESULT:      -7.5      4.323      6.989
REMARK  Name = 
REMARK  6 active torsions:
REMARK  status: ('A' for Active; 'I' for Inactive)
REMARK    1  A    between atoms: C_1  and  N_2
REMARK    2  A    between atoms: C_6  and  C_7
REMARK    3  A    between atoms: C_7  and  C_8
REMARK    4  A    between atoms: C_8  and  C_9
REMARK    5  A    between atoms: C_13  and  N_14
REMARK    6  A    between atoms: C_17  and  C_18
REMARK                            x       y       z     vdW  Elec       q    Type
REMARK                         _______ _______ _______ _____ _____    ______ ____
ROOT
ATOM      1  C   UNL     1       2.163   5.642  19.205  0.00  0.00    +0.000 A 
ATOM      2  C   UNL     1       2.212   6.388  18.011  0.00  0.00    +0.000 A 
ATOM      3  C   UNL     1       2.225   7.777  18.029  0.00  0.00    +0.000 A 
ATOM      4  C   UNL     1       2.062   8.445  19.237  0.00  0.00    +0.000 A 
ATOM      5  C   UNL     1       1.746   7.712  20.392  0.00  0.00    +0.000 A 
ATOM      6  C   UNL     1       1.972   6.334  20.404  0.00  0.00    +0.000 A 
ENDROOT
BRANCH   5   7
ATOM      7  N   UNL     1       0.744   8.224  21.326  0.00  0.00    +0.000 N 
ATOM      8  C   UNL     1      -0.497   8.554  20.578  0.00  0.00    +0.000 C 
ATOM      9  C   UNL     1      -0.223   9.969  20.155  0.00  0.00    +0.000 A 
ATOM     10  C   UNL     1      -0.376  10.575  18.914  0.00  0.00    +0.000 A 
ATOM     11  C   UNL     1       0.304  11.790  18.714  0.00  0.00    +0.000 A 
ATOM     12  C   UNL     1       1.097  12.354  19.737  0.00  0.00    +0.000 A 
ATOM     13  F   UNL     1       1.811  13.452  19.457  0.00  0.00    +0.000 F 
ATOM     14  C   UNL     1       1.251  11.736  20.967  0.00  0.00    +0.000 A 
ATOM     15  C   UNL     1       0.599  10.538  21.136  0.00  0.00    +0.000 A 
ATOM     16  C   UNL     1       1.095   9.426  21.996  0.00  0.00    +0.000 C 
ATOM     17  O   UNL     1       1.853   9.569  22.938  0.00  0.00    +0.000 OA
BRANCH  10  18
ATOM     18  C   UNL     1      -1.030   9.881  17.750  0.00  0.00    +0.000 C 
ATOM     19  F   UNL     1      -2.352   9.624  17.960  0.00  0.00    +0.000 F 
ENDBRANCH  10  18
ENDBRANCH   5   7
BRANCH   1  20
ATOM     20  C   UNL     1       2.332   4.132  19.175  0.00  0.00    +0.000 C 
ATOM     21  C   UNL     1       1.296   3.232  19.834  0.00  0.00    +0.000 C 
ATOM     22  C   UNL     1       1.316   3.357  18.342  0.00  0.00    +0.000 C 
BRANCH  20  23
ATOM     23  C   UNL     1       3.806   3.757  19.260  0.00  0.00    +0.000 C 
BRANCH  23  29
ATOM     24  C   UNL     1       6.439   5.406  19.281  0.00  0.00    +0.000 C 
ATOM     25  N   UNL     1       5.853   4.746  18.144  0.00  0.00    +0.000 N 
ATOM     26  C   UNL     1       6.283   4.842  16.859  0.00  0.00    +0.000 A 
ATOM     27  N   UNL     1       5.515   4.113  16.084  0.00  0.00    +0.000 NA
ATOM     28  N   UNL     1       4.536   3.558  16.872  0.00  0.00    +0.000 NA
ATOM     29  C   UNL     1       4.734   3.954  18.114  0.00  0.00    +0.000 A 
ENDBRANCH  23  29
ENDBRANCH  20  23
ENDBRANCH   1  20
TORSDOF 5
ENDMDL
