MODEL 1
REMARK VINA RESULT:     -10.2      0.000      0.000
REMARK  Name = 
REMARK  7 active torsions:
REMARK  status: ('A' for Active; 'I' for Inactive)
REMARK    1  A    between atoms: C_1  and  N_2
REMARK    2  A    between atoms: C_6  and  C_7
REMARK    3  A    between atoms: C_7  and  C_8
REMARK    4  A    between atoms: C_8  and  C_9
REMARK    5  A    between atoms: C_13  and  N_14
REMARK    6  A    between atoms: C_21  and  C_22
REMARK    7  A    between atoms: C_22  and  C_23
REMARK                            x       y       z     vdW  Elec       q    Type
REMARK                         _______ _______ _______ _____ _____    ______ ____
ROOT
ATOM      1  C   UNL     1       4.683   5.209  17.525  0.00  0.00    +0.000 A 
ATOM      2  C   UNL     1       3.967   4.012  17.732  0.00  0.00    +0.000 A 
ATOM      3  C   UNL     1       2.681   4.007  18.256  0.00  0.00    +0.000 A 
ATOM      4  C   UNL     1       2.084   5.209  18.612  0.00  0.00    +0.000 A 
ATOM      5  C   UNL     1       2.744   6.431  18.429  0.00  0.00    +0.000 A 
ATOM      6  C   UNL     1       4.007   6.417  17.825  0.00  0.00    +0.000 A 
ENDROOT
BRANCH   5   7
ATOM      7  N   UNL     1       2.166   7.629  18.919  0.00  0.00    +0.000 N 
ATOM      8  C   UNL     1       1.454   7.759  20.191  0.00  0.00    +0.000 C 
ATOM      9  C   UNL     1       0.988   9.186  20.176  0.00  0.00    +0.000 A 
ATOM     10  C   UNL     1       1.338   9.757  18.959  0.00  0.00    +0.000 A 
ATOM     11  C   UNL     1       0.994  11.041  18.631  0.00  0.00    +0.000 A 
ATOM     12  N   UNL     1       0.314  11.817  19.499  0.00  0.00    +0.000 NA
ATOM     13  C   UNL     1       0.004  11.272  20.708  0.00  0.00    +0.000 A 
ATOM     14  C   UNL     1       0.309   9.963  21.105  0.00  0.00    +0.000 A 
ATOM     15  C   UNL     1       2.075   8.803  18.167  0.00  0.00    +0.000 C 
ATOM     16  O   UNL     1       2.465   9.071  17.044  0.00  0.00    +0.000 OA
BRANCH  14  17
ATOM     17  C   UNL     1      -0.087   9.500  22.475  0.00  0.00    +0.000 C 
ATOM     18  C   UNL     1      -0.961  10.516  23.192  0.00  0.00    +0.000 C 
ATOM     19  F   UNL     1      -0.763   8.315  22.440  0.00  0.00    +0.000 F 
ATOM     20  F   UNL     1       1.002   9.268  23.265  0.00  0.00    +0.000 F 
ENDBRANCH  14  17
ENDBRANCH   5   7
BRANCH   1  21
ATOM     21  C   UNL     1       6.224   5.170  17.041  0.00  0.00    +0.000 C 
ATOM     22  C   UNL     1       6.960   6.548  16.851  0.00  0.00    +0.000 C 
ATOM     23  C   UNL     1       7.566   6.406  18.253  0.00  0.00    +0.000 C 
ATOM     24  C   UNL     1       7.266   4.905  18.202  0.00  0.00    +0.000 C 
BRANCH  21  25
ATOM     25  C   UNL     1       6.401   4.161  15.887  0.00  0.00    +0.000 C 
BRANCH  25  31
ATOM     26  C   UNL     1       5.647   3.476  12.871  0.00  0.00    +0.000 C 
ATOM     27  N   UNL     1       6.667   4.374  13.344  0.00  0.00    +0.000 N 
ATOM     28  C   UNL     1       7.550   5.033  12.543  0.00  0.00    +0.000 A 
ATOM     29  N   UNL     1       8.350   5.765  13.279  0.00  0.00    +0.000 NA
ATOM     30  N   UNL     1       7.996   5.572  14.590  0.00  0.00    +0.000 NA
ATOM     31  C   UNL     1       6.987   4.721  14.634  0.00  0.00    +0.000 A 
ENDBRANCH  25  31
ENDBRANCH  21  25
ENDBRANCH   1  21
TORSDOF 5
ENDMDL
MODEL 2
REMARK VINA RESULT:      -9.6      1.471      2.789
REMARK  Name = 
REMARK  7 active torsions:
REMARK  status: ('A' for Active; 'I' for Inactive)
REMARK    1  A    between atoms: C_1  and  N_2
REMARK    2  A    between atoms: C_6  and  C_7
REMARK    3  A    between atoms: C_7  and  C_8
REMARK    4  A    between atoms: C_8  and  C_9
REMARK    5  A    between atoms: C_13  and  N_14
REMARK    6  A    between atoms: C_21  and  C_22
REMARK    7  A    between atoms: C_22  and  C_23
REMARK                            x       y       z     vdW  Elec       q    Type
REMARK                         _______ _______ _______ _____ _____    ______ ____
ROOT
ATOM      1  C   UNL     1       4.563   4.604  17.502  0.00  0.00    +0.000 A 
ATOM      2  C   UNL     1       4.255   3.507  18.333  0.00  0.00    +0.000 A 
ATOM      3  C   UNL     1       3.314   3.597  19.350  0.00  0.00    +0.000 A 
ATOM      4  C   UNL     1       2.670   4.805  19.579  0.00  0.00    +0.000 A 
ATOM      5  C   UNL     1       2.930   5.930  18.786  0.00  0.00    +0.000 A 
ATOM      6  C   UNL     1       3.823   5.793  17.716  0.00  0.00    +0.000 A 
ENDROOT
BRANCH   5   7
ATOM      7  N   UNL     1       2.356   7.182  19.121  0.00  0.00    +0.000 N 
ATOM      8  C   UNL     1       1.596   7.457  20.340  0.00  0.00    +0.000 C 
ATOM      9  C   UNL     1       1.157   8.881  20.154  0.00  0.00    +0.000 A 
ATOM     10  C   UNL     1       1.566   9.313  18.899  0.00  0.00    +0.000 A 
ATOM     11  C   UNL     1       1.260  10.559  18.421  0.00  0.00    +0.000 A 
ATOM     12  N   UNL     1       0.560  11.434  19.173  0.00  0.00    +0.000 NA
ATOM     13  C   UNL     1       0.192  11.025  20.419  0.00  0.00    +0.000 A 
ATOM     14  C   UNL     1       0.457   9.763  20.966  0.00  0.00    +0.000 A 
ATOM     15  C   UNL     1       2.317   8.270  18.244  0.00  0.00    +0.000 C 
ATOM     16  O   UNL     1       2.756   8.409  17.116  0.00  0.00    +0.000 OA
BRANCH  14  17
ATOM     17  C   UNL     1      -0.003   9.455  22.360  0.00  0.00    +0.000 C 
ATOM     18  C   UNL     1      -0.784  10.606  22.972  0.00  0.00    +0.000 C 
ATOM     19  F   UNL     1      -0.790   8.342  22.405  0.00  0.00    +0.000 F 
ATOM     20  F   UNL     1       1.047   9.186  23.190  0.00  0.00    +0.000 F 
ENDBRANCH  14  17
ENDBRANCH   5   7
BRANCH   1  21
ATOM     21  C   UNL     1       5.756   4.504  16.418  0.00  0.00    +0.000 C 
ATOM     22  C   UNL     1       5.641   3.390  15.313  0.00  0.00    +0.000 C 
ATOM     23  C   UNL     1       5.063   4.428  14.342  0.00  0.00    +0.000 C 
ATOM     24  C   UNL     1       5.641   5.538  15.224  0.00  0.00    +0.000 C 
BRANCH  21  25
ATOM     25  C   UNL     1       7.129   4.605  17.116  0.00  0.00    +0.000 C 
BRANCH  25  31
ATOM     26  C   UNL     1       8.075   5.726  19.941  0.00  0.00    +0.000 C 
ATOM     27  N   UNL     1       7.932   6.451  18.707  0.00  0.00    +0.000 N 
ATOM     28  C   UNL     1       8.112   7.795  18.572  0.00  0.00    +0.000 A 
ATOM     29  N   UNL     1       7.903   8.144  17.327  0.00  0.00    +0.000 NA
ATOM     30  N   UNL     1       7.564   7.011  16.631  0.00  0.00    +0.000 NA
ATOM     31  C   UNL     1       7.567   5.987  17.466  0.00  0.00    +0.000 A 
ENDBRANCH  25  31
ENDBRANCH  21  25
ENDBRANCH   1  21
TORSDOF 5
ENDMDL
MODEL 3
REMARK VINA RESULT:      -9.5      1.895      2.476
REMARK  Name = 
REMARK  7 active torsions:
REMARK  status: ('A' for Active; 'I' for Inactive)
REMARK    1  A    between atoms: C_1  and  N_2
REMARK    2  A    between atoms: C_6  and  C_7
REMARK    3  A    between atoms: C_7  and  C_8
REMARK    4  A    between atoms: C_8  and  C_9
REMARK    5  A    between atoms: C_13  and  N_14
REMARK    6  A    between atoms: C_21  and  C_22
REMARK    7  A    between atoms: C_22  and  C_23
REMARK                            x       y       z     vdW  Elec       q    Type
REMARK                         _______ _______ _______ _____ _____    ______ ____
ROOT
ATOM      1  C   UNL     1       4.512   4.960  17.150  0.00  0.00    +0.000 A 
ATOM      2  C   UNL     1       3.719   3.803  17.013  0.00  0.00    +0.000 A 
ATOM      3  C   UNL     1       2.409   3.751  17.472  0.00  0.00    +0.000 A 
ATOM      4  C   UNL     1       1.864   4.860  18.106  0.00  0.00    +0.000 A 
ATOM      5  C   UNL     1       2.600   6.040  18.269  0.00  0.00    +0.000 A 
ATOM      6  C   UNL     1       3.890   6.094  17.727  0.00  0.00    +0.000 A 
ENDROOT
BRANCH   5   7
ATOM      7  N   UNL     1       2.067   7.109  19.031  0.00  0.00    +0.000 N 
ATOM      8  C   UNL     1       1.841   8.465  18.531  0.00  0.00    +0.000 C 
ATOM      9  C   UNL     1       1.352   9.200  19.746  0.00  0.00    +0.000 A 
ATOM     10  C   UNL     1       1.396   8.339  20.834  0.00  0.00    +0.000 A 
ATOM     11  C   UNL     1       1.061   8.745  22.099  0.00  0.00    +0.000 A 
ATOM     12  N   UNL     1       0.648  10.008  22.331  0.00  0.00    +0.000 NA
ATOM     13  C   UNL     1       0.567  10.842  21.258  0.00  0.00    +0.000 A 
ATOM     14  C   UNL     1       0.907  10.500  19.943  0.00  0.00    +0.000 A 
ATOM     15  C   UNL     1       1.835   7.033  20.407  0.00  0.00    +0.000 C 
ATOM     16  O   UNL     1       1.978   6.116  21.197  0.00  0.00    +0.000 OA
BRANCH  14  17
ATOM     17  C   UNL     1       0.758  11.523  18.855  0.00  0.00    +0.000 C 
ATOM     18  C   UNL     1       2.096  11.913  18.250  0.00  0.00    +0.000 C 
ATOM     19  F   UNL     1      -0.048  11.084  17.846  0.00  0.00    +0.000 F 
ATOM     20  F   UNL     1       0.168  12.665  19.315  0.00  0.00    +0.000 F 
ENDBRANCH  14  17
ENDBRANCH   5   7
BRANCH   1  21
ATOM     21  C   UNL     1       6.071   4.942  16.728  0.00  0.00    +0.000 C 
ATOM     22  C   UNL     1       6.819   6.324  16.652  0.00  0.00    +0.000 C 
ATOM     23  C   UNL     1       7.366   6.094  18.067  0.00  0.00    +0.000 C 
ATOM     24  C   UNL     1       7.064   4.601  17.913  0.00  0.00    +0.000 C 
BRANCH  21  25
ATOM     25  C   UNL     1       6.293   4.003  15.524  0.00  0.00    +0.000 C 
BRANCH  25  31
ATOM     26  C   UNL     1       5.810   3.379  12.439  0.00  0.00    +0.000 C 
ATOM     27  N   UNL     1       6.743   4.310  13.016  0.00  0.00    +0.000 N 
ATOM     28  C   UNL     1       7.650   5.037  12.306  0.00  0.00    +0.000 A 
ATOM     29  N   UNL     1       8.352   5.784  13.123  0.00  0.00    +0.000 NA
ATOM     30  N   UNL     1       7.908   5.532  14.396  0.00  0.00    +0.000 NA
ATOM     31  C   UNL     1       6.944   4.631  14.337  0.00  0.00    +0.000 A 
ENDBRANCH  25  31
ENDBRANCH  21  25
ENDBRANCH   1  21
TORSDOF 5
ENDMDL
MODEL 4
REMARK VINA RESULT:      -9.3      0.718      1.299
REMARK  Name = 
REMARK  7 active torsions:
REMARK  status: ('A' for Active; 'I' for Inactive)
REMARK    1  A    between atoms: C_1  and  N_2
REMARK    2  A    between atoms: C_6  and  C_7
REMARK    3  A    between atoms: C_7  and  C_8
REMARK    4  A    between atoms: C_8  and  C_9
REMARK    5  A    between atoms: C_13  and  N_14
REMARK    6  A    between atoms: C_21  and  C_22
REMARK    7  A    between atoms: C_22  and  C_23
REMARK                            x       y       z     vdW  Elec       q    Type
REMARK                         _______ _______ _______ _____ _____    ______ ____
ROOT
ATOM      1  C   UNL     1       4.523   5.540  17.198  0.00  0.00    +0.000 A 
ATOM      2  C   UNL     1       3.908   4.311  17.511  0.00  0.00    +0.000 A 
ATOM      3  C   UNL     1       2.707   4.245  18.205  0.00  0.00    +0.000 A 
ATOM      4  C   UNL     1       2.099   5.420  18.628  0.00  0.00    +0.000 A 
ATOM      5  C   UNL     1       2.659   6.672  18.346  0.00  0.00    +0.000 A 
ATOM      6  C   UNL     1       3.828   6.715  17.575  0.00  0.00    +0.000 A 
ENDROOT
BRANCH   5   7
ATOM      7  N   UNL     1       2.088   7.846  18.898  0.00  0.00    +0.000 N 
ATOM      8  C   UNL     1       1.376   7.912  20.174  0.00  0.00    +0.000 C 
ATOM      9  C   UNL     1       0.917   9.341  20.234  0.00  0.00    +0.000 A 
ATOM     10  C   UNL     1       1.272   9.973  19.050  0.00  0.00    +0.000 A 
ATOM     11  C   UNL     1       0.935  11.275  18.790  0.00  0.00    +0.000 A 
ATOM     12  N   UNL     1       0.259  12.008  19.698  0.00  0.00    +0.000 NA
ATOM     13  C   UNL     1      -0.055  11.400  20.876  0.00  0.00    +0.000 A 
ATOM     14  C   UNL     1       0.242  10.071  21.203  0.00  0.00    +0.000 A 
ATOM     15  C   UNL     1       2.004   9.059  18.209  0.00  0.00    +0.000 C 
ATOM     16  O   UNL     1       2.397   9.383  17.101  0.00  0.00    +0.000 OA
BRANCH  14  17
ATOM     17  C   UNL     1      -0.158   9.538  22.547  0.00  0.00    +0.000 C 
ATOM     18  C   UNL     1      -1.066  10.499  23.296  0.00  0.00    +0.000 C 
ATOM     19  F   UNL     1      -0.804   8.340  22.451  0.00  0.00    +0.000 F 
ATOM     20  F   UNL     1       0.928   9.298  23.339  0.00  0.00    +0.000 F 
ENDBRANCH  14  17
ENDBRANCH   5   7
BRANCH   1  21
ATOM     21  C   UNL     1       5.984   5.575  16.509  0.00  0.00    +0.000 C 
ATOM     22  C   UNL     1       7.154   6.243  17.322  0.00  0.00    +0.000 C 
ATOM     23  C   UNL     1       7.594   4.856  17.808  0.00  0.00    +0.000 C 
ATOM     24  C   UNL     1       6.806   4.230  16.654  0.00  0.00    +0.000 C 
BRANCH  21  25
ATOM     25  C   UNL     1       5.874   6.008  15.033  0.00  0.00    +0.000 C 
BRANCH  25  31
ATOM     26  C   UNL     1       8.318   5.693  13.017  0.00  0.00    +0.000 C 
ATOM     27  N   UNL     1       7.164   4.843  13.145  0.00  0.00    +0.000 N 
ATOM     28  C   UNL     1       6.894   3.777  12.341  0.00  0.00    +0.000 A 
ATOM     29  N   UNL     1       5.770   3.217  12.715  0.00  0.00    +0.000 NA
ATOM     30  N   UNL     1       5.284   3.937  13.776  0.00  0.00    +0.000 NA
ATOM     31  C   UNL     1       6.117   4.929  14.031  0.00  0.00    +0.000 A 
ENDBRANCH  25  31
ENDBRANCH  21  25
ENDBRANCH   1  21
TORSDOF 5
ENDMDL
MODEL 5
REMARK VINA RESULT:      -9.3      3.656      9.038
REMARK  Name = 
REMARK  7 active torsions:
REMARK  status: ('A' for Active; 'I' for Inactive)
REMARK    1  A    between atoms: C_1  and  N_2
REMARK    2  A    between atoms: C_6  and  C_7
REMARK    3  A    between atoms: C_7  and  C_8
REMARK    4  A    between atoms: C_8  and  C_9
REMARK    5  A    between atoms: C_13  and  N_14
REMARK    6  A    between atoms: C_21  and  C_22
REMARK    7  A    between atoms: C_22  and  C_23
REMARK                            x       y       z     vdW  Elec       q    Type
REMARK                         _______ _______ _______ _____ _____    ______ ____
ROOT
ATOM      1  C   UNL     1      -0.168  10.066  20.013  0.00  0.00    +0.000 A 
ATOM      2  C   UNL     1      -0.096  10.152  21.419  0.00  0.00    +0.000 A 
ATOM      3  C   UNL     1       0.760   9.350  22.162  0.00  0.00    +0.000 A 
ATOM      4  C   UNL     1       1.554   8.414  21.511  0.00  0.00    +0.000 A 
ATOM      5  C   UNL     1       1.529   8.282  20.117  0.00  0.00    +0.000 A 
ATOM      6  C   UNL     1       0.718   9.158  19.384  0.00  0.00    +0.000 A 
ENDROOT
BRANCH   5   7
ATOM      7  N   UNL     1       2.252   7.236  19.491  0.00  0.00    +0.000 N 
ATOM      8  C   UNL     1       3.120   7.397  18.325  0.00  0.00    +0.000 C 
ATOM      9  C   UNL     1       3.559   5.992  18.030  0.00  0.00    +0.000 A 
ATOM     10  C   UNL     1       2.911   5.130  18.905  0.00  0.00    +0.000 A 
ATOM     11  C   UNL     1       3.070   3.771  18.841  0.00  0.00    +0.000 A 
ATOM     12  N   UNL     1       3.891   3.215  17.927  0.00  0.00    +0.000 NA
ATOM     13  C   UNL     1       4.557   4.061  17.093  0.00  0.00    +0.000 A 
ATOM     14  C   UNL     1       4.432   5.456  17.092  0.00  0.00    +0.000 A 
ATOM     15  C   UNL     1       2.097   5.888  19.824  0.00  0.00    +0.000 C 
ATOM     16  O   UNL     1       1.411   5.342  20.670  0.00  0.00    +0.000 OA
BRANCH  14  17
ATOM     17  C   UNL     1       5.237   6.266  16.119  0.00  0.00    +0.000 C 
ATOM     18  C   UNL     1       5.924   5.394  15.081  0.00  0.00    +0.000 C 
ATOM     19  F   UNL     1       4.472   7.182  15.458  0.00  0.00    +0.000 F 
ATOM     20  F   UNL     1       6.206   6.994  16.748  0.00  0.00    +0.000 F 
ENDBRANCH  14  17
ENDBRANCH   5   7
BRANCH   1  21
ATOM     21  C   UNL     1      -1.268  10.918  19.194  0.00  0.00    +0.000 C 
ATOM     22  C   UNL     1      -1.972  12.108  19.945  0.00  0.00    +0.000 C 
ATOM     23  C   UNL     1      -0.976  13.086  19.310  0.00  0.00    +0.000 C 
ATOM     24  C   UNL     1      -0.658  12.031  18.247  0.00  0.00    +0.000 C 
BRANCH  21  25
ATOM     25  C   UNL     1      -2.211   9.977  18.417  0.00  0.00    +0.000 C 
BRANCH  25  31
ATOM     26  C   UNL     1      -4.935  11.606  18.167  0.00  0.00    +0.000 C 
ATOM     27  N   UNL     1      -4.033  11.227  17.112  0.00  0.00    +0.000 N 
ATOM     28  C   UNL     1      -4.254  11.450  15.786  0.00  0.00    +0.000 A 
ATOM     29  N   UNL     1      -3.249  10.983  15.087  0.00  0.00    +0.000 NA
ATOM     30  N   UNL     1      -2.356  10.429  15.969  0.00  0.00    +0.000 NA
ATOM     31  C   UNL     1      -2.833  10.563  17.193  0.00  0.00    +0.000 A 
ENDBRANCH  25  31
ENDBRANCH  21  25
ENDBRANCH   1  21
TORSDOF 5
ENDMDL
MODEL 6
REMARK VINA RESULT:      -9.3      2.674      4.367
REMARK  Name = 
REMARK  7 active torsions:
REMARK  status: ('A' for Active; 'I' for Inactive)
REMARK    1  A    between atoms: C_1  and  N_2
REMARK    2  A    between atoms: C_6  and  C_7
REMARK    3  A    between atoms: C_7  and  C_8
REMARK    4  A    between atoms: C_8  and  C_9
REMARK    5  A    between atoms: C_13  and  N_14
REMARK    6  A    between atoms: C_21  and  C_22
REMARK    7  A    between atoms: C_22  and  C_23
REMARK                            x       y       z     vdW  Elec       q    Type
REMARK                         _______ _______ _______ _____ _____    ______ ____
ROOT
ATOM      1  C   UNL     1       2.910   5.934  18.699  0.00  0.00    +0.000 A 
ATOM      2  C   UNL     1       3.486   6.481  17.533  0.00  0.00    +0.000 A 
ATOM      3  C   UNL     1       3.332   7.819  17.196  0.00  0.00    +0.000 A 
ATOM      4  C   UNL     1       2.569   8.645  18.012  0.00  0.00    +0.000 A 
ATOM      5  C   UNL     1       1.974   8.162  19.183  0.00  0.00    +0.000 A 
ATOM      6  C   UNL     1       2.211   6.830  19.544  0.00  0.00    +0.000 A 
ENDROOT
BRANCH   5   7
ATOM      7  N   UNL     1       1.098   8.991  19.928  0.00  0.00    +0.000 N 
ATOM      8  C   UNL     1       0.368  10.138  19.389  0.00  0.00    +0.000 C 
ATOM      9  C   UNL     1      -0.329  10.696  20.596  0.00  0.00    +0.000 A 
ATOM     10  C   UNL     1       0.061   9.967  21.712  0.00  0.00    +0.000 A 
ATOM     11  C   UNL     1      -0.371  10.280  22.974  0.00  0.00    +0.000 A 
ATOM     12  N   UNL     1      -1.221  11.307  23.178  0.00  0.00    +0.000 NA
ATOM     13  C   UNL     1      -1.635  11.998  22.079  0.00  0.00    +0.000 A 
ATOM     14  C   UNL     1      -1.224  11.744  20.765  0.00  0.00    +0.000 A 
ATOM     15  C   UNL     1       0.945   8.900  21.314  0.00  0.00    +0.000 C 
ATOM     16  O   UNL     1       1.441   8.143  22.130  0.00  0.00    +0.000 OA
BRANCH  14  17
ATOM     17  C   UNL     1      -1.772  12.583  19.649  0.00  0.00    +0.000 C 
ATOM     18  C   UNL     1      -0.726  13.524  19.074  0.00  0.00    +0.000 C 
ATOM     19  F   UNL     1      -2.260  11.822  18.627  0.00  0.00    +0.000 F 
ATOM     20  F   UNL     1      -2.827  13.346  20.062  0.00  0.00    +0.000 F 
ENDBRANCH  14  17
ENDBRANCH   5   7
BRANCH   1  21
ATOM     21  C   UNL     1       2.997   4.348  18.991  0.00  0.00    +0.000 C 
ATOM     22  C   UNL     1       2.698   3.862  20.457  0.00  0.00    +0.000 C 
ATOM     23  C   UNL     1       1.254   3.545  20.047  0.00  0.00    +0.000 C 
ATOM     24  C   UNL     1       1.699   3.538  18.582  0.00  0.00    +0.000 C 
BRANCH  21  25
ATOM     25  C   UNL     1       4.260   3.748  18.340  0.00  0.00    +0.000 C 
BRANCH  25  31
ATOM     26  C   UNL     1       6.651   4.437  16.354  0.00  0.00    +0.000 C 
ATOM     27  N   UNL     1       6.566   4.714  17.763  0.00  0.00    +0.000 N 
ATOM     28  C   UNL     1       7.567   5.265  18.506  0.00  0.00    +0.000 A 
ATOM     29  N   UNL     1       7.178   5.382  19.751  0.00  0.00    +0.000 NA
ATOM     30  N   UNL     1       5.902   4.885  19.833  0.00  0.00    +0.000 NA
ATOM     31  C   UNL     1       5.534   4.468  18.635  0.00  0.00    +0.000 A 
ENDBRANCH  25  31
ENDBRANCH  21  25
ENDBRANCH   1  21
TORSDOF 5
ENDMDL
MODEL 7
REMARK VINA RESULT:      -9.1      3.627      9.197
REMARK  Name = 
REMARK  7 active torsions:
REMARK  status: ('A' for Active; 'I' for Inactive)
REMARK    1  A    between atoms: C_1  and  N_2
REMARK    2  A    between atoms: C_6  and  C_7
REMARK    3  A    between atoms: C_7  and  C_8
REMARK    4  A    between atoms: C_8  and  C_9
REMARK    5  A    between atoms: C_13  and  N_14
REMARK    6  A    between atoms: C_21  and  C_22
REMARK    7  A    between atoms: C_22  and  C_23
REMARK                            x       y       z     vdW  Elec       q    Type
REMARK                         _______ _______ _______ _____ _____    ______ ____
ROOT
ATOM      1  C   UNL     1       0.004  10.183  19.984  0.00  0.00    +0.000 A 
ATOM      2  C   UNL     1      -0.017  10.200  21.393  0.00  0.00    +0.000 A 
ATOM      3  C   UNL     1       0.743   9.317  22.150  0.00  0.00    +0.000 A 
ATOM      4  C   UNL     1       1.530   8.371  21.508  0.00  0.00    +0.000 A 
ATOM      5  C   UNL     1       1.595   8.305  20.111  0.00  0.00    +0.000 A 
ATOM      6  C   UNL     1       0.883   9.257  19.370  0.00  0.00    +0.000 A 
ENDROOT
BRANCH   5   7
ATOM      7  N   UNL     1       2.303   7.250  19.482  0.00  0.00    +0.000 N 
ATOM      8  C   UNL     1       3.180   7.404  18.322  0.00  0.00    +0.000 C 
ATOM      9  C   UNL     1       3.597   5.993  18.021  0.00  0.00    +0.000 A 
ATOM     10  C   UNL     1       2.931   5.137  18.888  0.00  0.00    +0.000 A 
ATOM     11  C   UNL     1       3.067   3.776  18.816  0.00  0.00    +0.000 A 
ATOM     12  N   UNL     1       3.884   3.211  17.904  0.00  0.00    +0.000 NA
ATOM     13  C   UNL     1       4.568   4.051  17.079  0.00  0.00    +0.000 A 
ATOM     14  C   UNL     1       4.467   5.448  17.085  0.00  0.00    +0.000 A 
ATOM     15  C   UNL     1       2.124   5.903  19.806  0.00  0.00    +0.000 C 
ATOM     16  O   UNL     1       1.424   5.364  20.645  0.00  0.00    +0.000 OA
BRANCH  14  17
ATOM     17  C   UNL     1       5.291   6.249  16.121  0.00  0.00    +0.000 C 
ATOM     18  C   UNL     1       6.060   5.365  15.154  0.00  0.00    +0.000 C 
ATOM     19  F   UNL     1       4.528   7.111  15.388  0.00  0.00    +0.000 F 
ATOM     20  F   UNL     1       6.200   7.037  16.768  0.00  0.00    +0.000 F 
ENDBRANCH  14  17
ENDBRANCH   5   7
BRANCH   1  21
ATOM     21  C   UNL     1      -0.991  11.132  19.136  0.00  0.00    +0.000 C 
ATOM     22  C   UNL     1      -1.729  12.286  19.911  0.00  0.00    +0.000 C 
ATOM     23  C   UNL     1      -0.651  13.273  19.447  0.00  0.00    +0.000 C 
ATOM     24  C   UNL     1      -0.265  12.290  18.338  0.00  0.00    +0.000 C 
BRANCH  21  25
ATOM     25  C   UNL     1      -1.883  10.284  18.206  0.00  0.00    +0.000 C 
BRANCH  25  31
ATOM     26  C   UNL     1      -3.120  10.791  15.316  0.00  0.00    +0.000 C 
ATOM     27  N   UNL     1      -3.687  11.136  16.592  0.00  0.00    +0.000 N 
ATOM     28  C   UNL     1      -4.849  11.829  16.762  0.00  0.00    +0.000 A 
ATOM     29  N   UNL     1      -5.086  11.984  18.041  0.00  0.00    +0.000 NA
ATOM     30  N   UNL     1      -4.053  11.396  18.727  0.00  0.00    +0.000 NA
ATOM     31  C   UNL     1      -3.199  10.894  17.853  0.00  0.00    +0.000 A 
ENDBRANCH  25  31
ENDBRANCH  21  25
ENDBRANCH   1  21
TORSDOF 5
ENDMDL
MODEL 8
REMARK VINA RESULT:      -9.1      3.359      8.652
REMARK  Name = 
REMARK  7 active torsions:
REMARK  status: ('A' for Active; 'I' for Inactive)
REMARK    1  A    between atoms: C_1  and  N_2
REMARK    2  A    between atoms: C_6  and  C_7
REMARK    3  A    between atoms: C_7  and  C_8
REMARK    4  A    between atoms: C_8  and  C_9
REMARK    5  A    between atoms: C_13  and  N_14
REMARK    6  A    between atoms: C_21  and  C_22
REMARK    7  A    between atoms: C_22  and  C_23
REMARK                            x       y       z     vdW  Elec       q    Type
REMARK                         _______ _______ _______ _____ _____    ______ ____
ROOT
ATOM      1  C   UNL     1      -0.351  10.558  20.229  0.00  0.00    +0.000 A 
ATOM      2  C   UNL     1      -0.154  10.739  21.613  0.00  0.00    +0.000 A 
ATOM      3  C   UNL     1       0.659   9.894  22.357  0.00  0.00    +0.000 A 
ATOM      4  C   UNL     1       1.282   8.822  21.731  0.00  0.00    +0.000 A 
ATOM      5  C   UNL     1       1.128   8.591  20.358  0.00  0.00    +0.000 A 
ATOM      6  C   UNL     1       0.368   9.503  19.615  0.00  0.00    +0.000 A 
ENDROOT
BRANCH   5   7
ATOM      7  N   UNL     1       1.669   7.420  19.771  0.00  0.00    +0.000 N 
ATOM      8  C   UNL     1       1.505   6.065  20.298  0.00  0.00    +0.000 C 
ATOM      9  C   UNL     1       2.331   5.232  19.360  0.00  0.00    +0.000 A 
ATOM     10  C   UNL     1       2.963   6.076  18.456  0.00  0.00    +0.000 A 
ATOM     11  C   UNL     1       3.833   5.606  17.507  0.00  0.00    +0.000 A 
ATOM     12  N   UNL     1       4.092   4.287  17.400  0.00  0.00    +0.000 NA
ATOM     13  C   UNL     1       3.442   3.455  18.261  0.00  0.00    +0.000 A 
ATOM     14  C   UNL     1       2.553   3.865  19.263  0.00  0.00    +0.000 A 
ATOM     15  C   UNL     1       2.560   7.439  18.695  0.00  0.00    +0.000 C 
ATOM     16  O   UNL     1       3.009   8.364  18.040  0.00  0.00    +0.000 OA
BRANCH  14  17
ATOM     17  C   UNL     1       1.902   2.833  20.135  0.00  0.00    +0.000 C 
ATOM     18  C   UNL     1       2.515   2.789  21.524  0.00  0.00    +0.000 C 
ATOM     19  F   UNL     1       0.562   3.051  20.273  0.00  0.00    +0.000 F 
ATOM     20  F   UNL     1       2.008   1.581  19.600  0.00  0.00    +0.000 F 
ENDBRANCH  14  17
ENDBRANCH   5   7
BRANCH   1  21
ATOM     21  C   UNL     1      -1.406  11.476  19.422  0.00  0.00    +0.000 C 
ATOM     22  C   UNL     1      -1.796  12.862  20.057  0.00  0.00    +0.000 C 
ATOM     23  C   UNL     1      -0.758  13.552  19.163  0.00  0.00    +0.000 C 
ATOM     24  C   UNL     1      -0.769  12.325  18.247  0.00  0.00    +0.000 C 
BRANCH  21  25
ATOM     25  C   UNL     1      -2.589  10.624  18.919  0.00  0.00    +0.000 C 
BRANCH  25  31
ATOM     26  C   UNL     1      -4.940  11.977  17.252  0.00  0.00    +0.000 C 
ATOM     27  N   UNL     1      -3.845  11.188  16.753  0.00  0.00    +0.000 N 
ATOM     28  C   UNL     1      -3.685  10.821  15.451  0.00  0.00    +0.000 A 
ATOM     29  N   UNL     1      -2.595  10.105  15.326  0.00  0.00    +0.000 NA
ATOM     30  N   UNL     1      -2.035   9.985  16.573  0.00  0.00    +0.000 NA
ATOM     31  C   UNL     1      -2.796  10.628  17.441  0.00  0.00    +0.000 A 
ENDBRANCH  25  31
ENDBRANCH  21  25
ENDBRANCH   1  21
TORSDOF 5
ENDMDL
MODEL 9
REMARK VINA RESULT:      -9.1      3.423      9.190
REMARK  Name = 
REMARK  7 active torsions:
REMARK  status: ('A' for Active; 'I' for Inactive)
REMARK    1  A    between atoms: C_1  and  N_2
REMARK    2  A    between atoms: C_6  and  C_7
REMARK    3  A    between atoms: C_7  and  C_8
REMARK    4  A    between atoms: C_8  and  C_9
REMARK    5  A    between atoms: C_13  and  N_14
REMARK    6  A    between atoms: C_21  and  C_22
REMARK    7  A    between atoms: C_22  and  C_23
REMARK                            x       y       z     vdW  Elec       q    Type
REMARK                         _______ _______ _______ _____ _____    ______ ____
ROOT
ATOM      1  C   UNL     1       0.372  10.301  19.971  0.00  0.00    +0.000 A 
ATOM      2  C   UNL     1      -0.025  10.072  21.305  0.00  0.00    +0.000 A 
ATOM      3  C   UNL     1       0.375   8.942  22.007  0.00  0.00    +0.000 A 
ATOM      4  C   UNL     1       1.169   7.993  21.376  0.00  0.00    +0.000 A 
ATOM      5  C   UNL     1       1.597   8.164  20.054  0.00  0.00    +0.000 A 
ATOM      6  C   UNL     1       1.248   9.350  19.395  0.00  0.00    +0.000 A 
ENDROOT
BRANCH   5   7
ATOM      7  N   UNL     1       2.297   7.124  19.395  0.00  0.00    +0.000 N 
ATOM      8  C   UNL     1       3.185   7.306  18.246  0.00  0.00    +0.000 C 
ATOM      9  C   UNL     1       3.587   5.902  17.900  0.00  0.00    +0.000 A 
ATOM     10  C   UNL     1       2.904   5.025  18.732  0.00  0.00    +0.000 A 
ATOM     11  C   UNL     1       3.024   3.665  18.614  0.00  0.00    +0.000 A 
ATOM     12  N   UNL     1       3.841   3.122  17.688  0.00  0.00    +0.000 NA
ATOM     13  C   UNL     1       4.542   3.982  16.898  0.00  0.00    +0.000 A 
ATOM     14  C   UNL     1       4.457   5.379  16.951  0.00  0.00    +0.000 A 
ATOM     15  C   UNL     1       2.100   5.768  19.670  0.00  0.00    +0.000 C 
ATOM     16  O   UNL     1       1.387   5.209  20.486  0.00  0.00    +0.000 OA
BRANCH  14  17
ATOM     17  C   UNL     1       5.298   6.203  16.022  0.00  0.00    +0.000 C 
ATOM     18  C   UNL     1       6.037   5.345  15.008  0.00  0.00    +0.000 C 
ATOM     19  F   UNL     1       4.555   7.119  15.335  0.00  0.00    +0.000 F 
ATOM     20  F   UNL     1       6.231   6.933  16.699  0.00  0.00    +0.000 F 
ENDBRANCH  14  17
ENDBRANCH   5   7
BRANCH   1  21
ATOM     21  C   UNL     1      -0.219  11.555  19.143  0.00  0.00    +0.000 C 
ATOM     22  C   UNL     1      -1.118  11.240  17.891  0.00  0.00    +0.000 C 
ATOM     23  C   UNL     1      -2.371  11.427  18.756  0.00  0.00    +0.000 C 
ATOM     24  C   UNL     1      -1.523  12.197  19.773  0.00  0.00    +0.000 C 
BRANCH  21  25
ATOM     25  C   UNL     1       0.876  12.619  18.920  0.00  0.00    +0.000 C 
BRANCH  25  31
ATOM     26  C   UNL     1       0.081  15.689  19.199  0.00  0.00    +0.000 C 
ATOM     27  N   UNL     1       0.796  14.873  20.143  0.00  0.00    +0.000 N 
ATOM     28  C   UNL     1       1.330  15.328  21.312  0.00  0.00    +0.000 A 
ATOM     29  N   UNL     1       1.919  14.341  21.941  0.00  0.00    +0.000 NA
ATOM     30  N   UNL     1       1.783  13.218  21.164  0.00  0.00    +0.000 NA
ATOM     31  C   UNL     1       1.116  13.539  20.070  0.00  0.00    +0.000 A 
ENDBRANCH  25  31
ENDBRANCH  21  25
ENDBRANCH   1  21
TORSDOF 5
ENDMDL
