MODEL 1
REMARK VINA RESULT:      -7.6      0.000      0.000
REMARK  Name = 
REMARK  7 active torsions:
REMARK  status: ('A' for Active; 'I' for Inactive)
REMARK    1  A    between atoms: C_1  and  S_2
REMARK    2  A    between atoms: S_2  and  C_3
REMARK    3  A    between atoms: C_3  and  C_4
REMARK    4  A    between atoms: C_4  and  C_5
REMARK    5  A    between atoms: C_5  and  C_6
REMARK    6  A    between atoms: C_5  and  N_19
REMARK    7  A    between atoms: N_8  and  C_9
REMARK                            x       y       z     vdW  Elec       q    Type
REMARK                         _______ _______ _______ _____ _____    ______ ____
ROOT
ATOM      1  C   UNL     1       1.644   9.135  19.482  0.00  0.00    +0.000 C 
ENDROOT
BRANCH   1   2
ATOM      2  N   UNL     1       1.146   9.936  18.345  0.00  0.00    +0.000 N 
ATOM      3  C   UNL     1      -0.099  10.495  18.560  0.00  0.00    +0.000 C 
ATOM      4  O   UNL     1      -1.144  10.156  18.031  0.00  0.00    +0.000 OA
ATOM      5  C   UNL     1       0.079  11.672  19.509  0.00  0.00    +0.000 C 
ATOM      6  C   UNL     1      -1.026  12.724  19.562  0.00  0.00    +0.000 C 
ATOM      7  C   UNL     1      -0.594  14.190  19.459  0.00  0.00    +0.000 C 
ATOM      8  C   UNL     1       0.897  14.424  19.649  0.00  0.00    +0.000 C 
ATOM      9  C   UNL     1       1.666  13.533  18.688  0.00  0.00    +0.000 C 
ATOM     10  C   UNL     1       1.500  12.105  19.149  0.00  0.00    +0.000 C 
ATOM     11  C   UNL     1       1.919  11.057  18.141  0.00  0.00    +0.000 C 
ATOM     12  O   UNL     1       2.780  11.204  17.291  0.00  0.00    +0.000 OA
ENDBRANCH   1   2
BRANCH   1  13
ATOM     13  C   UNL     1       2.251   7.787  19.047  0.00  0.00    +0.000 C 
ATOM     14  O   UNL     1       2.948   7.667  18.040  0.00  0.00    +0.000 OA
ATOM     15  N   UNL     1       1.865   6.727  19.855  0.00  0.00    +0.000 N 
ATOM     16  H   UNL     1       1.355   6.926  20.710  0.00  0.00    +0.000 HD
BRANCH  15  17
ATOM     17  C   UNL     1       2.145   5.313  19.585  0.00  0.00    +0.000 C 
ATOM     18  C   UNL     1       3.633   4.968  19.824  0.00  0.00    +0.000 C 
ATOM     19  C   UNL     1       3.891   3.471  19.580  0.00  0.00    +0.000 C 
ATOM     20  C   UNL     1       3.031   2.646  20.550  0.00  0.00    +0.000 C 
ATOM     21  C   UNL     1       1.543   2.941  20.312  0.00  0.00    +0.000 C 
ATOM     22  C   UNL     1       1.178   2.583  18.862  0.00  0.00    +0.000 C 
ATOM     23  C   UNL     1       2.021   3.421  17.889  0.00  0.00    +0.000 C 
ATOM     24  C   UNL     1       3.509   3.121  18.132  0.00  0.00    +0.000 C 
ATOM     25  C   UNL     1       1.757   4.919  18.136  0.00  0.00    +0.000 C 
ATOM     26  C   UNL     1       1.284   4.439  20.544  0.00  0.00    +0.000 C 
ENDBRANCH  15  17
ENDBRANCH   1  13
BRANCH   1  27
ATOM     27  C   UNL     1       0.587   8.856  20.571  0.00  0.00    +0.000 C 
BRANCH  27  28
ATOM     28  C   UNL     1       0.966   9.435  21.945  0.00  0.00    +0.000 C 
BRANCH  28  30
ATOM     29  C   UNL     1      -0.963  11.142  22.948  0.00  0.00    +0.000 C 
ATOM     30  S   UNL     1      -0.448   9.412  23.105  0.00  0.00    +0.000 S 
ENDBRANCH  28  30
ENDBRANCH  27  28
ENDBRANCH   1  27
TORSDOF 6
ENDMDL
MODEL 2
REMARK VINA RESULT:      -7.6      0.108      1.392
REMARK  Name = 
REMARK  7 active torsions:
REMARK  status: ('A' for Active; 'I' for Inactive)
REMARK    1  A    between atoms: C_1  and  S_2
REMARK    2  A    between atoms: S_2  and  C_3
REMARK    3  A    between atoms: C_3  and  C_4
REMARK    4  A    between atoms: C_4  and  C_5
REMARK    5  A    between atoms: C_5  and  C_6
REMARK    6  A    between atoms: C_5  and  N_19
REMARK    7  A    between atoms: N_8  and  C_9
REMARK                            x       y       z     vdW  Elec       q    Type
REMARK                         _______ _______ _______ _____ _____    ______ ____
ROOT
ATOM      1  C   UNL     1       1.607   9.120  19.561  0.00  0.00    +0.000 C 
ENDROOT
BRANCH   1   2
ATOM      2  N   UNL     1       1.077   9.889  18.416  0.00  0.00    +0.000 N 
ATOM      3  C   UNL     1      -0.145  10.487  18.663  0.00  0.00    +0.000 C 
ATOM      4  O   UNL     1      -1.219  10.153  18.194  0.00  0.00    +0.000 OA
ATOM      5  C   UNL     1       0.103  11.695  19.555  0.00  0.00    +0.000 C 
ATOM      6  C   UNL     1      -0.975  12.775  19.615  0.00  0.00    +0.000 C 
ATOM      7  C   UNL     1      -0.513  14.225  19.435  0.00  0.00    +0.000 C 
ATOM      8  C   UNL     1       0.989  14.429  19.549  0.00  0.00    +0.000 C 
ATOM      9  C   UNL     1       1.694  13.483  18.592  0.00  0.00    +0.000 C 
ATOM     10  C   UNL     1       1.515  12.078  19.117  0.00  0.00    +0.000 C 
ATOM     11  C   UNL     1       1.866  10.982  18.134  0.00  0.00    +0.000 C 
ATOM     12  O   UNL     1       2.691  11.075  17.242  0.00  0.00    +0.000 OA
ENDBRANCH   1   2
BRANCH   1  13
ATOM     13  C   UNL     1       2.241   7.780  19.143  0.00  0.00    +0.000 C 
ATOM     14  O   UNL     1       2.985   7.673  18.169  0.00  0.00    +0.000 OA
ATOM     15  N   UNL     1       1.822   6.710  19.922  0.00  0.00    +0.000 N 
ATOM     16  H   UNL     1       1.271   6.899  20.754  0.00  0.00    +0.000 HD
BRANCH  15  17
ATOM     17  C   UNL     1       2.123   5.300  19.653  0.00  0.00    +0.000 C 
ATOM     18  C   UNL     1       1.326   4.357  20.584  0.00  0.00    +0.000 C 
ATOM     19  C   UNL     1       1.622   2.885  20.250  0.00  0.00    +0.000 C 
ATOM     20  C   UNL     1       1.212   2.605  18.795  0.00  0.00    +0.000 C 
ATOM     21  C   UNL     1       2.014   3.503  17.842  0.00  0.00    +0.000 C 
ATOM     22  C   UNL     1       3.515   3.224  18.021  0.00  0.00    +0.000 C 
ATOM     23  C   UNL     1       3.933   3.523  19.469  0.00  0.00    +0.000 C 
ATOM     24  C   UNL     1       3.128   2.620  20.418  0.00  0.00    +0.000 C 
ATOM     25  C   UNL     1       3.638   4.999  19.797  0.00  0.00    +0.000 C 
ATOM     26  C   UNL     1       1.730   4.976  18.182  0.00  0.00    +0.000 C 
ENDBRANCH  15  17
ENDBRANCH   1  13
BRANCH   1  27
ATOM     27  C   UNL     1       0.569   8.836  20.667  0.00  0.00    +0.000 C 
BRANCH  27  28
ATOM     28  C   UNL     1       0.975   9.403  22.038  0.00  0.00    +0.000 C 
BRANCH  28  30
ATOM     29  C   UNL     1      -0.999  11.113  22.943  0.00  0.00    +0.000 C 
ATOM     30  S   UNL     1      -0.429   9.414  23.211  0.00  0.00    +0.000 S 
ENDBRANCH  28  30
ENDBRANCH  27  28
ENDBRANCH   1  27
TORSDOF 6
ENDMDL
MODEL 3
REMARK VINA RESULT:      -7.5      0.120      1.411
REMARK  Name = 
REMARK  7 active torsions:
REMARK  status: ('A' for Active; 'I' for Inactive)
REMARK    1  A    between atoms: C_1  and  S_2
REMARK    2  A    between atoms: S_2  and  C_3
REMARK    3  A    between atoms: C_3  and  C_4
REMARK    4  A    between atoms: C_4  and  C_5
REMARK    5  A    between atoms: C_5  and  C_6
REMARK    6  A    between atoms: C_5  and  N_19
REMARK    7  A    between atoms: N_8  and  C_9
REMARK                            x       y       z     vdW  Elec       q    Type
REMARK                         _______ _______ _______ _____ _____    ______ ____
ROOT
ATOM      1  C   UNL     1       1.615   9.087  19.557  0.00  0.00    +0.000 C 
ENDROOT
BRANCH   1   2
ATOM      2  N   UNL     1       1.078   9.855  18.415  0.00  0.00    +0.000 N 
ATOM      3  C   UNL     1      -0.142  10.452  18.668  0.00  0.00    +0.000 C 
ATOM      4  O   UNL     1      -1.219  10.118  18.206  0.00  0.00    +0.000 OA
ATOM      5  C   UNL     1       0.110  11.661  19.558  0.00  0.00    +0.000 C 
ATOM      6  C   UNL     1      -0.967  12.741  19.624  0.00  0.00    +0.000 C 
ATOM      7  C   UNL     1      -0.507  14.191  19.440  0.00  0.00    +0.000 C 
ATOM      8  C   UNL     1       0.996  14.395  19.546  0.00  0.00    +0.000 C 
ATOM      9  C   UNL     1       1.695  13.449  18.585  0.00  0.00    +0.000 C 
ATOM     10  C   UNL     1       1.521  12.044  19.111  0.00  0.00    +0.000 C 
ATOM     11  C   UNL     1       1.865  10.948  18.127  0.00  0.00    +0.000 C 
ATOM     12  O   UNL     1       2.685  11.040  17.230  0.00  0.00    +0.000 OA
ENDBRANCH   1   2
BRANCH   1  13
ATOM     13  C   UNL     1       2.240   7.742  19.137  0.00  0.00    +0.000 C 
ATOM     14  O   UNL     1       3.006   7.636  18.180  0.00  0.00    +0.000 OA
ATOM     15  N   UNL     1       1.787   6.669  19.892  0.00  0.00    +0.000 N 
ATOM     16  H   UNL     1       1.218   6.856  20.712  0.00  0.00    +0.000 HD
BRANCH  15  17
ATOM     17  C   UNL     1       2.073   5.259  19.611  0.00  0.00    +0.000 C 
ATOM     18  C   UNL     1       1.723   4.883  18.152  0.00  0.00    +0.000 C 
ATOM     19  C   UNL     1       2.076   3.412  17.869  0.00  0.00    +0.000 C 
ATOM     20  C   UNL     1       3.583   3.205  18.084  0.00  0.00    +0.000 C 
ATOM     21  C   UNL     1       3.956   3.536  19.537  0.00  0.00    +0.000 C 
ATOM     22  C   UNL     1       3.165   2.622  20.487  0.00  0.00    +0.000 C 
ATOM     23  C   UNL     1       1.658   2.842  20.290  0.00  0.00    +0.000 C 
ATOM     24  C   UNL     1       1.291   2.508  18.835  0.00  0.00    +0.000 C 
ATOM     25  C   UNL     1       1.309   4.316  20.577  0.00  0.00    +0.000 C 
ATOM     26  C   UNL     1       3.593   5.002  19.827  0.00  0.00    +0.000 C 
ENDBRANCH  15  17
ENDBRANCH   1  13
BRANCH   1  27
ATOM     27  C   UNL     1       0.586   8.810  20.673  0.00  0.00    +0.000 C 
BRANCH  27  28
ATOM     28  C   UNL     1       1.012   9.370  22.041  0.00  0.00    +0.000 C 
BRANCH  28  30
ATOM     29  C   UNL     1      -0.952  11.096  22.938  0.00  0.00    +0.000 C 
ATOM     30  S   UNL     1      -0.381   9.400  23.226  0.00  0.00    +0.000 S 
ENDBRANCH  28  30
ENDBRANCH  27  28
ENDBRANCH   1  27
TORSDOF 6
ENDMDL
MODEL 4
REMARK VINA RESULT:      -7.5      1.449      2.373
REMARK  Name = 
REMARK  7 active torsions:
REMARK  status: ('A' for Active; 'I' for Inactive)
REMARK    1  A    between atoms: C_1  and  S_2
REMARK    2  A    between atoms: S_2  and  C_3
REMARK    3  A    between atoms: C_3  and  C_4
REMARK    4  A    between atoms: C_4  and  C_5
REMARK    5  A    between atoms: C_5  and  C_6
REMARK    6  A    between atoms: C_5  and  N_19
REMARK    7  A    between atoms: N_8  and  C_9
REMARK                            x       y       z     vdW  Elec       q    Type
REMARK                         _______ _______ _______ _____ _____    ______ ____
ROOT
ATOM      1  C   UNL     1       1.367   8.904  19.907  0.00  0.00    +0.000 C 
ENDROOT
BRANCH   1   2
ATOM      2  N   UNL     1       0.949   9.487  18.615  0.00  0.00    +0.000 N 
ATOM      3  C   UNL     1      -0.175  10.286  18.701  0.00  0.00    +0.000 C 
ATOM      4  O   UNL     1      -1.287  10.015  18.281  0.00  0.00    +0.000 OA
ATOM      5  C   UNL     1       0.242  11.605  19.335  0.00  0.00    +0.000 C 
ATOM      6  C   UNL     1      -0.672  12.814  19.143  0.00  0.00    +0.000 C 
ATOM      7  C   UNL     1      -0.011  14.117  18.684  0.00  0.00    +0.000 C 
ATOM      8  C   UNL     1       1.505  14.130  18.796  0.00  0.00    +0.000 C 
ATOM      9  C   UNL     1       2.068  12.919  18.072  0.00  0.00    +0.000 C 
ATOM     10  C   UNL     1       1.694  11.691  18.867  0.00  0.00    +0.000 C 
ATOM     11  C   UNL     1       1.884  10.379  18.138  0.00  0.00    +0.000 C 
ATOM     12  O   UNL     1       2.712  10.170  17.269  0.00  0.00    +0.000 OA
ENDBRANCH   1   2
BRANCH   1  13
ATOM     13  C   UNL     1       1.916   7.471  19.770  0.00  0.00    +0.000 C 
ATOM     14  O   UNL     1       1.763   6.616  20.641  0.00  0.00    +0.000 OA
ATOM     15  N   UNL     1       2.660   7.279  18.614  0.00  0.00    +0.000 N 
ATOM     16  H   UNL     1       2.669   8.012  17.912  0.00  0.00    +0.000 HD
BRANCH  15  17
ATOM     17  C   UNL     1       3.442   6.078  18.304  0.00  0.00    +0.000 C 
ATOM     18  C   UNL     1       2.545   4.926  17.793  0.00  0.00    +0.000 C 
ATOM     19  C   UNL     1       3.394   3.695  17.430  0.00  0.00    +0.000 C 
ATOM     20  C   UNL     1       4.387   4.076  16.321  0.00  0.00    +0.000 C 
ATOM     21  C   UNL     1       5.317   5.195  16.812  0.00  0.00    +0.000 C 
ATOM     22  C   UNL     1       6.085   4.712  18.052  0.00  0.00    +0.000 C 
ATOM     23  C   UNL     1       5.096   4.350  19.171  0.00  0.00    +0.000 C 
ATOM     24  C   UNL     1       4.169   3.229  18.675  0.00  0.00    +0.000 C 
ATOM     25  C   UNL     1       4.251   5.587  19.533  0.00  0.00    +0.000 C 
ATOM     26  C   UNL     1       4.471   6.424  17.187  0.00  0.00    +0.000 C 
ENDBRANCH  15  17
ENDBRANCH   1  13
BRANCH   1  27
ATOM     27  C   UNL     1       0.262   8.894  20.984  0.00  0.00    +0.000 C 
BRANCH  27  28
ATOM     28  C   UNL     1       0.700   9.543  22.307  0.00  0.00    +0.000 C 
BRANCH  28  30
ATOM     29  C   UNL     1      -1.171  11.556  22.609  0.00  0.00    +0.000 C 
ATOM     30  S   UNL     1      -0.733   9.968  23.363  0.00  0.00    +0.000 S 
ENDBRANCH  28  30
ENDBRANCH  27  28
ENDBRANCH   1  27
TORSDOF 6
ENDMDL
MODEL 5
REMARK VINA RESULT:      -7.5      2.186      3.780
REMARK  Name = 
REMARK  7 active torsions:
REMARK  status: ('A' for Active; 'I' for Inactive)
REMARK    1  A    between atoms: C_1  and  S_2
REMARK    2  A    between atoms: S_2  and  C_3
REMARK    3  A    between atoms: C_3  and  C_4
REMARK    4  A    between atoms: C_4  and  C_5
REMARK    5  A    between atoms: C_5  and  C_6
REMARK    6  A    between atoms: C_5  and  N_19
REMARK    7  A    between atoms: N_8  and  C_9
REMARK                            x       y       z     vdW  Elec       q    Type
REMARK                         _______ _______ _______ _____ _____    ______ ____
ROOT
ATOM      1  C   UNL     1       0.831   9.435  19.132  0.00  0.00    +0.000 C 
ENDROOT
BRANCH   1   2
ATOM      2  N   UNL     1       1.417  10.200  20.251  0.00  0.00    +0.000 N 
ATOM      3  C   UNL     1       1.022  11.524  20.290  0.00  0.00    +0.000 C 
ATOM      4  O   UNL     1       1.715  12.492  20.025  0.00  0.00    +0.000 OA
ATOM      5  C   UNL     1      -0.407  11.565  20.811  0.00  0.00    +0.000 C 
ATOM      6  C   UNL     1      -0.928  12.886  21.372  0.00  0.00    +0.000 C 
ATOM      7  C   UNL     1      -1.626  12.833  22.735  0.00  0.00    +0.000 C 
ATOM      8  C   UNL     1      -2.001  11.435  23.199  0.00  0.00    +0.000 C 
ATOM      9  C   UNL     1      -0.768  10.548  23.154  0.00  0.00    +0.000 C 
ATOM     10  C   UNL     1      -0.413  10.325  21.704  0.00  0.00    +0.000 C 
ATOM     11  C   UNL     1       0.963   9.742  21.468  0.00  0.00    +0.000 C 
ATOM     12  O   UNL     1       1.560   9.012  22.240  0.00  0.00    +0.000 OA
ENDBRANCH   1   2
BRANCH   1  13
ATOM     13  C   UNL     1       1.827   8.449  18.491  0.00  0.00    +0.000 C 
ATOM     14  O   UNL     1       2.282   8.606  17.359  0.00  0.00    +0.000 OA
ATOM     15  N   UNL     1       2.085   7.340  19.285  0.00  0.00    +0.000 N 
ATOM     16  H   UNL     1       1.732   7.329  20.237  0.00  0.00    +0.000 HD
BRANCH  15  17
ATOM     17  C   UNL     1       2.851   6.162  18.867  0.00  0.00    +0.000 C 
ATOM     18  C   UNL     1       2.058   5.289  17.867  0.00  0.00    +0.000 C 
ATOM     19  C   UNL     1       2.901   4.086  17.407  0.00  0.00    +0.000 C 
ATOM     20  C   UNL     1       4.175   4.597  16.715  0.00  0.00    +0.000 C 
ATOM     21  C   UNL     1       5.002   5.439  17.696  0.00  0.00    +0.000 C 
ATOM     22  C   UNL     1       5.382   4.579  18.912  0.00  0.00    +0.000 C 
ATOM     23  C   UNL     1       4.111   4.084  19.620  0.00  0.00    +0.000 C 
ATOM     24  C   UNL     1       3.288   3.240  18.633  0.00  0.00    +0.000 C 
ATOM     25  C   UNL     1       3.273   5.292  20.080  0.00  0.00    +0.000 C 
ATOM     26  C   UNL     1       4.159   6.636  18.167  0.00  0.00    +0.000 C 
ENDBRANCH  15  17
ENDBRANCH   1  13
BRANCH   1  27
ATOM     27  C   UNL     1       0.235  10.311  18.010  0.00  0.00    +0.000 C 
BRANCH  27  28
ATOM     28  C   UNL     1      -1.192   9.896  17.612  0.00  0.00    +0.000 C 
BRANCH  28  30
ATOM     29  C   UNL     1      -2.916  10.967  15.735  0.00  0.00    +0.000 C 
ATOM     30  S   UNL     1      -2.284  11.347  17.390  0.00  0.00    +0.000 S 
ENDBRANCH  28  30
ENDBRANCH  27  28
ENDBRANCH   1  27
TORSDOF 6
ENDMDL
MODEL 6
REMARK VINA RESULT:      -7.5      1.412      1.844
REMARK  Name = 
REMARK  7 active torsions:
REMARK  status: ('A' for Active; 'I' for Inactive)
REMARK    1  A    between atoms: C_1  and  S_2
REMARK    2  A    between atoms: S_2  and  C_3
REMARK    3  A    between atoms: C_3  and  C_4
REMARK    4  A    between atoms: C_4  and  C_5
REMARK    5  A    between atoms: C_5  and  C_6
REMARK    6  A    between atoms: C_5  and  N_19
REMARK    7  A    between atoms: N_8  and  C_9
REMARK                            x       y       z     vdW  Elec       q    Type
REMARK                         _______ _______ _______ _____ _____    ______ ____
ROOT
ATOM      1  C   UNL     1       1.165   9.029  20.029  0.00  0.00    +0.000 C 
ENDROOT
BRANCH   1   2
ATOM      2  N   UNL     1       0.772   9.591  18.721  0.00  0.00    +0.000 N 
ATOM      3  C   UNL     1      -0.321  10.434  18.782  0.00  0.00    +0.000 C 
ATOM      4  O   UNL     1      -1.442  10.195  18.367  0.00  0.00    +0.000 OA
ATOM      5  C   UNL     1       0.146  11.754  19.379  0.00  0.00    +0.000 C 
ATOM      6  C   UNL     1      -0.720  12.991  19.151  0.00  0.00    +0.000 C 
ATOM      7  C   UNL     1      -0.009  14.255  18.657  0.00  0.00    +0.000 C 
ATOM      8  C   UNL     1       1.507  14.212  18.772  0.00  0.00    +0.000 C 
ATOM      9  C   UNL     1       2.023  12.960  18.083  0.00  0.00    +0.000 C 
ATOM     10  C   UNL     1       1.601  11.770  18.912  0.00  0.00    +0.000 C 
ATOM     11  C   UNL     1       1.741  10.431  18.221  0.00  0.00    +0.000 C 
ATOM     12  O   UNL     1       2.561  10.167  17.359  0.00  0.00    +0.000 OA
ENDBRANCH   1   2
BRANCH   1  13
ATOM     13  C   UNL     1       1.743   7.604  19.923  0.00  0.00    +0.000 C 
ATOM     14  O   UNL     1       1.659   6.784  20.836  0.00  0.00    +0.000 OA
ATOM     15  N   UNL     1       2.428   7.379  18.737  0.00  0.00    +0.000 N 
ATOM     16  H   UNL     1       2.380   8.081  18.005  0.00  0.00    +0.000 HD
BRANCH  15  17
ATOM     17  C   UNL     1       3.222   6.184  18.434  0.00  0.00    +0.000 C 
ATOM     18  C   UNL     1       3.935   5.637  19.693  0.00  0.00    +0.000 C 
ATOM     19  C   UNL     1       4.723   4.358  19.359  0.00  0.00    +0.000 C 
ATOM     20  C   UNL     1       3.751   3.288  18.838  0.00  0.00    +0.000 C 
ATOM     21  C   UNL     1       3.053   3.790  17.565  0.00  0.00    +0.000 C 
ATOM     22  C   UNL     1       4.110   4.098  16.492  0.00  0.00    +0.000 C 
ATOM     23  C   UNL     1       5.071   5.183  17.001  0.00  0.00    +0.000 C 
ATOM     24  C   UNL     1       5.767   4.675  18.274  0.00  0.00    +0.000 C 
ATOM     25  C   UNL     1       4.277   6.462  17.331  0.00  0.00    +0.000 C 
ATOM     26  C   UNL     1       2.274   5.075  17.892  0.00  0.00    +0.000 C 
ENDBRANCH  15  17
ENDBRANCH   1  13
BRANCH   1  27
ATOM     27  C   UNL     1       0.032   9.011  21.077  0.00  0.00    +0.000 C 
BRANCH  27  28
ATOM     28  C   UNL     1       0.370   9.809  22.347  0.00  0.00    +0.000 C 
BRANCH  28  30
ATOM     29  C   UNL     1      -0.875  12.244  22.749  0.00  0.00    +0.000 C 
ATOM     30  S   UNL     1      -1.131  10.493  23.139  0.00  0.00    +0.000 S 
ENDBRANCH  28  30
ENDBRANCH  27  28
ENDBRANCH   1  27
TORSDOF 6
ENDMDL
MODEL 7
REMARK VINA RESULT:      -7.4      2.658      8.196
REMARK  Name = 
REMARK  7 active torsions:
REMARK  status: ('A' for Active; 'I' for Inactive)
REMARK    1  A    between atoms: C_1  and  S_2
REMARK    2  A    between atoms: S_2  and  C_3
REMARK    3  A    between atoms: C_3  and  C_4
REMARK    4  A    between atoms: C_4  and  C_5
REMARK    5  A    between atoms: C_5  and  C_6
REMARK    6  A    between atoms: C_5  and  N_19
REMARK    7  A    between atoms: N_8  and  C_9
REMARK                            x       y       z     vdW  Elec       q    Type
REMARK                         _______ _______ _______ _____ _____    ______ ____
ROOT
ATOM      1  C   UNL     1       2.905   6.849  18.439  0.00  0.00    +0.000 C 
ENDROOT
BRANCH   1   2
ATOM      2  N   UNL     1       1.965   5.769  18.804  0.00  0.00    +0.000 N 
ATOM      3  C   UNL     1       1.959   4.710  17.916  0.00  0.00    +0.000 C 
ATOM      4  O   UNL     1       1.069   4.432  17.131  0.00  0.00    +0.000 OA
ATOM      5  C   UNL     1       3.223   3.898  18.156  0.00  0.00    +0.000 C 
ATOM      6  C   UNL     1       3.259   2.459  17.646  0.00  0.00    +0.000 C 
ATOM      7  C   UNL     1       3.730   1.385  18.633  0.00  0.00    +0.000 C 
ATOM      8  C   UNL     1       4.411   1.927  19.879  0.00  0.00    +0.000 C 
ATOM      9  C   UNL     1       3.501   2.949  20.539  0.00  0.00    +0.000 C 
ATOM     10  C   UNL     1       3.445   4.164  19.645  0.00  0.00    +0.000 C 
ATOM     11  C   UNL     1       2.342   5.146  19.973  0.00  0.00    +0.000 C 
ATOM     12  O   UNL     1       1.868   5.327  21.081  0.00  0.00    +0.000 OA
ENDBRANCH   1   2
BRANCH   1  13
ATOM     13  C   UNL     1       2.210   8.210  18.242  0.00  0.00    +0.000 C 
ATOM     14  O   UNL     1       2.316   8.866  17.207  0.00  0.00    +0.000 OA
ATOM     15  N   UNL     1       1.532   8.646  19.372  0.00  0.00    +0.000 N 
ATOM     16  H   UNL     1       1.428   8.008  20.155  0.00  0.00    +0.000 HD
BRANCH  15  17
ATOM     17  C   UNL     1       0.927   9.972  19.535  0.00  0.00    +0.000 C 
ATOM     18  C   UNL     1      -0.483  10.039  18.904  0.00  0.00    +0.000 C 
ATOM     19  C   UNL     1      -1.115  11.424  19.130  0.00  0.00    +0.000 C 
ATOM     20  C   UNL     1      -1.236  11.684  20.639  0.00  0.00    +0.000 C 
ATOM     21  C   UNL     1       0.156  11.659  21.289  0.00  0.00    +0.000 C 
ATOM     22  C   UNL     1       1.038  12.741  20.645  0.00  0.00    +0.000 C 
ATOM     23  C   UNL     1       1.179  12.472  19.139  0.00  0.00    +0.000 C 
ATOM     24  C   UNL     1      -0.216  12.500  18.494  0.00  0.00    +0.000 C 
ATOM     25  C   UNL     1       1.814  11.086  18.919  0.00  0.00    +0.000 C 
ATOM     26  C   UNL     1       0.795  10.280  21.055  0.00  0.00    +0.000 C 
ENDBRANCH  15  17
ENDBRANCH   1  13
BRANCH   1  27
ATOM     27  C   UNL     1       3.749   6.554  17.181  0.00  0.00    +0.000 C 
BRANCH  27  28
ATOM     28  C   UNL     1       5.260   6.716  17.415  0.00  0.00    +0.000 C 
BRANCH  28  30
ATOM     29  C   UNL     1       7.199   4.765  17.697  0.00  0.00    +0.000 C 
ATOM     30  S   UNL     1       6.235   5.560  16.384  0.00  0.00    +0.000 S 
ENDBRANCH  28  30
ENDBRANCH  27  28
ENDBRANCH   1  27
TORSDOF 6
ENDMDL
MODEL 8
REMARK VINA RESULT:      -7.4      2.117      3.454
REMARK  Name = 
REMARK  7 active torsions:
REMARK  status: ('A' for Active; 'I' for Inactive)
REMARK    1  A    between atoms: C_1  and  S_2
REMARK    2  A    between atoms: S_2  and  C_3
REMARK    3  A    between atoms: C_3  and  C_4
REMARK    4  A    between atoms: C_4  and  C_5
REMARK    5  A    between atoms: C_5  and  C_6
REMARK    6  A    between atoms: C_5  and  N_19
REMARK    7  A    between atoms: N_8  and  C_9
REMARK                            x       y       z     vdW  Elec       q    Type
REMARK                         _______ _______ _______ _____ _____    ______ ____
ROOT
ATOM      1  C   UNL     1       0.832   9.396  19.208  0.00  0.00    +0.000 C 
ENDROOT
BRANCH   1   2
ATOM      2  N   UNL     1       1.416  10.139  20.343  0.00  0.00    +0.000 N 
ATOM      3  C   UNL     1       1.050  11.471  20.386  0.00  0.00    +0.000 C 
ATOM      4  O   UNL     1       1.767  12.426  20.141  0.00  0.00    +0.000 OA
ATOM      5  C   UNL     1      -0.387  11.540  20.884  0.00  0.00    +0.000 C 
ATOM      6  C   UNL     1      -0.888  12.867  21.448  0.00  0.00    +0.000 C 
ATOM      7  C   UNL     1      -1.609  12.819  22.799  0.00  0.00    +0.000 C 
ATOM      8  C   UNL     1      -2.022  11.426  23.245  0.00  0.00    +0.000 C 
ATOM      9  C   UNL     1      -0.808  10.513  23.213  0.00  0.00    +0.000 C 
ATOM     10  C   UNL     1      -0.434  10.293  21.767  0.00  0.00    +0.000 C 
ATOM     11  C   UNL     1       0.933   9.682  21.548  0.00  0.00    +0.000 C 
ATOM     12  O   UNL     1       1.500   8.932  22.324  0.00  0.00    +0.000 OA
ENDBRANCH   1   2
BRANCH   1  13
ATOM     13  C   UNL     1       1.809   8.380  18.587  0.00  0.00    +0.000 C 
ATOM     14  O   UNL     1       2.292   8.522  17.465  0.00  0.00    +0.000 OA
ATOM     15  N   UNL     1       2.018   7.264  19.386  0.00  0.00    +0.000 N 
ATOM     16  H   UNL     1       1.645   7.264  20.331  0.00  0.00    +0.000 HD
BRANCH  15  17
ATOM     17  C   UNL     1       2.756   6.063  18.983  0.00  0.00    +0.000 C 
ATOM     18  C   UNL     1       3.008   5.117  20.181  0.00  0.00    +0.000 C 
ATOM     19  C   UNL     1       3.742   3.844  19.723  0.00  0.00    +0.000 C 
ATOM     20  C   UNL     1       2.878   3.108  18.687  0.00  0.00    +0.000 C 
ATOM     21  C   UNL     1       2.640   4.011  17.468  0.00  0.00    +0.000 C 
ATOM     22  C   UNL     1       3.992   4.390  16.842  0.00  0.00    +0.000 C 
ATOM     23  C   UNL     1       4.850   5.144  17.869  0.00  0.00    +0.000 C 
ATOM     24  C   UNL     1       5.086   4.235  19.086  0.00  0.00    +0.000 C 
ATOM     25  C   UNL     1       4.113   6.419  18.321  0.00  0.00    +0.000 C 
ATOM     26  C   UNL     1       1.918   5.291  17.923  0.00  0.00    +0.000 C 
ENDBRANCH  15  17
ENDBRANCH   1  13
BRANCH   1  27
ATOM     27  C   UNL     1       0.290  10.294  18.076  0.00  0.00    +0.000 C 
BRANCH  27  28
ATOM     28  C   UNL     1      -1.139   9.926  17.643  0.00  0.00    +0.000 C 
BRANCH  28  30
ATOM     29  C   UNL     1      -3.832  10.549  17.695  0.00  0.00    +0.000 C 
ATOM     30  S   UNL     1      -2.232  11.393  17.589  0.00  0.00    +0.000 S 
ENDBRANCH  28  30
ENDBRANCH  27  28
ENDBRANCH   1  27
TORSDOF 6
ENDMDL
MODEL 9
REMARK VINA RESULT:      -7.4      1.409      1.852
REMARK  Name = 
REMARK  7 active torsions:
REMARK  status: ('A' for Active; 'I' for Inactive)
REMARK    1  A    between atoms: C_1  and  S_2
REMARK    2  A    between atoms: S_2  and  C_3
REMARK    3  A    between atoms: C_3  and  C_4
REMARK    4  A    between atoms: C_4  and  C_5
REMARK    5  A    between atoms: C_5  and  C_6
REMARK    6  A    between atoms: C_5  and  N_19
REMARK    7  A    between atoms: N_8  and  C_9
REMARK                            x       y       z     vdW  Elec       q    Type
REMARK                         _______ _______ _______ _____ _____    ______ ____
ROOT
ATOM      1  C   UNL     1       1.183   9.037  19.996  0.00  0.00    +0.000 C 
ENDROOT
BRANCH   1   2
ATOM      2  N   UNL     1       0.793   9.615  18.694  0.00  0.00    +0.000 N 
ATOM      3  C   UNL     1      -0.298  10.461  18.763  0.00  0.00    +0.000 C 
ATOM      4  O   UNL     1      -1.419  10.230  18.345  0.00  0.00    +0.000 OA
ATOM      5  C   UNL     1       0.173  11.773  19.375  0.00  0.00    +0.000 C 
ATOM      6  C   UNL     1      -0.690  13.015  19.161  0.00  0.00    +0.000 C 
ATOM      7  C   UNL     1       0.026  14.282  18.682  0.00  0.00    +0.000 C 
ATOM      8  C   UNL     1       1.542  14.233  18.797  0.00  0.00    +0.000 C 
ATOM      9  C   UNL     1       2.054  12.988  18.095  0.00  0.00    +0.000 C 
ATOM     10  C   UNL     1       1.628  11.790  18.909  0.00  0.00    +0.000 C 
ATOM     11  C   UNL     1       1.765  10.458  18.204  0.00  0.00    +0.000 C 
ATOM     12  O   UNL     1       2.585  10.201  17.340  0.00  0.00    +0.000 OA
ENDBRANCH   1   2
BRANCH   1  13
ATOM     13  C   UNL     1       1.743   7.606  19.875  0.00  0.00    +0.000 C 
ATOM     14  O   UNL     1       1.658   6.782  20.784  0.00  0.00    +0.000 OA
ATOM     15  N   UNL     1       2.413   7.380  18.681  0.00  0.00    +0.000 N 
ATOM     16  H   UNL     1       2.366   8.087  17.954  0.00  0.00    +0.000 HD
BRANCH  15  17
ATOM     17  C   UNL     1       3.190   6.178  18.364  0.00  0.00    +0.000 C 
ATOM     18  C   UNL     1       4.264   6.458  17.287  0.00  0.00    +0.000 C 
ATOM     19  C   UNL     1       5.097   5.195  17.007  0.00  0.00    +0.000 C 
ATOM     20  C   UNL     1       5.798   4.755  18.301  0.00  0.00    +0.000 C 
ATOM     21  C   UNL     1       4.754   4.434  19.380  0.00  0.00    +0.000 C 
ATOM     22  C   UNL     1       3.833   3.309  18.881  0.00  0.00    +0.000 C 
ATOM     23  C   UNL     1       3.114   3.753  17.598  0.00  0.00    +0.000 C 
ATOM     24  C   UNL     1       4.164   4.071  16.521  0.00  0.00    +0.000 C 
ATOM     25  C   UNL     1       2.280   5.016  17.885  0.00  0.00    +0.000 C 
ATOM     26  C   UNL     1       3.912   5.692  19.655  0.00  0.00    +0.000 C 
ENDBRANCH  15  17
ENDBRANCH   1  13
BRANCH   1  27
ATOM     27  C   UNL     1       0.054   9.024  21.047  0.00  0.00    +0.000 C 
BRANCH  27  28
ATOM     28  C   UNL     1       0.405   9.808  22.323  0.00  0.00    +0.000 C 
BRANCH  28  30
ATOM     29  C   UNL     1      -0.880  12.220  22.739  0.00  0.00    +0.000 C 
ATOM     30  S   UNL     1      -1.089  10.468  23.148  0.00  0.00    +0.000 S 
ENDBRANCH  28  30
ENDBRANCH  27  28
ENDBRANCH   1  27
TORSDOF 6
ENDMDL
