MODEL 1
REMARK VINA RESULT:      -7.9      0.000      0.000
REMARK  Name = 
REMARK  4 active torsions:
REMARK  status: ('A' for Active; 'I' for Inactive)
REMARK    1  A    between atoms: C_2  and  C_7
REMARK    2  A    between atoms: N_3  and  C_4
REMARK    3  A    between atoms: C_11  and  C_12
REMARK    4  A    between atoms: N_17  and  C_18
REMARK                            x       y       z     vdW  Elec       q    Type
REMARK                         _______ _______ _______ _____ _____    ______ ____
ROOT
ATOM      1  C   UNL     1       3.879   4.329  18.241  0.00  0.00    +0.000 C 
ATOM      2  O   UNL     1       3.536   3.223  18.655  0.00  0.00    +0.000 OA
ATOM      3  N   UNL     1       3.110   5.472  18.431  0.00  0.00    +0.000 N 
ATOM      4  C   UNL     1       3.459   6.861  18.067  0.00  0.00    +0.000 C 
ATOM      5  C   UNL     1       3.237   7.845  19.223  0.00  0.00    +0.000 C 
ATOM      6  N   UNL     1       1.895   7.676  19.789  0.00  0.00    +0.000 N 
ATOM      7  C   UNL     1       1.571   6.309  20.226  0.00  0.00    +0.000 C 
ATOM      8  C   UNL     1       1.780   5.331  19.048  0.00  0.00    +0.000 C 
ENDROOT
BRANCH   6   9
ATOM      9  C   UNL     1       1.037   8.745  19.974  0.00  0.00    +0.000 A 
ATOM     10  C   UNL     1       0.642   9.176  21.257  0.00  0.00    +0.000 A 
ATOM     11  F   UNL     1       1.130   8.572  22.354  0.00  0.00    +0.000 F 
ATOM     12  C   UNL     1      -0.209  10.265  21.461  0.00  0.00    +0.000 A 
ATOM     13  C   UNL     1      -0.701  10.976  20.374  0.00  0.00    +0.000 A 
ATOM     14  C   UNL     1      -0.339  10.585  19.090  0.00  0.00    +0.000 A 
ATOM     15  C   UNL     1       0.513   9.491  18.903  0.00  0.00    +0.000 A 
ATOM     16  F   UNL     1       0.790   9.144  17.635  0.00  0.00    +0.000 F 
ENDBRANCH   6   9
BRANCH   1  21
ATOM     17  C   UNL     1       6.593   4.497  15.588  0.00  0.00    +0.000 A 
ATOM     18  C   UNL     1       7.728   4.660  16.394  0.00  0.00    +0.000 A 
ATOM     19  C   UNL     1       7.606   4.627  17.782  0.00  0.00    +0.000 A 
ATOM     20  C   UNL     1       6.344   4.499  18.363  0.00  0.00    +0.000 A 
ATOM     21  C   UNL     1       5.197   4.408  17.560  0.00  0.00    +0.000 A 
ATOM     22  C   UNL     1       5.332   4.346  16.170  0.00  0.00    +0.000 A 
BRANCH  17  24
ATOM     23  O   UNL     1       7.358   5.330  13.521  0.00  0.00    +0.000 OA
ATOM     24  C   UNL     1       6.690   4.488  14.107  0.00  0.00    +0.000 C 
ATOM     25  N   UNL     1       5.953   3.490  13.495  0.00  0.00    +0.000 N 
ATOM     26  H   UNL     1       5.299   2.961  14.062  0.00  0.00    +0.000 HD
BRANCH  25  27
ATOM     27  C   UNL     1       5.842   3.346  12.082  0.00  0.00    +0.000 C 
ATOM     28  C   UNL     1       4.491   3.112  11.462  0.00  0.00    +0.000 C 
ATOM     29  C   UNL     1       5.501   2.004  11.492  0.00  0.00    +0.000 C 
ENDBRANCH  25  27
ENDBRANCH  17  24
ENDBRANCH   1  21
TORSDOF 4
ENDMDL
MODEL 2
REMARK VINA RESULT:      -7.8      0.049      1.562
REMARK  Name = 
REMARK  4 active torsions:
REMARK  status: ('A' for Active; 'I' for Inactive)
REMARK    1  A    between atoms: C_2  and  C_7
REMARK    2  A    between atoms: N_3  and  C_4
REMARK    3  A    between atoms: C_11  and  C_12
REMARK    4  A    between atoms: N_17  and  C_18
REMARK                            x       y       z     vdW  Elec       q    Type
REMARK                         _______ _______ _______ _____ _____    ______ ____
ROOT
ATOM      1  C   UNL     1       3.868   4.328  18.217  0.00  0.00    +0.000 C 
ATOM      2  O   UNL     1       3.511   3.217  18.610  0.00  0.00    +0.000 OA
ATOM      3  N   UNL     1       3.109   5.475  18.426  0.00  0.00    +0.000 N 
ATOM      4  C   UNL     1       3.474   6.866  18.088  0.00  0.00    +0.000 C 
ATOM      5  C   UNL     1       3.257   7.831  19.262  0.00  0.00    +0.000 C 
ATOM      6  N   UNL     1       1.911   7.665  19.818  0.00  0.00    +0.000 N 
ATOM      7  C   UNL     1       1.571   6.295  20.228  0.00  0.00    +0.000 C 
ATOM      8  C   UNL     1       1.775   5.336  19.033  0.00  0.00    +0.000 C 
ENDROOT
BRANCH   6   9
ATOM      9  C   UNL     1       1.063   8.740  20.019  0.00  0.00    +0.000 A 
ATOM     10  C   UNL     1       0.518   9.476  18.947  0.00  0.00    +0.000 A 
ATOM     11  F   UNL     1       0.782   9.121  17.678  0.00  0.00    +0.000 F 
ATOM     12  C   UNL     1      -0.354  10.551  19.133  0.00  0.00    +0.000 A 
ATOM     13  C   UNL     1      -0.721  10.935  20.417  0.00  0.00    +0.000 A 
ATOM     14  C   UNL     1      -0.206  10.238  21.504  0.00  0.00    +0.000 A 
ATOM     15  C   UNL     1       0.666   9.164  21.300  0.00  0.00    +0.000 A 
ATOM     16  F   UNL     1       1.157   8.560  22.396  0.00  0.00    +0.000 F 
ENDBRANCH   6   9
BRANCH   1  21
ATOM     17  C   UNL     1       6.598   4.482  15.581  0.00  0.00    +0.000 A 
ATOM     18  C   UNL     1       7.727   4.656  16.393  0.00  0.00    +0.000 A 
ATOM     19  C   UNL     1       7.597   4.634  17.780  0.00  0.00    +0.000 A 
ATOM     20  C   UNL     1       6.331   4.507  18.354  0.00  0.00    +0.000 A 
ATOM     21  C   UNL     1       5.190   4.405  17.544  0.00  0.00    +0.000 A 
ATOM     22  C   UNL     1       5.334   4.331  16.156  0.00  0.00    +0.000 A 
BRANCH  17  24
ATOM     23  O   UNL     1       7.427   5.258  13.516  0.00  0.00    +0.000 OA
ATOM     24  C   UNL     1       6.704   4.460  14.101  0.00  0.00    +0.000 C 
ATOM     25  N   UNL     1       5.913   3.506  13.488  0.00  0.00    +0.000 N 
ATOM     26  H   UNL     1       5.224   3.019  14.052  0.00  0.00    +0.000 HD
BRANCH  25  27
ATOM     27  C   UNL     1       5.803   3.362  12.074  0.00  0.00    +0.000 C 
ATOM     28  C   UNL     1       4.476   3.002  11.464  0.00  0.00    +0.000 C 
ATOM     29  C   UNL     1       5.589   1.998  11.476  0.00  0.00    +0.000 C 
ENDBRANCH  25  27
ENDBRANCH  17  24
ENDBRANCH   1  21
TORSDOF 4
ENDMDL
MODEL 3
REMARK VINA RESULT:      -7.7      3.707      8.695
REMARK  Name = 
REMARK  4 active torsions:
REMARK  status: ('A' for Active; 'I' for Inactive)
REMARK    1  A    between atoms: C_2  and  C_7
REMARK    2  A    between atoms: N_3  and  C_4
REMARK    3  A    between atoms: C_11  and  C_12
REMARK    4  A    between atoms: N_17  and  C_18
REMARK                            x       y       z     vdW  Elec       q    Type
REMARK                         _______ _______ _______ _____ _____    ______ ____
ROOT
ATOM      1  C   UNL     1       0.665   8.899  20.622  0.00  0.00    +0.000 C 
ATOM      2  O   UNL     1       0.197   8.396  21.643  0.00  0.00    +0.000 OA
ATOM      3  N   UNL     1       1.666   8.286  19.876  0.00  0.00    +0.000 N 
ATOM      4  C   UNL     1       2.236   8.742  18.592  0.00  0.00    +0.000 C 
ATOM      5  C   UNL     1       2.284   7.624  17.541  0.00  0.00    +0.000 C 
ATOM      6  N   UNL     1       2.910   6.422  18.100  0.00  0.00    +0.000 N 
ATOM      7  C   UNL     1       2.296   5.919  19.339  0.00  0.00    +0.000 C 
ATOM      8  C   UNL     1       2.271   7.047  20.394  0.00  0.00    +0.000 C 
ENDROOT
BRANCH   6   9
ATOM      9  C   UNL     1       3.945   5.767  17.458  0.00  0.00    +0.000 A 
ATOM     10  C   UNL     1       5.181   6.393  17.196  0.00  0.00    +0.000 A 
ATOM     11  F   UNL     1       5.403   7.653  17.608  0.00  0.00    +0.000 F 
ATOM     12  C   UNL     1       6.242   5.740  16.564  0.00  0.00    +0.000 A 
ATOM     13  C   UNL     1       6.105   4.416  16.167  0.00  0.00    +0.000 A 
ATOM     14  C   UNL     1       4.903   3.759  16.404  0.00  0.00    +0.000 A 
ATOM     15  C   UNL     1       3.851   4.428  17.036  0.00  0.00    +0.000 A 
ATOM     16  F   UNL     1       2.703   3.746  17.198  0.00  0.00    +0.000 F 
ENDBRANCH   6   9
BRANCH   1  21
ATOM     17  C   UNL     1      -1.486  11.498  18.876  0.00  0.00    +0.000 A 
ATOM     18  C   UNL     1      -1.032  12.667  19.502  0.00  0.00    +0.000 A 
ATOM     19  C   UNL     1       0.020  12.604  20.414  0.00  0.00    +0.000 A 
ATOM     20  C   UNL     1       0.571  11.367  20.749  0.00  0.00    +0.000 A 
ATOM     21  C   UNL     1       0.071  10.186  20.179  0.00  0.00    +0.000 A 
ATOM     22  C   UNL     1      -0.919  10.262  19.196  0.00  0.00    +0.000 A 
BRANCH  17  24
ATOM     23  O   UNL     1      -3.732  11.757  18.213  0.00  0.00    +0.000 OA
ATOM     24  C   UNL     1      -2.578  11.531  17.871  0.00  0.00    +0.000 C 
ATOM     25  N   UNL     1      -2.169  11.264  16.578  0.00  0.00    +0.000 N 
ATOM     26  H   UNL     1      -1.225  10.919  16.435  0.00  0.00    +0.000 HD
BRANCH  25  27
ATOM     27  C   UNL     1      -3.062  11.170  15.471  0.00  0.00    +0.000 C 
ATOM     28  C   UNL     1      -4.002  10.000  15.372  0.00  0.00    +0.000 C 
ATOM     29  C   UNL     1      -2.846  10.110  14.425  0.00  0.00    +0.000 C 
ENDBRANCH  25  27
ENDBRANCH  17  24
ENDBRANCH   1  21
TORSDOF 4
ENDMDL
MODEL 4
REMARK VINA RESULT:      -7.7      3.791      8.696
REMARK  Name = 
REMARK  4 active torsions:
REMARK  status: ('A' for Active; 'I' for Inactive)
REMARK    1  A    between atoms: C_2  and  C_7
REMARK    2  A    between atoms: N_3  and  C_4
REMARK    3  A    between atoms: C_11  and  C_12
REMARK    4  A    between atoms: N_17  and  C_18
REMARK                            x       y       z     vdW  Elec       q    Type
REMARK                         _______ _______ _______ _____ _____    ______ ____
ROOT
ATOM      1  C   UNL     1       0.667   9.118  20.473  0.00  0.00    +0.000 C 
ATOM      2  O   UNL     1       0.214   8.702  21.539  0.00  0.00    +0.000 OA
ATOM      3  N   UNL     1       1.660   8.447  19.768  0.00  0.00    +0.000 N 
ATOM      4  C   UNL     1       2.213   8.795  18.443  0.00  0.00    +0.000 C 
ATOM      5  C   UNL     1       2.249   7.594  17.488  0.00  0.00    +0.000 C 
ATOM      6  N   UNL     1       2.885   6.443  18.137  0.00  0.00    +0.000 N 
ATOM      7  C   UNL     1       2.289   6.044  19.421  0.00  0.00    +0.000 C 
ATOM      8  C   UNL     1       2.275   7.256  20.379  0.00  0.00    +0.000 C 
ENDROOT
BRANCH   6   9
ATOM      9  C   UNL     1       3.913   5.739  17.538  0.00  0.00    +0.000 A 
ATOM     10  C   UNL     1       3.747   4.417  17.076  0.00  0.00    +0.000 A 
ATOM     11  F   UNL     1       2.551   3.811  17.173  0.00  0.00    +0.000 F 
ATOM     12  C   UNL     1       4.770   3.699  16.452  0.00  0.00    +0.000 A 
ATOM     13  C   UNL     1       6.015   4.285  16.261  0.00  0.00    +0.000 A 
ATOM     14  C   UNL     1       6.224   5.587  16.702  0.00  0.00    +0.000 A 
ATOM     15  C   UNL     1       5.190   6.291  17.326  0.00  0.00    +0.000 A 
ATOM     16  F   UNL     1       5.473   7.531  17.763  0.00  0.00    +0.000 F 
ENDBRANCH   6   9
BRANCH   1  21
ATOM     17  C   UNL     1      -1.536  11.561  18.574  0.00  0.00    +0.000 A 
ATOM     18  C   UNL     1      -1.047  12.780  19.065  0.00  0.00    +0.000 A 
ATOM     19  C   UNL     1       0.042  12.794  19.935  0.00  0.00    +0.000 A 
ATOM     20  C   UNL     1       0.597  11.589  20.366  0.00  0.00    +0.000 A 
ATOM     21  C   UNL     1       0.065  10.364  19.933  0.00  0.00    +0.000 A 
ATOM     22  C   UNL     1      -0.964  10.356  18.988  0.00  0.00    +0.000 A 
BRANCH  17  24
ATOM     23  O   UNL     1      -3.817  11.691  18.000  0.00  0.00    +0.000 OA
ATOM     24  C   UNL     1      -2.668  11.511  17.616  0.00  0.00    +0.000 C 
ATOM     25  N   UNL     1      -2.300  11.222  16.315  0.00  0.00    +0.000 N 
ATOM     26  H   UNL     1      -1.347  10.918  16.142  0.00  0.00    +0.000 HD
BRANCH  25  27
ATOM     27  C   UNL     1      -3.232  11.050  15.251  0.00  0.00    +0.000 C 
ATOM     28  C   UNL     1      -4.024   9.775  15.155  0.00  0.00    +0.000 C 
ATOM     29  C   UNL     1      -2.942  10.058  14.157  0.00  0.00    +0.000 C 
ENDBRANCH  25  27
ENDBRANCH  17  24
ENDBRANCH   1  21
TORSDOF 4
ENDMDL
MODEL 5
REMARK VINA RESULT:      -7.7      1.023      1.338
REMARK  Name = 
REMARK  4 active torsions:
REMARK  status: ('A' for Active; 'I' for Inactive)
REMARK    1  A    between atoms: C_2  and  C_7
REMARK    2  A    between atoms: N_3  and  C_4
REMARK    3  A    between atoms: C_11  and  C_12
REMARK    4  A    between atoms: N_17  and  C_18
REMARK                            x       y       z     vdW  Elec       q    Type
REMARK                         _______ _______ _______ _____ _____    ______ ____
ROOT
ATOM      1  C   UNL     1       4.068   4.259  17.344  0.00  0.00    +0.000 C 
ATOM      2  O   UNL     1       3.904   3.152  17.857  0.00  0.00    +0.000 OA
ATOM      3  N   UNL     1       3.296   5.365  17.684  0.00  0.00    +0.000 N 
ATOM      4  C   UNL     1       3.460   6.755  17.211  0.00  0.00    +0.000 C 
ATOM      5  C   UNL     1       3.459   7.771  18.361  0.00  0.00    +0.000 C 
ATOM      6  N   UNL     1       2.304   7.551  19.236  0.00  0.00    +0.000 N 
ATOM      7  C   UNL     1       2.180   6.187  19.773  0.00  0.00    +0.000 C 
ATOM      8  C   UNL     1       2.164   5.176  18.605  0.00  0.00    +0.000 C 
ENDROOT
BRANCH   6   9
ATOM      9  C   UNL     1       1.449   8.578  19.595  0.00  0.00    +0.000 A 
ATOM     10  C   UNL     1       1.071   8.806  20.933  0.00  0.00    +0.000 A 
ATOM     11  F   UNL     1       1.571   8.041  21.919  0.00  0.00    +0.000 F 
ATOM     12  C   UNL     1       0.223   9.849  21.313  0.00  0.00    +0.000 A 
ATOM     13  C   UNL     1      -0.283  10.718  20.354  0.00  0.00    +0.000 A 
ATOM     14  C   UNL     1       0.064  10.530  19.022  0.00  0.00    +0.000 A 
ATOM     15  C   UNL     1       0.912   9.479  18.658  0.00  0.00    +0.000 A 
ATOM     16  F   UNL     1       1.173   9.332  17.348  0.00  0.00    +0.000 F 
ENDBRANCH   6   9
BRANCH   1  21
ATOM     17  C   UNL     1       6.136   4.121  14.160  0.00  0.00    +0.000 A 
ATOM     18  C   UNL     1       7.308   4.759  14.589  0.00  0.00    +0.000 A 
ATOM     19  C   UNL     1       7.443   5.145  15.921  0.00  0.00    +0.000 A 
ATOM     20  C   UNL     1       6.381   4.955  16.807  0.00  0.00    +0.000 A 
ATOM     21  C   UNL     1       5.178   4.382  16.364  0.00  0.00    +0.000 A 
ATOM     22  C   UNL     1       5.082   3.910  15.052  0.00  0.00    +0.000 A 
BRANCH  17  24
ATOM     23  O   UNL     1       6.950   3.492  12.041  0.00  0.00    +0.000 OA
ATOM     24  C   UNL     1       5.973   3.661  12.759  0.00  0.00    +0.000 C 
ATOM     25  N   UNL     1       4.659   3.483  12.368  0.00  0.00    +0.000 N 
ATOM     26  H   UNL     1       3.925   3.820  12.983  0.00  0.00    +0.000 HD
BRANCH  25  27
ATOM     27  C   UNL     1       4.271   3.121  11.045  0.00  0.00    +0.000 C 
ATOM     28  C   UNL     1       3.412   4.056  10.239  0.00  0.00    +0.000 C 
ATOM     29  C   UNL     1       2.835   2.773  10.755  0.00  0.00    +0.000 C 
ENDBRANCH  25  27
ENDBRANCH  17  24
ENDBRANCH   1  21
TORSDOF 4
ENDMDL
MODEL 6
REMARK VINA RESULT:      -7.7      0.984      2.012
REMARK  Name = 
REMARK  4 active torsions:
REMARK  status: ('A' for Active; 'I' for Inactive)
REMARK    1  A    between atoms: C_2  and  C_7
REMARK    2  A    between atoms: N_3  and  C_4
REMARK    3  A    between atoms: C_11  and  C_12
REMARK    4  A    between atoms: N_17  and  C_18
REMARK                            x       y       z     vdW  Elec       q    Type
REMARK                         _______ _______ _______ _____ _____    ______ ____
ROOT
ATOM      1  C   UNL     1       4.018   4.221  17.330  0.00  0.00    +0.000 C 
ATOM      2  O   UNL     1       3.809   3.109  17.814  0.00  0.00    +0.000 OA
ATOM      3  N   UNL     1       3.265   5.340  17.671  0.00  0.00    +0.000 N 
ATOM      4  C   UNL     1       3.480   6.734  17.233  0.00  0.00    +0.000 C 
ATOM      5  C   UNL     1       3.471   7.726  18.404  0.00  0.00    +0.000 C 
ATOM      6  N   UNL     1       2.285   7.519  19.241  0.00  0.00    +0.000 N 
ATOM      7  C   UNL     1       2.110   6.148  19.744  0.00  0.00    +0.000 C 
ATOM      8  C   UNL     1       2.101   5.162  18.555  0.00  0.00    +0.000 C 
ENDROOT
BRANCH   6   9
ATOM      9  C   UNL     1       1.448   8.561  19.596  0.00  0.00    +0.000 A 
ATOM     10  C   UNL     1       0.905   9.446  18.642  0.00  0.00    +0.000 A 
ATOM     11  F   UNL     1       1.161   9.272  17.334  0.00  0.00    +0.000 F 
ATOM     12  C   UNL     1       0.044  10.491  18.983  0.00  0.00    +0.000 A 
ATOM     13  C   UNL     1      -0.315  10.692  20.310  0.00  0.00    +0.000 A 
ATOM     14  C   UNL     1       0.198   9.844  21.285  0.00  0.00    +0.000 A 
ATOM     15  C   UNL     1       1.060   8.803  20.927  0.00  0.00    +0.000 A 
ATOM     16  F   UNL     1       1.550   8.046  21.924  0.00  0.00    +0.000 F 
ENDBRANCH   6   9
BRANCH   1  21
ATOM     17  C   UNL     1       6.155   4.158  14.190  0.00  0.00    +0.000 A 
ATOM     18  C   UNL     1       7.355   4.685  14.688  0.00  0.00    +0.000 A 
ATOM     19  C   UNL     1       7.480   4.970  16.046  0.00  0.00    +0.000 A 
ATOM     20  C   UNL     1       6.385   4.793  16.893  0.00  0.00    +0.000 A 
ATOM     21  C   UNL     1       5.159   4.334  16.386  0.00  0.00    +0.000 A 
ATOM     22  C   UNL     1       5.066   3.960  15.043  0.00  0.00    +0.000 A 
BRANCH  17  24
ATOM     23  O   UNL     1       6.939   3.923  11.981  0.00  0.00    +0.000 OA
ATOM     24  C   UNL     1       5.999   3.806  12.757  0.00  0.00    +0.000 C 
ATOM     25  N   UNL     1       4.729   3.382  12.410  0.00  0.00    +0.000 N 
ATOM     26  H   UNL     1       3.985   3.491  13.091  0.00  0.00    +0.000 HD
BRANCH  25  27
ATOM     27  C   UNL     1       4.339   3.068  11.076  0.00  0.00    +0.000 C 
ATOM     28  C   UNL     1       3.515   4.052  10.291  0.00  0.00    +0.000 C 
ATOM     29  C   UNL     1       2.896   2.773  10.769  0.00  0.00    +0.000 C 
ENDBRANCH  25  27
ENDBRANCH  17  24
ENDBRANCH   1  21
TORSDOF 4
ENDMDL
MODEL 7
REMARK VINA RESULT:      -7.6      3.903      9.355
REMARK  Name = 
REMARK  4 active torsions:
REMARK  status: ('A' for Active; 'I' for Inactive)
REMARK    1  A    between atoms: C_2  and  C_7
REMARK    2  A    between atoms: N_3  and  C_4
REMARK    3  A    between atoms: C_11  and  C_12
REMARK    4  A    between atoms: N_17  and  C_18
REMARK                            x       y       z     vdW  Elec       q    Type
REMARK                         _______ _______ _______ _____ _____    ______ ____
ROOT
ATOM      1  C   UNL     1       0.583   9.204  20.354  0.00  0.00    +0.000 C 
ATOM      2  O   UNL     1       0.131   8.823  21.434  0.00  0.00    +0.000 OA
ATOM      3  N   UNL     1       1.588   8.519  19.679  0.00  0.00    +0.000 N 
ATOM      4  C   UNL     1       2.140   8.824  18.343  0.00  0.00    +0.000 C 
ATOM      5  C   UNL     1       2.197   7.587  17.435  0.00  0.00    +0.000 C 
ATOM      6  N   UNL     1       2.846   6.471  18.131  0.00  0.00    +0.000 N 
ATOM      7  C   UNL     1       2.250   6.114  19.427  0.00  0.00    +0.000 C 
ATOM      8  C   UNL     1       2.216   7.362  20.337  0.00  0.00    +0.000 C 
ENDROOT
BRANCH   6   9
ATOM      9  C   UNL     1       3.885   5.758  17.562  0.00  0.00    +0.000 A 
ATOM     10  C   UNL     1       3.750   4.406  17.188  0.00  0.00    +0.000 A 
ATOM     11  F   UNL     1       2.574   3.774  17.341  0.00  0.00    +0.000 F 
ATOM     12  C   UNL     1       4.785   3.677  16.596  0.00  0.00    +0.000 A 
ATOM     13  C   UNL     1       6.010   4.284  16.349  0.00  0.00    +0.000 A 
ATOM     14  C   UNL     1       6.188   5.616  16.703  0.00  0.00    +0.000 A 
ATOM     15  C   UNL     1       5.142   6.331  17.296  0.00  0.00    +0.000 A 
ATOM     16  F   UNL     1       5.396   7.603  17.649  0.00  0.00    +0.000 F 
ENDBRANCH   6   9
BRANCH   1  21
ATOM     17  C   UNL     1      -1.660  11.543  18.372  0.00  0.00    +0.000 A 
ATOM     18  C   UNL     1      -1.173  12.786  18.799  0.00  0.00    +0.000 A 
ATOM     19  C   UNL     1      -0.073  12.847  19.653  0.00  0.00    +0.000 A 
ATOM     20  C   UNL     1       0.496  11.666  20.132  0.00  0.00    +0.000 A 
ATOM     21  C   UNL     1      -0.034  10.420  19.765  0.00  0.00    +0.000 A 
ATOM     22  C   UNL     1      -1.075  10.361  18.835  0.00  0.00    +0.000 A 
BRANCH  17  24
ATOM     23  O   UNL     1      -2.635  11.047  16.285  0.00  0.00    +0.000 OA
ATOM     24  C   UNL     1      -2.804  11.441  17.432  0.00  0.00    +0.000 C 
ATOM     25  N   UNL     1      -4.014  11.847  17.964  0.00  0.00    +0.000 N 
ATOM     26  H   UNL     1      -4.009  12.319  18.863  0.00  0.00    +0.000 HD
BRANCH  25  27
ATOM     27  C   UNL     1      -5.225  11.905  17.215  0.00  0.00    +0.000 C 
ATOM     28  C   UNL     1      -6.236  12.977  17.517  0.00  0.00    +0.000 C 
ATOM     29  C   UNL     1      -6.530  11.551  17.877  0.00  0.00    +0.000 C 
ENDBRANCH  25  27
ENDBRANCH  17  24
ENDBRANCH   1  21
TORSDOF 4
ENDMDL
MODEL 8
REMARK VINA RESULT:      -7.5      3.918      9.361
REMARK  Name = 
REMARK  4 active torsions:
REMARK  status: ('A' for Active; 'I' for Inactive)
REMARK    1  A    between atoms: C_2  and  C_7
REMARK    2  A    between atoms: N_3  and  C_4
REMARK    3  A    between atoms: C_11  and  C_12
REMARK    4  A    between atoms: N_17  and  C_18
REMARK                            x       y       z     vdW  Elec       q    Type
REMARK                         _______ _______ _______ _____ _____    ______ ____
ROOT
ATOM      1  C   UNL     1       0.555   9.205  20.312  0.00  0.00    +0.000 C 
ATOM      2  O   UNL     1       0.085   8.817  21.381  0.00  0.00    +0.000 OA
ATOM      3  N   UNL     1       1.571   8.524  19.649  0.00  0.00    +0.000 N 
ATOM      4  C   UNL     1       2.145   8.837  18.324  0.00  0.00    +0.000 C 
ATOM      5  C   UNL     1       2.217   7.606  17.410  0.00  0.00    +0.000 C 
ATOM      6  N   UNL     1       2.854   6.486  18.109  0.00  0.00    +0.000 N 
ATOM      7  C   UNL     1       2.237   6.121  19.393  0.00  0.00    +0.000 C 
ATOM      8  C   UNL     1       2.188   7.363  20.310  0.00  0.00    +0.000 C 
ENDROOT
BRANCH   6   9
ATOM      9  C   UNL     1       3.903   5.776  17.553  0.00  0.00    +0.000 A 
ATOM     10  C   UNL     1       5.168   6.358  17.333  0.00  0.00    +0.000 A 
ATOM     11  F   UNL     1       5.404   7.628  17.701  0.00  0.00    +0.000 F 
ATOM     12  C   UNL     1       6.243   5.649  16.789  0.00  0.00    +0.000 A 
ATOM     13  C   UNL     1       6.090   4.312  16.443  0.00  0.00    +0.000 A 
ATOM     14  C   UNL     1       4.859   3.699  16.642  0.00  0.00    +0.000 A 
ATOM     15  C   UNL     1       3.794   4.423  17.185  0.00  0.00    +0.000 A 
ATOM     16  F   UNL     1       2.620   3.779  17.313  0.00  0.00    +0.000 F 
ENDBRANCH   6   9
BRANCH   1  21
ATOM     17  C   UNL     1      -1.674  11.558  18.330  0.00  0.00    +0.000 A 
ATOM     18  C   UNL     1      -1.172  12.797  18.749  0.00  0.00    +0.000 A 
ATOM     19  C   UNL     1      -0.067  12.851  19.597  0.00  0.00    +0.000 A 
ATOM     20  C   UNL     1       0.492  11.667  20.079  0.00  0.00    +0.000 A 
ATOM     21  C   UNL     1      -0.053  10.424  19.720  0.00  0.00    +0.000 A 
ATOM     22  C   UNL     1      -1.099  10.372  18.795  0.00  0.00    +0.000 A 
BRANCH  17  24
ATOM     23  O   UNL     1      -2.658  11.105  16.238  0.00  0.00    +0.000 OA
ATOM     24  C   UNL     1      -2.824  11.463  17.397  0.00  0.00    +0.000 C 
ATOM     25  N   UNL     1      -4.036  11.834  17.949  0.00  0.00    +0.000 N 
ATOM     26  H   UNL     1      -4.031  12.280  18.861  0.00  0.00    +0.000 HD
BRANCH  25  27
ATOM     27  C   UNL     1      -5.254  11.892  17.212  0.00  0.00    +0.000 C 
ATOM     28  C   UNL     1      -6.247  12.985  17.501  0.00  0.00    +0.000 C 
ATOM     29  C   UNL     1      -6.557  11.572  17.895  0.00  0.00    +0.000 C 
ENDBRANCH  25  27
ENDBRANCH  17  24
ENDBRANCH   1  21
TORSDOF 4
ENDMDL
MODEL 9
REMARK VINA RESULT:      -7.3      2.604      4.276
REMARK  Name = 
REMARK  4 active torsions:
REMARK  status: ('A' for Active; 'I' for Inactive)
REMARK    1  A    between atoms: C_2  and  C_7
REMARK    2  A    between atoms: N_3  and  C_4
REMARK    3  A    between atoms: C_11  and  C_12
REMARK    4  A    between atoms: N_17  and  C_18
REMARK                            x       y       z     vdW  Elec       q    Type
REMARK                         _______ _______ _______ _____ _____    ______ ____
ROOT
ATOM      1  C   UNL     1       2.811   5.818  19.613  0.00  0.00    +0.000 C 
ATOM      2  O   UNL     1       2.890   5.168  20.656  0.00  0.00    +0.000 OA
ATOM      3  N   UNL     1       1.962   6.911  19.474  0.00  0.00    +0.000 N 
ATOM      4  C   UNL     1       1.851   7.819  18.314  0.00  0.00    +0.000 C 
ATOM      5  C   UNL     1       1.902   9.298  18.720  0.00  0.00    +0.000 C 
ATOM      6  N   UNL     1       0.953   9.565  19.804  0.00  0.00    +0.000 N 
ATOM      7  C   UNL     1       1.111   8.714  20.993  0.00  0.00    +0.000 C 
ATOM      8  C   UNL     1       1.038   7.229  20.575  0.00  0.00    +0.000 C 
ENDROOT
BRANCH   6   9
ATOM      9  C   UNL     1       0.037  10.599  19.739  0.00  0.00    +0.000 A 
ATOM     10  C   UNL     1      -1.051  10.583  18.842  0.00  0.00    +0.000 A 
ATOM     11  F   UNL     1      -1.252   9.523  18.040  0.00  0.00    +0.000 F 
ATOM     12  C   UNL     1      -1.994  11.611  18.777  0.00  0.00    +0.000 A 
ATOM     13  C   UNL     1      -1.885  12.710  19.621  0.00  0.00    +0.000 A 
ATOM     14  C   UNL     1      -0.827  12.768  20.521  0.00  0.00    +0.000 A 
ATOM     15  C   UNL     1       0.110  11.731  20.572  0.00  0.00    +0.000 A 
ATOM     16  F   UNL     1       1.129  11.871  21.438  0.00  0.00    +0.000 F 
ENDBRANCH   6   9
BRANCH   1  21
ATOM     17  C   UNL     1       5.691   5.676  17.139  0.00  0.00    +0.000 A 
ATOM     18  C   UNL     1       5.382   4.490  16.458  0.00  0.00    +0.000 A 
ATOM     19  C   UNL     1       4.205   3.805  16.750  0.00  0.00    +0.000 A 
ATOM     20  C   UNL     1       3.372   4.266  17.770  0.00  0.00    +0.000 A 
ATOM     21  C   UNL     1       3.713   5.412  18.505  0.00  0.00    +0.000 A 
ATOM     22  C   UNL     1       4.844   6.149  18.145  0.00  0.00    +0.000 A 
BRANCH  17  24
ATOM     23  O   UNL     1       7.694   6.067  15.964  0.00  0.00    +0.000 OA
ATOM     24  C   UNL     1       6.915   6.452  16.827  0.00  0.00    +0.000 C 
ATOM     25  N   UNL     1       7.083   7.586  17.601  0.00  0.00    +0.000 N 
ATOM     26  H   UNL     1       6.472   7.714  18.402  0.00  0.00    +0.000 HD
BRANCH  25  27
ATOM     27  C   UNL     1       8.225   8.434  17.522  0.00  0.00    +0.000 C 
ATOM     28  C   UNL     1       8.801   9.026  18.779  0.00  0.00    +0.000 C 
ATOM     29  C   UNL     1       8.084   9.906  17.800  0.00  0.00    +0.000 C 
ENDBRANCH  25  27
ENDBRANCH  17  24
ENDBRANCH   1  21
TORSDOF 4
ENDMDL
