MODEL 1
REMARK VINA RESULT:      -8.9      0.000      0.000
REMARK  Name = 
REMARK  5 active torsions:
REMARK  status: ('A' for Active; 'I' for Inactive)
REMARK    1  A    between atoms: C_1  and  C_2
REMARK    2  A    between atoms: C_5  and  C_6
REMARK    3  A    between atoms: C_10  and  C_12
REMARK    4  A    between atoms: C_24  and  C_25
REMARK    5  A    between atoms: C_24  and  C_26
REMARK                            x       y       z     vdW  Elec       q    Type
REMARK                         _______ _______ _______ _____ _____    ______ ____
ROOT
ATOM      1  C   UNL     1      -1.356  11.243  22.298  0.00  0.00    +0.000 C 
ATOM      2  C   UNL     1      -0.516  10.321  23.189  0.00  0.00    +0.000 C 
ATOM      3  C   UNL     1       0.428   9.606  22.242  0.00  0.00    +0.000 C 
ATOM      4  N   UNL     1       0.169  10.109  20.905  0.00  0.00    +0.000 N 
ATOM      5  C   UNL     1       0.640   9.545  19.721  0.00  0.00    +0.000 C 
ATOM      6  O   UNL     1       0.375  10.012  18.614  0.00  0.00    +0.000 OA
ATOM      7  C   UNL     1      -0.501  11.437  20.998  0.00  0.00    +0.000 C 
ATOM      8  C   UNL     1      -1.428  11.809  19.827  0.00  0.00    +0.000 C 
ATOM      9  C   UNL     1       0.597  12.512  21.094  0.00  0.00    +0.000 C 
ENDROOT
BRANCH   5  10
ATOM     10  C   UNL     1       1.437   8.272  19.735  0.00  0.00    +0.000 A 
ATOM     11  C   UNL     1       1.384   7.300  20.736  0.00  0.00    +0.000 A 
ATOM     12  C   UNL     1       2.128   6.110  20.643  0.00  0.00    +0.000 A 
ATOM     13  C   UNL     1       3.006   5.858  19.577  0.00  0.00    +0.000 A 
ATOM     14  C   UNL     1       3.114   6.905  18.574  0.00  0.00    +0.000 A 
ATOM     15  C   UNL     1       2.335   8.079  18.682  0.00  0.00    +0.000 A 
ATOM     16  C   UNL     1       4.025   6.874  17.306  0.00  0.00    +0.000 C 
ATOM     17  C   UNL     1       4.632   5.562  17.500  0.00  0.00    +0.000 C 
ATOM     18  C   UNL     1       5.267   4.260  17.622  0.00  0.00    +0.000 C 
ATOM     19  C   UNL     1       4.604   3.780  18.950  0.00  0.00    +0.000 C 
ATOM     20  O   UNL     1       4.898   2.669  19.404  0.00  0.00    +0.000 OA
ATOM     21  N   UNL     1       3.674   4.551  19.672  0.00  0.00    +0.000 N 
ATOM     22  H   UNL     1       3.401   4.012  20.490  0.00  0.00    +0.000 HD
ENDBRANCH   5  10
BRANCH   1  27
ATOM     23  C   UNL     1      -3.515  15.890  25.107  0.00  0.00    +0.000 C 
ATOM     24  C   UNL     1      -2.944  14.696  24.403  0.00  0.00    +0.000 A 
ATOM     25  C   UNL     1      -1.622  14.694  23.960  0.00  0.00    +0.000 A 
ATOM     26  C   UNL     1      -1.096  13.579  23.304  0.00  0.00    +0.000 A 
ATOM     27  C   UNL     1      -1.887  12.453  23.039  0.00  0.00    +0.000 A 
ATOM     28  C   UNL     1      -3.206  12.450  23.515  0.00  0.00    +0.000 A 
ATOM     29  C   UNL     1      -3.727  13.556  24.195  0.00  0.00    +0.000 A 
ENDBRANCH   1  27
TORSDOF 2
ENDMDL
MODEL 2
REMARK VINA RESULT:      -8.6      1.509      2.408
REMARK  Name = 
REMARK  5 active torsions:
REMARK  status: ('A' for Active; 'I' for Inactive)
REMARK    1  A    between atoms: C_1  and  C_2
REMARK    2  A    between atoms: C_5  and  C_6
REMARK    3  A    between atoms: C_10  and  C_12
REMARK    4  A    between atoms: C_24  and  C_25
REMARK    5  A    between atoms: C_24  and  C_26
REMARK                            x       y       z     vdW  Elec       q    Type
REMARK                         _______ _______ _______ _____ _____    ______ ____
ROOT
ATOM      1  C   UNL     1      -0.693  10.797  20.774  0.00  0.00    +0.000 C 
ATOM      2  C   UNL     1      -0.131   9.811  21.804  0.00  0.00    +0.000 C 
ATOM      3  C   UNL     1       0.931   9.023  21.062  0.00  0.00    +0.000 C 
ATOM      4  N   UNL     1       0.995   9.546  19.708  0.00  0.00    +0.000 N 
ATOM      5  C   UNL     1       1.657   8.946  18.639  0.00  0.00    +0.000 C 
ATOM      6  O   UNL     1       1.665   9.433  17.509  0.00  0.00    +0.000 OA
ATOM      7  C   UNL     1       0.427  10.922  19.683  0.00  0.00    +0.000 C 
ATOM      8  C   UNL     1      -0.205  11.368  18.352  0.00  0.00    +0.000 C 
ATOM      9  C   UNL     1       1.561  11.906  20.022  0.00  0.00    +0.000 C 
ENDROOT
BRANCH   5  10
ATOM     10  C   UNL     1       2.332   7.614  18.796  0.00  0.00    +0.000 A 
ATOM     11  C   UNL     1       3.461   7.195  18.090  0.00  0.00    +0.000 A 
ATOM     12  C   UNL     1       4.062   5.948  18.338  0.00  0.00    +0.000 A 
ATOM     13  C   UNL     1       3.532   5.033  19.262  0.00  0.00    +0.000 A 
ATOM     14  C   UNL     1       2.315   5.443  19.943  0.00  0.00    +0.000 A 
ATOM     15  C   UNL     1       1.749   6.712  19.690  0.00  0.00    +0.000 A 
ATOM     16  C   UNL     1       1.526   4.605  20.999  0.00  0.00    +0.000 C 
ATOM     17  C   UNL     1       2.379   3.423  21.028  0.00  0.00    +0.000 C 
ATOM     18  C   UNL     1       3.188   2.218  21.119  0.00  0.00    +0.000 C 
ATOM     19  C   UNL     1       4.299   2.585  20.086  0.00  0.00    +0.000 C 
ATOM     20  O   UNL     1       5.214   1.781  19.873  0.00  0.00    +0.000 OA
ATOM     21  N   UNL     1       4.322   3.797  19.372  0.00  0.00    +0.000 N 
ATOM     22  H   UNL     1       5.142   3.783  18.773  0.00  0.00    +0.000 HD
ENDBRANCH   5  10
BRANCH   1  27
ATOM     23  C   UNL     1      -2.927  15.664  23.111  0.00  0.00    +0.000 C 
ATOM     24  C   UNL     1      -2.362  14.403  22.530  0.00  0.00    +0.000 A 
ATOM     25  C   UNL     1      -1.430  13.646  23.240  0.00  0.00    +0.000 A 
ATOM     26  C   UNL     1      -0.907  12.473  22.693  0.00  0.00    +0.000 A 
ATOM     27  C   UNL     1      -1.270  12.045  21.409  0.00  0.00    +0.000 A 
ATOM     28  C   UNL     1      -2.231  12.795  20.715  0.00  0.00    +0.000 A 
ATOM     29  C   UNL     1      -2.776  13.957  21.271  0.00  0.00    +0.000 A 
ENDBRANCH   1  27
TORSDOF 2
ENDMDL
MODEL 3
REMARK VINA RESULT:      -8.5      1.059      1.226
REMARK  Name = 
REMARK  5 active torsions:
REMARK  status: ('A' for Active; 'I' for Inactive)
REMARK    1  A    between atoms: C_1  and  C_2
REMARK    2  A    between atoms: C_5  and  C_6
REMARK    3  A    between atoms: C_10  and  C_12
REMARK    4  A    between atoms: C_24  and  C_25
REMARK    5  A    between atoms: C_24  and  C_26
REMARK                            x       y       z     vdW  Elec       q    Type
REMARK                         _______ _______ _______ _____ _____    ______ ____
ROOT
ATOM      1  C   UNL     1      -2.121  12.126  22.230  0.00  0.00    +0.000 C 
ATOM      2  C   UNL     1      -1.339  11.194  23.162  0.00  0.00    +0.000 C 
ATOM      3  C   UNL     1      -0.312  10.517  22.275  0.00  0.00    +0.000 C 
ATOM      4  N   UNL     1      -0.474  11.051  20.934  0.00  0.00    +0.000 N 
ATOM      5  C   UNL     1       0.098  10.524  19.778  0.00  0.00    +0.000 C 
ATOM      6  O   UNL     1      -0.087  11.016  18.665  0.00  0.00    +0.000 OA
ATOM      7  C   UNL     1      -1.170  12.366  21.007  0.00  0.00    +0.000 C 
ATOM      8  C   UNL     1      -2.009  12.755  19.777  0.00  0.00    +0.000 C 
ATOM      9  C   UNL     1      -0.101  13.453  21.215  0.00  0.00    +0.000 C 
ENDROOT
BRANCH   5  10
ATOM     10  C   UNL     1       0.912   9.263  19.824  0.00  0.00    +0.000 A 
ATOM     11  C   UNL     1       0.947   8.365  20.892  0.00  0.00    +0.000 A 
ATOM     12  C   UNL     1       1.700   7.178  20.829  0.00  0.00    +0.000 A 
ATOM     13  C   UNL     1       2.500   6.858  19.722  0.00  0.00    +0.000 A 
ATOM     14  C   UNL     1       2.519   7.831  18.642  0.00  0.00    +0.000 A 
ATOM     15  C   UNL     1       1.733   9.002  18.723  0.00  0.00    +0.000 A 
ATOM     16  C   UNL     1       3.336   7.717  17.315  0.00  0.00    +0.000 C 
ATOM     17  C   UNL     1       3.973   6.428  17.556  0.00  0.00    +0.000 C 
ATOM     18  C   UNL     1       4.635   5.144  17.723  0.00  0.00    +0.000 C 
ATOM     19  C   UNL     1       4.078   4.756  19.128  0.00  0.00    +0.000 C 
ATOM     20  O   UNL     1       4.420   3.682  19.637  0.00  0.00    +0.000 OA
ATOM     21  N   UNL     1       3.193   5.567  19.860  0.00  0.00    +0.000 N 
ATOM     22  H   UNL     1       2.988   5.087  20.732  0.00  0.00    +0.000 HD
ENDBRANCH   5  10
BRANCH   1  27
ATOM     23  C   UNL     1      -4.512  16.727  24.926  0.00  0.00    +0.000 C 
ATOM     24  C   UNL     1      -3.898  15.535  24.255  0.00  0.00    +0.000 A 
ATOM     25  C   UNL     1      -2.670  15.029  24.682  0.00  0.00    +0.000 A 
ATOM     26  C   UNL     1      -2.104  13.920  24.053  0.00  0.00    +0.000 A 
ATOM     27  C   UNL     1      -2.728  13.309  22.957  0.00  0.00    +0.000 A 
ATOM     28  C   UNL     1      -3.977  13.803  22.554  0.00  0.00    +0.000 A 
ATOM     29  C   UNL     1      -4.559  14.899  23.200  0.00  0.00    +0.000 A 
ENDBRANCH   1  27
TORSDOF 2
ENDMDL
MODEL 4
REMARK VINA RESULT:      -8.3      0.941      1.692
REMARK  Name = 
REMARK  5 active torsions:
REMARK  status: ('A' for Active; 'I' for Inactive)
REMARK    1  A    between atoms: C_1  and  C_2
REMARK    2  A    between atoms: C_5  and  C_6
REMARK    3  A    between atoms: C_10  and  C_12
REMARK    4  A    between atoms: C_24  and  C_25
REMARK    5  A    between atoms: C_24  and  C_26
REMARK                            x       y       z     vdW  Elec       q    Type
REMARK                         _______ _______ _______ _____ _____    ______ ____
ROOT
ATOM      1  C   UNL     1      -1.114  11.185  21.865  0.00  0.00    +0.000 C 
ATOM      2  C   UNL     1       0.057  10.463  22.540  0.00  0.00    +0.000 C 
ATOM      3  C   UNL     1       0.885   9.900  21.401  0.00  0.00    +0.000 C 
ATOM      4  N   UNL     1       0.248  10.301  20.159  0.00  0.00    +0.000 N 
ATOM      5  C   UNL     1       0.543   9.791  18.896  0.00  0.00    +0.000 C 
ATOM      6  O   UNL     1      -0.042  10.164  17.880  0.00  0.00    +0.000 OA
ATOM      7  C   UNL     1      -0.618  11.487  20.409  0.00  0.00    +0.000 C 
ATOM      8  C   UNL     1      -1.834  11.643  19.478  0.00  0.00    +0.000 C 
ATOM      9  C   UNL     1       0.255  12.747  20.264  0.00  0.00    +0.000 C 
ENDROOT
BRANCH   5  10
ATOM     10  C   UNL     1       1.545   8.687  18.723  0.00  0.00    +0.000 A 
ATOM     11  C   UNL     1       2.581   8.680  17.787  0.00  0.00    +0.000 A 
ATOM     12  C   UNL     1       3.510   7.625  17.727  0.00  0.00    +0.000 A 
ATOM     13  C   UNL     1       3.416   6.498  18.560  0.00  0.00    +0.000 A 
ATOM     14  C   UNL     1       2.293   6.475  19.483  0.00  0.00    +0.000 A 
ATOM     15  C   UNL     1       1.391   7.562  19.536  0.00  0.00    +0.000 A 
ATOM     16  C   UNL     1       1.960   5.336  20.498  0.00  0.00    +0.000 C 
ATOM     17  C   UNL     1       3.069   4.438  20.196  0.00  0.00    +0.000 C 
ATOM     18  C   UNL     1       4.153   3.500  19.957  0.00  0.00    +0.000 C 
ATOM     19  C   UNL     1       4.913   4.275  18.836  0.00  0.00    +0.000 C 
ATOM     20  O   UNL     1       5.939   3.783  18.351  0.00  0.00    +0.000 OA
ATOM     21  N   UNL     1       4.494   5.522  18.338  0.00  0.00    +0.000 N 
ATOM     22  H   UNL     1       5.157   5.804  17.622  0.00  0.00    +0.000 HD
ENDBRANCH   5  10
BRANCH   1  27
ATOM     23  C   UNL     1      -3.418  15.483  25.085  0.00  0.00    +0.000 C 
ATOM     24  C   UNL     1      -2.811  14.377  24.276  0.00  0.00    +0.000 A 
ATOM     25  C   UNL     1      -1.468  14.421  23.901  0.00  0.00    +0.000 A 
ATOM     26  C   UNL     1      -0.909  13.388  23.147  0.00  0.00    +0.000 A 
ATOM     27  C   UNL     1      -1.683  12.303  22.715  0.00  0.00    +0.000 A 
ATOM     28  C   UNL     1      -3.024  12.250  23.122  0.00  0.00    +0.000 A 
ATOM     29  C   UNL     1      -3.581  13.272  23.900  0.00  0.00    +0.000 A 
ENDBRANCH   1  27
TORSDOF 2
ENDMDL
MODEL 5
REMARK VINA RESULT:      -8.1      1.204      1.267
REMARK  Name = 
REMARK  5 active torsions:
REMARK  status: ('A' for Active; 'I' for Inactive)
REMARK    1  A    between atoms: C_1  and  C_2
REMARK    2  A    between atoms: C_5  and  C_6
REMARK    3  A    between atoms: C_10  and  C_12
REMARK    4  A    between atoms: C_24  and  C_25
REMARK    5  A    between atoms: C_24  and  C_26
REMARK                            x       y       z     vdW  Elec       q    Type
REMARK                         _______ _______ _______ _____ _____    ______ ____
ROOT
ATOM      1  C   UNL     1      -1.113  11.935  21.171  0.00  0.00    +0.000 C 
ATOM      2  C   UNL     1      -0.303  11.141  22.201  0.00  0.00    +0.000 C 
ATOM      3  C   UNL     1       0.630  10.268  21.385  0.00  0.00    +0.000 C 
ATOM      4  N   UNL     1       0.393  10.567  19.983  0.00  0.00    +0.000 N 
ATOM      5  C   UNL     1       0.858   9.818  18.905  0.00  0.00    +0.000 C 
ATOM      6  O   UNL     1       0.613  10.117  17.737  0.00  0.00    +0.000 OA
ATOM      7  C   UNL     1      -0.244  11.909  19.866  0.00  0.00    +0.000 C 
ATOM      8  C   UNL     1      -1.154  12.120  18.642  0.00  0.00    +0.000 C 
ATOM      9  C   UNL     1       0.880  12.959  19.808  0.00  0.00    +0.000 C 
ENDROOT
BRANCH   5  10
ATOM     10  C   UNL     1       1.624   8.544  19.121  0.00  0.00    +0.000 A 
ATOM     11  C   UNL     1       1.509   7.716  20.239  0.00  0.00    +0.000 A 
ATOM     12  C   UNL     1       2.228   6.510  20.337  0.00  0.00    +0.000 A 
ATOM     13  C   UNL     1       3.138   6.101  19.350  0.00  0.00    +0.000 A 
ATOM     14  C   UNL     1       3.310   7.002  18.222  0.00  0.00    +0.000 A 
ATOM     15  C   UNL     1       2.555   8.194  18.141  0.00  0.00    +0.000 A 
ATOM     16  C   UNL     1       4.267   6.783  17.008  0.00  0.00    +0.000 C 
ATOM     17  C   UNL     1       4.834   5.498  17.400  0.00  0.00    +0.000 C 
ATOM     18  C   UNL     1       5.433   4.213  17.720  0.00  0.00    +0.000 C 
ATOM     19  C   UNL     1       4.709   3.929  19.073  0.00  0.00    +0.000 C 
ATOM     20  O   UNL     1       4.958   2.883  19.682  0.00  0.00    +0.000 OA
ATOM     21  N   UNL     1       3.771   4.806  19.647  0.00  0.00    +0.000 N 
ATOM     22  H   UNL     1       3.455   4.388  20.517  0.00  0.00    +0.000 HD
ENDBRANCH   5  10
BRANCH   1  27
ATOM     23  C   UNL     1      -3.100  17.063  23.148  0.00  0.00    +0.000 C 
ATOM     24  C   UNL     1      -2.593  15.738  22.663  0.00  0.00    +0.000 A 
ATOM     25  C   UNL     1      -1.473  15.146  23.246  0.00  0.00    +0.000 A 
ATOM     26  C   UNL     1      -1.005  13.912  22.788  0.00  0.00    +0.000 A 
ATOM     27  C   UNL     1      -1.619  13.256  21.713  0.00  0.00    +0.000 A 
ATOM     28  C   UNL     1      -2.763  13.843  21.153  0.00  0.00    +0.000 A 
ATOM     29  C   UNL     1      -3.249  15.066  21.627  0.00  0.00    +0.000 A 
ENDBRANCH   1  27
TORSDOF 2
ENDMDL
MODEL 6
REMARK VINA RESULT:      -8.1      2.455      3.580
REMARK  Name = 
REMARK  5 active torsions:
REMARK  status: ('A' for Active; 'I' for Inactive)
REMARK    1  A    between atoms: C_1  and  C_2
REMARK    2  A    between atoms: C_5  and  C_6
REMARK    3  A    between atoms: C_10  and  C_12
REMARK    4  A    between atoms: C_24  and  C_25
REMARK    5  A    between atoms: C_24  and  C_26
REMARK                            x       y       z     vdW  Elec       q    Type
REMARK                         _______ _______ _______ _____ _____    ______ ____
ROOT
ATOM      1  C   UNL     1       0.902  13.266  19.990  0.00  0.00    +0.000 C 
ATOM      2  C   UNL     1       1.672  12.955  18.703  0.00  0.00    +0.000 C 
ATOM      3  C   UNL     1       1.645  11.444  18.579  0.00  0.00    +0.000 C 
ATOM      4  N   UNL     1       0.882  10.928  19.702  0.00  0.00    +0.000 N 
ATOM      5  C   UNL     1       0.825   9.594  20.099  0.00  0.00    +0.000 C 
ATOM      6  O   UNL     1       0.168   9.220  21.069  0.00  0.00    +0.000 OA
ATOM      7  C   UNL     1       0.003  12.005  20.238  0.00  0.00    +0.000 C 
ATOM      8  C   UNL     1      -0.344  11.912  21.735  0.00  0.00    +0.000 C 
ATOM      9  C   UNL     1      -1.315  11.977  19.443  0.00  0.00    +0.000 C 
ENDROOT
BRANCH   5  10
ATOM     10  C   UNL     1       1.641   8.545  19.401  0.00  0.00    +0.000 A 
ATOM     11  C   UNL     1       2.197   8.672  18.126  0.00  0.00    +0.000 A 
ATOM     12  C   UNL     1       2.994   7.657  17.568  0.00  0.00    +0.000 A 
ATOM     13  C   UNL     1       3.228   6.441  18.229  0.00  0.00    +0.000 A 
ATOM     14  C   UNL     1       2.587   6.282  19.524  0.00  0.00    +0.000 A 
ATOM     15  C   UNL     1       1.812   7.330  20.070  0.00  0.00    +0.000 A 
ATOM     16  C   UNL     1       2.678   5.025  20.447  0.00  0.00    +0.000 C 
ATOM     17  C   UNL     1       3.542   4.198  19.613  0.00  0.00    +0.000 C 
ATOM     18  C   UNL     1       4.410   3.324  18.841  0.00  0.00    +0.000 C 
ATOM     19  C   UNL     1       4.656   4.242  17.604  0.00  0.00    +0.000 C 
ATOM     20  O   UNL     1       5.378   3.837  16.686  0.00  0.00    +0.000 OA
ATOM     21  N   UNL     1       4.096   5.526  17.471  0.00  0.00    +0.000 N 
ATOM     22  H   UNL     1       4.410   5.906  16.582  0.00  0.00    +0.000 HD
ENDBRANCH   5  10
BRANCH   1  27
ATOM     23  C   UNL     1      -1.438  18.620  19.857  0.00  0.00    +0.000 C 
ATOM     24  C   UNL     1      -0.857  17.238  19.904  0.00  0.00    +0.000 A 
ATOM     25  C   UNL     1      -0.619  16.605  21.123  0.00  0.00    +0.000 A 
ATOM     26  C   UNL     1      -0.077  15.319  21.159  0.00  0.00    +0.000 A 
ATOM     27  C   UNL     1       0.278  14.647  19.982  0.00  0.00    +0.000 A 
ATOM     28  C   UNL     1       0.007  15.278  18.759  0.00  0.00    +0.000 A 
ATOM     29  C   UNL     1      -0.560  16.556  18.720  0.00  0.00    +0.000 A 
ENDBRANCH   1  27
TORSDOF 2
ENDMDL
MODEL 7
REMARK VINA RESULT:      -8.0      1.708      2.484
REMARK  Name = 
REMARK  5 active torsions:
REMARK  status: ('A' for Active; 'I' for Inactive)
REMARK    1  A    between atoms: C_1  and  C_2
REMARK    2  A    between atoms: C_5  and  C_6
REMARK    3  A    between atoms: C_10  and  C_12
REMARK    4  A    between atoms: C_24  and  C_25
REMARK    5  A    between atoms: C_24  and  C_26
REMARK                            x       y       z     vdW  Elec       q    Type
REMARK                         _______ _______ _______ _____ _____    ______ ____
ROOT
ATOM      1  C   UNL     1      -0.652  10.361  20.580  0.00  0.00    +0.000 C 
ATOM      2  C   UNL     1      -0.084   9.416  21.645  0.00  0.00    +0.000 C 
ATOM      3  C   UNL     1       0.998   8.624  20.936  0.00  0.00    +0.000 C 
ATOM      4  N   UNL     1       1.065   9.106  19.568  0.00  0.00    +0.000 N 
ATOM      5  C   UNL     1       1.746   8.485  18.522  0.00  0.00    +0.000 C 
ATOM      6  O   UNL     1       1.756   8.938  17.378  0.00  0.00    +0.000 OA
ATOM      7  C   UNL     1       0.475  10.472  19.495  0.00  0.00    +0.000 C 
ATOM      8  C   UNL     1      -0.153  10.866  18.146  0.00  0.00    +0.000 C 
ATOM      9  C   UNL     1       1.590  11.484  19.814  0.00  0.00    +0.000 C 
ENDROOT
BRANCH   5  10
ATOM     10  C   UNL     1       2.441   7.170  18.726  0.00  0.00    +0.000 A 
ATOM     11  C   UNL     1       3.732   7.011  19.235  0.00  0.00    +0.000 A 
ATOM     12  C   UNL     1       4.288   5.736  19.442  0.00  0.00    +0.000 A 
ATOM     13  C   UNL     1       3.607   4.558  19.098  0.00  0.00    +0.000 A 
ATOM     14  C   UNL     1       2.293   4.729  18.500  0.00  0.00    +0.000 A 
ATOM     15  C   UNL     1       1.750   6.022  18.327  0.00  0.00    +0.000 A 
ATOM     16  C   UNL     1       1.345   3.584  18.019  0.00  0.00    +0.000 C 
ATOM     17  C   UNL     1       2.182   2.442  18.366  0.00  0.00    +0.000 C 
ATOM     18  C   UNL     1       2.957   1.256  18.694  0.00  0.00    +0.000 C 
ATOM     19  C   UNL     1       4.220   1.942  19.302  0.00  0.00    +0.000 C 
ATOM     20  O   UNL     1       5.146   1.238  19.719  0.00  0.00    +0.000 OA
ATOM     21  N   UNL     1       4.366   3.337  19.408  0.00  0.00    +0.000 N 
ATOM     22  H   UNL     1       5.271   3.517  19.835  0.00  0.00    +0.000 HD
ENDBRANCH   5  10
BRANCH   1  27
ATOM     23  C   UNL     1      -2.986  15.153  22.975  0.00  0.00    +0.000 C 
ATOM     24  C   UNL     1      -2.377  13.937  22.344  0.00  0.00    +0.000 A 
ATOM     25  C   UNL     1      -2.641  13.616  21.013  0.00  0.00    +0.000 A 
ATOM     26  C   UNL     1      -2.072  12.482  20.431  0.00  0.00    +0.000 A 
ATOM     27  C   UNL     1      -1.255  11.618  21.173  0.00  0.00    +0.000 A 
ATOM     28  C   UNL     1      -0.969  11.965  22.501  0.00  0.00    +0.000 A 
ATOM     29  C   UNL     1      -1.517  13.115  23.079  0.00  0.00    +0.000 A 
ENDBRANCH   1  27
TORSDOF 2
ENDMDL
MODEL 8
REMARK VINA RESULT:      -8.0      2.258      3.075
REMARK  Name = 
REMARK  5 active torsions:
REMARK  status: ('A' for Active; 'I' for Inactive)
REMARK    1  A    between atoms: C_1  and  C_2
REMARK    2  A    between atoms: C_5  and  C_6
REMARK    3  A    between atoms: C_10  and  C_12
REMARK    4  A    between atoms: C_24  and  C_25
REMARK    5  A    between atoms: C_24  and  C_26
REMARK                            x       y       z     vdW  Elec       q    Type
REMARK                         _______ _______ _______ _____ _____    ______ ____
ROOT
ATOM      1  C   UNL     1      -2.075  12.820  20.087  0.00  0.00    +0.000 C 
ATOM      2  C   UNL     1      -2.462  11.642  19.185  0.00  0.00    +0.000 C 
ATOM      3  C   UNL     1      -1.370  10.611  19.389  0.00  0.00    +0.000 C 
ATOM      4  N   UNL     1      -0.439  11.148  20.366  0.00  0.00    +0.000 N 
ATOM      5  C   UNL     1       0.824  10.634  20.650  0.00  0.00    +0.000 C 
ATOM      6  O   UNL     1       1.574  11.143  21.483  0.00  0.00    +0.000 OA
ATOM      7  C   UNL     1      -1.119  12.205  21.167  0.00  0.00    +0.000 C 
ATOM      8  C   UNL     1      -0.211  13.311  21.734  0.00  0.00    +0.000 C 
ATOM      9  C   UNL     1      -1.825  11.518  22.349  0.00  0.00    +0.000 C 
ENDROOT
BRANCH   5  10
ATOM     10  C   UNL     1       1.373   9.465  19.884  0.00  0.00    +0.000 A 
ATOM     11  C   UNL     1       1.806   9.503  18.557  0.00  0.00    +0.000 A 
ATOM     12  C   UNL     1       2.357   8.371  17.931  0.00  0.00    +0.000 A 
ATOM     13  C   UNL     1       2.450   7.129  18.580  0.00  0.00    +0.000 A 
ATOM     14  C   UNL     1       1.931   7.074  19.937  0.00  0.00    +0.000 A 
ATOM     15  C   UNL     1       1.406   8.235  20.547  0.00  0.00    +0.000 A 
ATOM     16  C   UNL     1       1.904   5.815  20.861  0.00  0.00    +0.000 C 
ATOM     17  C   UNL     1       2.524   4.858  19.952  0.00  0.00    +0.000 C 
ATOM     18  C   UNL     1       3.145   3.853  19.104  0.00  0.00    +0.000 C 
ATOM     19  C   UNL     1       3.411   4.724  17.837  0.00  0.00    +0.000 C 
ATOM     20  O   UNL     1       3.955   4.207  16.854  0.00  0.00    +0.000 OA
ATOM     21  N   UNL     1       3.066   6.085  17.747  0.00  0.00    +0.000 N 
ATOM     22  H   UNL     1       3.345   6.410  16.826  0.00  0.00    +0.000 HD
ENDBRANCH   5  10
BRANCH   1  27
ATOM     23  C   UNL     1      -6.751  15.948  21.670  0.00  0.00    +0.000 C 
ATOM     24  C   UNL     1      -5.542  15.148  21.285  0.00  0.00    +0.000 A 
ATOM     25  C   UNL     1      -4.265  15.702  21.370  0.00  0.00    +0.000 A 
ATOM     26  C   UNL     1      -3.143  14.952  21.009  0.00  0.00    +0.000 A 
ATOM     27  C   UNL     1      -3.270  13.645  20.520  0.00  0.00    +0.000 A 
ATOM     28  C   UNL     1      -4.555  13.085  20.467  0.00  0.00    +0.000 A 
ATOM     29  C   UNL     1      -5.678  13.826  20.852  0.00  0.00    +0.000 A 
ENDBRANCH   1  27
TORSDOF 2
ENDMDL
MODEL 9
REMARK VINA RESULT:      -7.9      6.193      9.422
REMARK  Name = 
REMARK  5 active torsions:
REMARK  status: ('A' for Active; 'I' for Inactive)
REMARK    1  A    between atoms: C_1  and  C_2
REMARK    2  A    between atoms: C_5  and  C_6
REMARK    3  A    between atoms: C_10  and  C_12
REMARK    4  A    between atoms: C_24  and  C_25
REMARK    5  A    between atoms: C_24  and  C_26
REMARK                            x       y       z     vdW  Elec       q    Type
REMARK                         _______ _______ _______ _____ _____    ______ ____
ROOT
ATOM      1  C   UNL     1       6.382  14.832  19.162  0.00  0.00    +0.000 C 
ATOM      2  C   UNL     1       5.608  14.901  17.840  0.00  0.00    +0.000 C 
ATOM      3  C   UNL     1       4.154  14.701  18.221  0.00  0.00    +0.000 C 
ATOM      4  N   UNL     1       4.097  14.561  19.666  0.00  0.00    +0.000 N 
ATOM      5  C   UNL     1       2.994  14.119  20.393  0.00  0.00    +0.000 C 
ATOM      6  O   UNL     1       3.011  14.010  21.619  0.00  0.00    +0.000 OA
ATOM      7  C   UNL     1       5.321  15.159  20.269  0.00  0.00    +0.000 C 
ATOM      8  C   UNL     1       5.778  14.554  21.608  0.00  0.00    +0.000 C 
ATOM      9  C   UNL     1       5.051  16.658  20.492  0.00  0.00    +0.000 C 
ENDROOT
BRANCH   5  10
ATOM     10  C   UNL     1       1.740  13.669  19.701  0.00  0.00    +0.000 A 
ATOM     11  C   UNL     1       0.695  14.506  19.304  0.00  0.00    +0.000 A 
ATOM     12  C   UNL     1      -0.423  14.007  18.612  0.00  0.00    +0.000 A 
ATOM     13  C   UNL     1      -0.581  12.640  18.332  0.00  0.00    +0.000 A 
ATOM     14  C   UNL     1       0.475  11.762  18.811  0.00  0.00    +0.000 A 
ATOM     15  C   UNL     1       1.597  12.297  19.482  0.00  0.00    +0.000 A 
ATOM     16  C   UNL     1       0.528  10.210  18.642  0.00  0.00    +0.000 C 
ATOM     17  C   UNL     1      -0.721  10.023  17.912  0.00  0.00    +0.000 C 
ATOM     18  C   UNL     1      -1.945   9.762  17.172  0.00  0.00    +0.000 C 
ATOM     19  C   UNL     1      -2.485  11.222  17.057  0.00  0.00    +0.000 C 
ATOM     20  O   UNL     1      -3.551  11.426  16.466  0.00  0.00    +0.000 OA
ATOM     21  N   UNL     1      -1.816  12.338  17.592  0.00  0.00    +0.000 N 
ATOM     22  H   UNL     1      -2.375  13.159  17.380  0.00  0.00    +0.000 HD
ENDBRANCH   5  10
BRANCH   1  27
ATOM     23  C   UNL     1      11.391  17.828  18.879  0.00  0.00    +0.000 C 
ATOM     24  C   UNL     1      10.107  17.061  18.975  0.00  0.00    +0.000 A 
ATOM     25  C   UNL     1      10.033  15.882  19.716  0.00  0.00    +0.000 A 
ATOM     26  C   UNL     1       8.834  15.173  19.801  0.00  0.00    +0.000 A 
ATOM     27  C   UNL     1       7.688  15.600  19.118  0.00  0.00    +0.000 A 
ATOM     28  C   UNL     1       7.761  16.802  18.401  0.00  0.00    +0.000 A 
ATOM     29  C   UNL     1       8.955  17.529  18.335  0.00  0.00    +0.000 A 
ENDBRANCH   1  27
TORSDOF 2
ENDMDL
