MODEL 1
REMARK VINA RESULT:      -8.7      0.000      0.000
REMARK  Name = 
REMARK  3 active torsions:
REMARK  status: ('A' for Active; 'I' for Inactive)
REMARK    1  A    between atoms: C_4  and  C_5
REMARK    2  A    between atoms: C_5  and  N_6
REMARK    3  A    between atoms: C_9  and  C_10
REMARK                            x       y       z     vdW  Elec       q    Type
REMARK                         _______ _______ _______ _____ _____    ______ ____
ROOT
ATOM      1  N   UNL     1       3.984   6.876  17.769  0.00  0.00    +0.000 NA
ATOM      2  C   UNL     1       3.730   5.482  17.392  0.00  0.00    +0.000 C 
ATOM      3  C   UNL     1       4.756   4.511  17.977  0.00  0.00    +0.000 C 
ATOM      4  C   UNL     1       6.189   4.924  17.635  0.00  0.00    +0.000 C 
ATOM      5  C   UNL     1       6.405   6.364  18.109  0.00  0.00    +0.000 C 
ATOM      6  C   UNL     1       5.360   7.324  17.535  0.00  0.00    +0.000 C 
ENDROOT
BRANCH   4   7
ATOM      7  C   UNL     1       6.522   4.743  16.184  0.00  0.00    +0.000 A 
ATOM      8  N   UNL     1       7.435   5.349  15.446  0.00  0.00    +0.000 NA
ATOM      9  C   UNL     1       7.230   4.840  14.186  0.00  0.00    +0.000 A 
ATOM     10  C   UNL     1       7.863   5.101  12.964  0.00  0.00    +0.000 A 
ATOM     11  C   UNL     1       7.399   4.428  11.819  0.00  0.00    +0.000 A 
ATOM     12  C   UNL     1       6.343   3.513  11.895  0.00  0.00    +0.000 A 
ATOM     13  C   UNL     1       5.708   3.233  13.112  0.00  0.00    +0.000 A 
ATOM     14  C   UNL     1       6.188   3.928  14.215  0.00  0.00    +0.000 A 
ATOM     15  O   UNL     1       5.729   3.858  15.496  0.00  0.00    +0.000 OA
ENDBRANCH   4   7
BRANCH   1  16
ATOM     16  C   UNL     1       2.997   7.826  17.198  0.00  0.00    +0.000 C 
BRANCH  16  20
ATOM     17  O   UNL     1       0.705  11.793  18.338  0.00  0.00    +0.000 OA
ATOM     18  C   UNL     1       1.040  10.668  18.690  0.00  0.00    +0.000 A 
ATOM     19  N   UNL     1       1.760   9.836  17.878  0.00  0.00    +0.000 N 
ATOM     20  C   UNL     1       2.168   8.573  18.249  0.00  0.00    +0.000 A 
ATOM     21  N   UNL     1       1.873   8.048  19.398  0.00  0.00    +0.000 NA
ATOM     22  C   UNL     1       1.126   8.826  20.304  0.00  0.00    +0.000 A 
ATOM     23  C   UNL     1       0.808   8.291  21.554  0.00  0.00    +0.000 A 
ATOM     24  C   UNL     1       0.097   9.047  22.496  0.00  0.00    +0.000 A 
ATOM     25  C   UNL     1      -0.310  10.347  22.183  0.00  0.00    +0.000 A 
ATOM     26 CL   UNL     1      -1.161  11.280  23.346  0.00  0.00    +0.000 Cl
ATOM     27  C   UNL     1      -0.019  10.893  20.936  0.00  0.00    +0.000 A 
ATOM     28  C   UNL     1       0.699  10.127  20.012  0.00  0.00    +0.000 A 
ATOM     29  H   UNL     1       2.033  10.224  16.987  0.00  0.00    +0.000 HD
ENDBRANCH  16  20
ENDBRANCH   1  16
TORSDOF 3
ENDMDL
MODEL 2
REMARK VINA RESULT:      -8.7      1.250      1.717
REMARK  Name = 
REMARK  3 active torsions:
REMARK  status: ('A' for Active; 'I' for Inactive)
REMARK    1  A    between atoms: C_4  and  C_5
REMARK    2  A    between atoms: C_5  and  N_6
REMARK    3  A    between atoms: C_9  and  C_10
REMARK                            x       y       z     vdW  Elec       q    Type
REMARK                         _______ _______ _______ _____ _____    ______ ____
ROOT
ATOM      1  N   UNL     1       4.608   5.853  18.685  0.00  0.00    +0.000 NA
ATOM      2  C   UNL     1       5.316   4.578  18.527  0.00  0.00    +0.000 C 
ATOM      3  C   UNL     1       6.829   4.750  18.391  0.00  0.00    +0.000 C 
ATOM      4  C   UNL     1       7.191   5.727  17.270  0.00  0.00    +0.000 C 
ATOM      5  C   UNL     1       6.469   7.051  17.528  0.00  0.00    +0.000 C 
ATOM      6  C   UNL     1       4.957   6.865  17.684  0.00  0.00    +0.000 C 
ENDROOT
BRANCH   4   7
ATOM      7  C   UNL     1       6.912   5.179  15.902  0.00  0.00    +0.000 A 
ATOM      8  N   UNL     1       6.038   4.263  15.523  0.00  0.00    +0.000 NA
ATOM      9  C   UNL     1       6.282   4.112  14.179  0.00  0.00    +0.000 A 
ATOM     10  C   UNL     1       5.701   3.276  13.216  0.00  0.00    +0.000 A 
ATOM     11  C   UNL     1       6.197   3.332  11.902  0.00  0.00    +0.000 A 
ATOM     12  C   UNL     1       7.235   4.207  11.556  0.00  0.00    +0.000 A 
ATOM     13  C   UNL     1       7.817   5.057  12.505  0.00  0.00    +0.000 A 
ATOM     14  C   UNL     1       7.307   4.960  13.793  0.00  0.00    +0.000 A 
ATOM     15  O   UNL     1       7.716   5.651  14.894  0.00  0.00    +0.000 OA
ENDBRANCH   4   7
BRANCH   1  16
ATOM     16  C   UNL     1       3.138   5.694  18.808  0.00  0.00    +0.000 C 
BRANCH  16  20
ATOM     17  O   UNL     1       1.523   9.923  17.467  0.00  0.00    +0.000 OA
ATOM     18  C   UNL     1       1.638   9.115  18.381  0.00  0.00    +0.000 A 
ATOM     19  N   UNL     1       2.240   7.899  18.206  0.00  0.00    +0.000 N 
ATOM     20  C   UNL     1       2.402   6.976  19.215  0.00  0.00    +0.000 A 
ATOM     21  N   UNL     1       1.965   7.168  20.421  0.00  0.00    +0.000 NA
ATOM     22  C   UNL     1       1.323   8.390  20.702  0.00  0.00    +0.000 A 
ATOM     23  C   UNL     1       0.856   8.630  21.995  0.00  0.00    +0.000 A 
ATOM     24  C   UNL     1       0.245   9.848  22.321  0.00  0.00    +0.000 A 
ATOM     25  C   UNL     1       0.086  10.833  21.342  0.00  0.00    +0.000 A 
ATOM     26 CL   UNL     1      -0.644  12.333  21.748  0.00  0.00    +0.000 Cl
ATOM     27  C   UNL     1       0.528  10.608  20.041  0.00  0.00    +0.000 A 
ATOM     28  C   UNL     1       1.145   9.390  19.737  0.00  0.00    +0.000 A 
ATOM     29  H   UNL     1       2.619   7.728  17.286  0.00  0.00    +0.000 HD
ENDBRANCH  16  20
ENDBRANCH   1  16
TORSDOF 3
ENDMDL
MODEL 3
REMARK VINA RESULT:      -8.4      0.784      1.208
REMARK  Name = 
REMARK  3 active torsions:
REMARK  status: ('A' for Active; 'I' for Inactive)
REMARK    1  A    between atoms: C_4  and  C_5
REMARK    2  A    between atoms: C_5  and  N_6
REMARK    3  A    between atoms: C_9  and  C_10
REMARK                            x       y       z     vdW  Elec       q    Type
REMARK                         _______ _______ _______ _____ _____    ______ ____
ROOT
ATOM      1  N   UNL     1       3.737   7.029  17.789  0.00  0.00    +0.000 NA
ATOM      2  C   UNL     1       3.394   5.625  17.539  0.00  0.00    +0.000 C 
ATOM      3  C   UNL     1       4.429   4.649  18.101  0.00  0.00    +0.000 C 
ATOM      4  C   UNL     1       5.840   4.970  17.606  0.00  0.00    +0.000 C 
ATOM      5  C   UNL     1       6.156   6.428  17.951  0.00  0.00    +0.000 C 
ATOM      6  C   UNL     1       5.103   7.394  17.402  0.00  0.00    +0.000 C 
ENDROOT
BRANCH   4   7
ATOM      7  C   UNL     1       6.032   4.673  16.148  0.00  0.00    +0.000 A 
ATOM      8  N   UNL     1       5.469   3.744  15.396  0.00  0.00    +0.000 NA
ATOM      9  C   UNL     1       6.079   3.896  14.174  0.00  0.00    +0.000 A 
ATOM     10  C   UNL     1       5.931   3.199  12.968  0.00  0.00    +0.000 A 
ATOM     11  C   UNL     1       6.734   3.580  11.878  0.00  0.00    +0.000 A 
ATOM     12  C   UNL     1       7.649   4.635  11.986  0.00  0.00    +0.000 A 
ATOM     13  C   UNL     1       7.799   5.349  13.182  0.00  0.00    +0.000 A 
ATOM     14  C   UNL     1       6.996   4.932  14.237  0.00  0.00    +0.000 A 
ATOM     15  O   UNL     1       6.971   5.438  15.502  0.00  0.00    +0.000 OA
ENDBRANCH   4   7
BRANCH   1  16
ATOM     16  C   UNL     1       2.742   7.981  17.238  0.00  0.00    +0.000 C 
BRANCH  16  20
ATOM     17  O   UNL     1      -0.580  11.206  18.167  0.00  0.00    +0.000 OA
ATOM     18  C   UNL     1       0.157  10.337  18.618  0.00  0.00    +0.000 A 
ATOM     19  N   UNL     1       1.001   9.614  17.822  0.00  0.00    +0.000 N 
ATOM     20  C   UNL     1       1.855   8.643  18.299  0.00  0.00    +0.000 A 
ATOM     21  N   UNL     1       1.907   8.306  19.551  0.00  0.00    +0.000 NA
ATOM     22  C   UNL     1       1.069   8.991  20.453  0.00  0.00    +0.000 A 
ATOM     23  C   UNL     1       1.116   8.659  21.808  0.00  0.00    +0.000 A 
ATOM     24  C   UNL     1       0.323   9.342  22.740  0.00  0.00    +0.000 A 
ATOM     25  C   UNL     1      -0.535  10.360  22.312  0.00  0.00    +0.000 A 
ATOM     26 CL   UNL     1      -1.489  11.210  23.459  0.00  0.00    +0.000 Cl
ATOM     27  C   UNL     1      -0.611  10.694  20.964  0.00  0.00    +0.000 A 
ATOM     28  C   UNL     1       0.195  10.008  20.050  0.00  0.00    +0.000 A 
ATOM     29  H   UNL     1       1.009   9.870  16.846  0.00  0.00    +0.000 HD
ENDBRANCH  16  20
ENDBRANCH   1  16
TORSDOF 3
ENDMDL
MODEL 4
REMARK VINA RESULT:      -8.4      1.162      1.808
REMARK  Name = 
REMARK  3 active torsions:
REMARK  status: ('A' for Active; 'I' for Inactive)
REMARK    1  A    between atoms: C_4  and  C_5
REMARK    2  A    between atoms: C_5  and  N_6
REMARK    3  A    between atoms: C_9  and  C_10
REMARK                            x       y       z     vdW  Elec       q    Type
REMARK                         _______ _______ _______ _____ _____    ______ ____
ROOT
ATOM      1  N   UNL     1       3.947   6.654  17.820  0.00  0.00    +0.000 NA
ATOM      2  C   UNL     1       3.737   5.268  17.390  0.00  0.00    +0.000 C 
ATOM      3  C   UNL     1       4.797   4.308  17.932  0.00  0.00    +0.000 C 
ATOM      4  C   UNL     1       6.213   4.781  17.601  0.00  0.00    +0.000 C 
ATOM      5  C   UNL     1       6.385   6.207  18.129  0.00  0.00    +0.000 C 
ATOM      6  C   UNL     1       5.307   7.155  17.597  0.00  0.00    +0.000 C 
ENDROOT
BRANCH   4   7
ATOM      7  C   UNL     1       6.544   4.666  16.142  0.00  0.00    +0.000 A 
ATOM      8  N   UNL     1       7.400   5.361  15.415  0.00  0.00    +0.000 NA
ATOM      9  C   UNL     1       7.222   4.874  14.143  0.00  0.00    +0.000 A 
ATOM     10  C   UNL     1       7.821   5.216  12.923  0.00  0.00    +0.000 A 
ATOM     11  C   UNL     1       7.397   4.543  11.763  0.00  0.00    +0.000 A 
ATOM     12  C   UNL     1       6.414   3.548  11.821  0.00  0.00    +0.000 A 
ATOM     13  C   UNL     1       5.815   3.187  13.035  0.00  0.00    +0.000 A 
ATOM     14  C   UNL     1       6.253   3.885  14.154  0.00  0.00    +0.000 A 
ATOM     15  O   UNL     1       5.813   3.743  15.436  0.00  0.00    +0.000 OA
ENDBRANCH   4   7
BRANCH   1  16
ATOM     16  C   UNL     1       2.928   7.593  17.290  0.00  0.00    +0.000 C 
BRANCH  16  20
ATOM     17  O   UNL     1       1.265   7.659  21.709  0.00  0.00    +0.000 OA
ATOM     18  C   UNL     1       1.388   8.268  20.653  0.00  0.00    +0.000 A 
ATOM     19  N   UNL     1       2.046   7.737  19.579  0.00  0.00    +0.000 N 
ATOM     20  C   UNL     1       2.187   8.387  18.372  0.00  0.00    +0.000 A 
ATOM     21  N   UNL     1       1.731   9.584  18.161  0.00  0.00    +0.000 NA
ATOM     22  C   UNL     1       1.043  10.221  19.212  0.00  0.00    +0.000 A 
ATOM     23  C   UNL     1       0.529  11.503  19.007  0.00  0.00    +0.000 A 
ATOM     24  C   UNL     1      -0.192  12.154  20.016  0.00  0.00    +0.000 A 
ATOM     25  C   UNL     1      -0.393  11.524  21.247  0.00  0.00    +0.000 A 
ATOM     26 CL   UNL     1      -1.296  12.315  22.475  0.00  0.00    +0.000 Cl
ATOM     27  C   UNL     1       0.125  10.254  21.479  0.00  0.00    +0.000 A 
ATOM     28  C   UNL     1       0.835   9.615  20.457  0.00  0.00    +0.000 A 
ATOM     29  H   UNL     1       2.387   6.794  19.698  0.00  0.00    +0.000 HD
ENDBRANCH  16  20
ENDBRANCH   1  16
TORSDOF 3
ENDMDL
MODEL 5
REMARK VINA RESULT:      -8.3      0.990      1.171
REMARK  Name = 
REMARK  3 active torsions:
REMARK  status: ('A' for Active; 'I' for Inactive)
REMARK    1  A    between atoms: C_4  and  C_5
REMARK    2  A    between atoms: C_5  and  N_6
REMARK    3  A    between atoms: C_9  and  C_10
REMARK                            x       y       z     vdW  Elec       q    Type
REMARK                         _______ _______ _______ _____ _____    ______ ____
ROOT
ATOM      1  N   UNL     1       4.546   5.941  18.239  0.00  0.00    +0.000 NA
ATOM      2  C   UNL     1       5.153   4.611  18.120  0.00  0.00    +0.000 C 
ATOM      3  C   UNL     1       6.678   4.641  18.221  0.00  0.00    +0.000 C 
ATOM      4  C   UNL     1       7.295   5.623  17.222  0.00  0.00    +0.000 C 
ATOM      5  C   UNL     1       6.662   6.999  17.441  0.00  0.00    +0.000 C 
ATOM      6  C   UNL     1       5.134   6.954  17.359  0.00  0.00    +0.000 C 
ENDROOT
BRANCH   4   7
ATOM      7  C   UNL     1       7.181   5.160  15.800  0.00  0.00    +0.000 A 
ATOM      8  N   UNL     1       7.866   5.536  14.734  0.00  0.00    +0.000 NA
ATOM      9  C   UNL     1       7.280   4.839  13.705  0.00  0.00    +0.000 A 
ATOM     10  C   UNL     1       7.540   4.820  12.328  0.00  0.00    +0.000 A 
ATOM     11  C   UNL     1       6.734   4.008  11.511  0.00  0.00    +0.000 A 
ATOM     12  C   UNL     1       5.706   3.228  12.055  0.00  0.00    +0.000 A 
ATOM     13  C   UNL     1       5.442   3.228  13.430  0.00  0.00    +0.000 A 
ATOM     14  C   UNL     1       6.253   4.053  14.199  0.00  0.00    +0.000 A 
ATOM     15  O   UNL     1       6.184   4.252  15.545  0.00  0.00    +0.000 OA
ENDBRANCH   4   7
BRANCH   1  16
ATOM     16  C   UNL     1       3.066   5.920  18.133  0.00  0.00    +0.000 C 
BRANCH  16  20
ATOM     17  O   UNL     1       1.477  10.317  17.478  0.00  0.00    +0.000 OA
ATOM     18  C   UNL     1       1.619   9.387  18.263  0.00  0.00    +0.000 A 
ATOM     19  N   UNL     1       2.186   8.200  17.890  0.00  0.00    +0.000 N 
ATOM     20  C   UNL     1       2.377   7.142  18.751  0.00  0.00    +0.000 A 
ATOM     21  N   UNL     1       2.002   7.169  19.993  0.00  0.00    +0.000 NA
ATOM     22  C   UNL     1       1.399   8.348  20.473  0.00  0.00    +0.000 A 
ATOM     23  C   UNL     1       0.999   8.410  21.809  0.00  0.00    +0.000 A 
ATOM     24  C   UNL     1       0.429   9.578  22.332  0.00  0.00    +0.000 A 
ATOM     25  C   UNL     1       0.245  10.693  21.509  0.00  0.00    +0.000 A 
ATOM     26 CL   UNL     1      -0.434  12.131  22.157  0.00  0.00    +0.000 Cl
ATOM     27  C   UNL     1       0.620  10.647  20.169  0.00  0.00    +0.000 A 
ATOM     28  C   UNL     1       1.196   9.476  19.667  0.00  0.00    +0.000 A 
ATOM     29  H   UNL     1       2.518   8.155  16.938  0.00  0.00    +0.000 HD
ENDBRANCH  16  20
ENDBRANCH   1  16
TORSDOF 3
ENDMDL
MODEL 6
REMARK VINA RESULT:      -8.3      1.605      2.395
REMARK  Name = 
REMARK  3 active torsions:
REMARK  status: ('A' for Active; 'I' for Inactive)
REMARK    1  A    between atoms: C_4  and  C_5
REMARK    2  A    between atoms: C_5  and  N_6
REMARK    3  A    between atoms: C_9  and  C_10
REMARK                            x       y       z     vdW  Elec       q    Type
REMARK                         _______ _______ _______ _____ _____    ______ ____
ROOT
ATOM      1  N   UNL     1       4.226   6.151  18.474  0.00  0.00    +0.000 NA
ATOM      2  C   UNL     1       4.763   4.788  18.397  0.00  0.00    +0.000 C 
ATOM      3  C   UNL     1       6.291   4.746  18.439  0.00  0.00    +0.000 C 
ATOM      4  C   UNL     1       6.913   5.647  17.370  0.00  0.00    +0.000 C 
ATOM      5  C   UNL     1       6.358   7.063  17.545  0.00  0.00    +0.000 C 
ATOM      6  C   UNL     1       4.827   7.090  17.523  0.00  0.00    +0.000 C 
ENDROOT
BRANCH   4   7
ATOM      7  C   UNL     1       6.720   5.124  15.978  0.00  0.00    +0.000 A 
ATOM      8  N   UNL     1       5.893   4.194  15.534  0.00  0.00    +0.000 NA
ATOM      9  C   UNL     1       6.211   4.082  14.201  0.00  0.00    +0.000 A 
ATOM     10  C   UNL     1       5.704   3.253  13.191  0.00  0.00    +0.000 A 
ATOM     11  C   UNL     1       6.266   3.353  11.906  0.00  0.00    +0.000 A 
ATOM     12  C   UNL     1       7.295   4.263  11.634  0.00  0.00    +0.000 A 
ATOM     13  C   UNL     1       7.804   5.106  12.631  0.00  0.00    +0.000 A 
ATOM     14  C   UNL     1       7.230   4.965  13.888  0.00  0.00    +0.000 A 
ATOM     15  O   UNL     1       7.562   5.641  15.024  0.00  0.00    +0.000 OA
ENDBRANCH   4   7
BRANCH   1  16
ATOM     16  C   UNL     1       2.744   6.200  18.425  0.00  0.00    +0.000 C 
BRANCH  16  20
ATOM     17  O   UNL     1       1.282   8.477  22.294  0.00  0.00    +0.000 OA
ATOM     18  C   UNL     1       1.428   8.516  21.078  0.00  0.00    +0.000 A 
ATOM     19  N   UNL     1       1.978   7.478  20.378  0.00  0.00    +0.000 N 
ATOM     20  C   UNL     1       2.141   7.482  19.009  0.00  0.00    +0.000 A 
ATOM     21  N   UNL     1       1.813   8.493  18.266  0.00  0.00    +0.000 NA
ATOM     22  C   UNL     1       1.243   9.617  18.895  0.00  0.00    +0.000 A 
ATOM     23  C   UNL     1       0.866  10.713  18.117  0.00  0.00    +0.000 A 
ATOM     24  C   UNL     1       0.264  11.833  18.703  0.00  0.00    +0.000 A 
ATOM     25  C   UNL     1       0.044  11.866  20.083  0.00  0.00    +0.000 A 
ATOM     26 CL   UNL     1      -0.714  13.231  20.796  0.00  0.00    +0.000 Cl
ATOM     27  C   UNL     1       0.428  10.792  20.881  0.00  0.00    +0.000 A 
ATOM     28  C   UNL     1       1.020   9.677  20.276  0.00  0.00    +0.000 A 
ATOM     29  H   UNL     1       2.217   6.662  20.922  0.00  0.00    +0.000 HD
ENDBRANCH  16  20
ENDBRANCH   1  16
TORSDOF 3
ENDMDL
MODEL 7
REMARK VINA RESULT:      -8.0      1.511      2.162
REMARK  Name = 
REMARK  3 active torsions:
REMARK  status: ('A' for Active; 'I' for Inactive)
REMARK    1  A    between atoms: C_4  and  C_5
REMARK    2  A    between atoms: C_5  and  N_6
REMARK    3  A    between atoms: C_9  and  C_10
REMARK                            x       y       z     vdW  Elec       q    Type
REMARK                         _______ _______ _______ _____ _____    ______ ____
ROOT
ATOM      1  N   UNL     1       4.434   6.035  18.226  0.00  0.00    +0.000 NA
ATOM      2  C   UNL     1       4.999   4.685  18.128  0.00  0.00    +0.000 C 
ATOM      3  C   UNL     1       6.522   4.666  18.261  0.00  0.00    +0.000 C 
ATOM      4  C   UNL     1       7.192   5.618  17.269  0.00  0.00    +0.000 C 
ATOM      5  C   UNL     1       6.601   7.017  17.465  0.00  0.00    +0.000 C 
ATOM      6  C   UNL     1       5.075   7.022  17.351  0.00  0.00    +0.000 C 
ENDROOT
BRANCH   4   7
ATOM      7  C   UNL     1       7.093   5.149  15.848  0.00  0.00    +0.000 A 
ATOM      8  N   UNL     1       7.828   5.475  14.799  0.00  0.00    +0.000 NA
ATOM      9  C   UNL     1       7.233   4.802  13.759  0.00  0.00    +0.000 A 
ATOM     10  C   UNL     1       7.531   4.754  12.391  0.00  0.00    +0.000 A 
ATOM     11  C   UNL     1       6.702   3.982  11.557  0.00  0.00    +0.000 A 
ATOM     12  C   UNL     1       5.615   3.268  12.077  0.00  0.00    +0.000 A 
ATOM     13  C   UNL     1       5.312   3.297  13.444  0.00  0.00    +0.000 A 
ATOM     14  C   UNL     1       6.148   4.081  14.230  0.00  0.00    +0.000 A 
ATOM     15  O   UNL     1       6.052   4.297  15.572  0.00  0.00    +0.000 OA
ENDBRANCH   4   7
BRANCH   1  16
ATOM     16  C   UNL     1       2.957   6.063  18.089  0.00  0.00    +0.000 C 
BRANCH  16  20
ATOM     17  O   UNL     1       1.348   8.066  22.050  0.00  0.00    +0.000 OA
ATOM     18  C   UNL     1       1.509   8.176  20.840  0.00  0.00    +0.000 A 
ATOM     19  N   UNL     1       2.112   7.201  20.095  0.00  0.00    +0.000 N 
ATOM     20  C   UNL     1       2.292   7.286  18.731  0.00  0.00    +0.000 A 
ATOM     21  N   UNL     1       1.931   8.321  18.037  0.00  0.00    +0.000 NA
ATOM     22  C   UNL     1       1.305   9.383  18.717  0.00  0.00    +0.000 A 
ATOM     23  C   UNL     1       0.893  10.503  17.991  0.00  0.00    +0.000 A 
ATOM     24  C   UNL     1       0.235  11.565  18.627  0.00  0.00    +0.000 A 
ATOM     25  C   UNL     1      -0.004  11.513  20.003  0.00  0.00    +0.000 A 
ATOM     26 CL   UNL     1      -0.829  12.805  20.776  0.00  0.00    +0.000 Cl
ATOM     27  C   UNL     1       0.415  10.415  20.749  0.00  0.00    +0.000 A 
ATOM     28  C   UNL     1       1.062   9.361  20.095  0.00  0.00    +0.000 A 
ATOM     29  H   UNL     1       2.379   6.368  20.598  0.00  0.00    +0.000 HD
ENDBRANCH  16  20
ENDBRANCH   1  16
TORSDOF 3
ENDMDL
MODEL 8
REMARK VINA RESULT:      -7.9      3.678      7.514
REMARK  Name = 
REMARK  3 active torsions:
REMARK  status: ('A' for Active; 'I' for Inactive)
REMARK    1  A    between atoms: C_4  and  C_5
REMARK    2  A    between atoms: C_5  and  N_6
REMARK    3  A    between atoms: C_9  and  C_10
REMARK                            x       y       z     vdW  Elec       q    Type
REMARK                         _______ _______ _______ _____ _____    ______ ____
ROOT
ATOM      1  N   UNL     1       3.744   2.379  17.981  0.00  0.00    +0.000 NA
ATOM      2  C   UNL     1       4.112   2.778  19.343  0.00  0.00    +0.000 C 
ATOM      3  C   UNL     1       3.002   2.514  20.362  0.00  0.00    +0.000 C 
ATOM      4  C   UNL     1       1.678   3.150  19.937  0.00  0.00    +0.000 C 
ATOM      5  C   UNL     1       1.323   2.645  18.536  0.00  0.00    +0.000 C 
ATOM      6  C   UNL     1       2.449   2.896  17.529  0.00  0.00    +0.000 C 
ENDROOT
BRANCH   4   7
ATOM      7  C   UNL     1       1.694   4.648  20.019  0.00  0.00    +0.000 A 
ATOM      8  N   UNL     1       1.322   5.442  21.007  0.00  0.00    +0.000 NA
ATOM      9  C   UNL     1       1.486   6.706  20.493  0.00  0.00    +0.000 A 
ATOM     10  C   UNL     1       1.244   7.972  21.042  0.00  0.00    +0.000 A 
ATOM     11  C   UNL     1       1.488   9.101  20.239  0.00  0.00    +0.000 A 
ATOM     12  C   UNL     1       1.972   8.970  18.932  0.00  0.00    +0.000 A 
ATOM     13  C   UNL     1       2.230   7.711  18.374  0.00  0.00    +0.000 A 
ATOM     14  C   UNL     1       1.963   6.623  19.196  0.00  0.00    +0.000 A 
ATOM     15  O   UNL     1       2.102   5.303  18.884  0.00  0.00    +0.000 OA
ENDBRANCH   4   7
BRANCH   1  16
ATOM     16  C   UNL     1       4.812   2.641  16.985  0.00  0.00    +0.000 C 
BRANCH  16  20
ATOM     17  O   UNL     1       5.094   7.016  15.233  0.00  0.00    +0.000 OA
ATOM     18  C   UNL     1       5.486   6.229  16.086  0.00  0.00    +0.000 A 
ATOM     19  N   UNL     1       5.014   4.948  16.165  0.00  0.00    +0.000 N 
ATOM     20  C   UNL     1       5.446   4.032  17.100  0.00  0.00    +0.000 A 
ATOM     21  N   UNL     1       6.322   4.319  18.013  0.00  0.00    +0.000 NA
ATOM     22  C   UNL     1       6.864   5.619  18.020  0.00  0.00    +0.000 A 
ATOM     23  C   UNL     1       7.819   5.951  18.983  0.00  0.00    +0.000 A 
ATOM     24  C   UNL     1       8.407   7.223  18.999  0.00  0.00    +0.000 A 
ATOM     25  C   UNL     1       8.029   8.178  18.050  0.00  0.00    +0.000 A 
ATOM     26 CL   UNL     1       8.767   9.728  18.058  0.00  0.00    +0.000 Cl
ATOM     27  C   UNL     1       7.066   7.874  17.093  0.00  0.00    +0.000 A 
ATOM     28  C   UNL     1       6.497   6.596  17.087  0.00  0.00    +0.000 A 
ATOM     29  H   UNL     1       4.354   4.680  15.450  0.00  0.00    +0.000 HD
ENDBRANCH  16  20
ENDBRANCH   1  16
TORSDOF 3
ENDMDL
MODEL 9
REMARK VINA RESULT:      -7.9      4.605     10.666
REMARK  Name = 
REMARK  3 active torsions:
REMARK  status: ('A' for Active; 'I' for Inactive)
REMARK    1  A    between atoms: C_4  and  C_5
REMARK    2  A    between atoms: C_5  and  N_6
REMARK    3  A    between atoms: C_9  and  C_10
REMARK                            x       y       z     vdW  Elec       q    Type
REMARK                         _______ _______ _______ _____ _____    ______ ____
ROOT
ATOM      1  N   UNL     1       0.631  10.142  20.343  0.00  0.00    +0.000 NA
ATOM      2  C   UNL     1      -0.727   9.859  19.868  0.00  0.00    +0.000 C 
ATOM      3  C   UNL     1      -1.278  10.952  18.951  0.00  0.00    +0.000 C 
ATOM      4  C   UNL     1      -1.196  12.334  19.601  0.00  0.00    +0.000 C 
ATOM      5  C   UNL     1       0.255  12.590  20.017  0.00  0.00    +0.000 C 
ATOM      6  C   UNL     1       0.803  11.480  20.918  0.00  0.00    +0.000 C 
ENDROOT
BRANCH   4   7
ATOM      7  C   UNL     1      -2.157  12.504  20.741  0.00  0.00    +0.000 A 
ATOM      8  N   UNL     1      -1.943  12.425  22.042  0.00  0.00    +0.000 NA
ATOM      9  C   UNL     1      -3.192  12.590  22.591  0.00  0.00    +0.000 A 
ATOM     10  C   UNL     1      -3.632  12.586  23.921  0.00  0.00    +0.000 A 
ATOM     11  C   UNL     1      -5.006  12.755  24.167  0.00  0.00    +0.000 A 
ATOM     12  C   UNL     1      -5.913  12.935  23.116  0.00  0.00    +0.000 A 
ATOM     13  C   UNL     1      -5.487  12.952  21.782  0.00  0.00    +0.000 A 
ATOM     14  C   UNL     1      -4.124  12.769  21.583  0.00  0.00    +0.000 A 
ATOM     15  O   UNL     1      -3.467  12.718  20.390  0.00  0.00    +0.000 OA
ENDBRANCH   4   7
BRANCH   1  16
ATOM     16  C   UNL     1       1.169   9.091  21.241  0.00  0.00    +0.000 C 
BRANCH  16  20
ATOM     17  O   UNL     1       3.338   7.196  17.500  0.00  0.00    +0.000 OA
ATOM     18  C   UNL     1       2.733   6.989  18.544  0.00  0.00    +0.000 A 
ATOM     19  N   UNL     1       2.295   8.007  19.346  0.00  0.00    +0.000 N 
ATOM     20  C   UNL     1       1.596   7.809  20.517  0.00  0.00    +0.000 A 
ATOM     21  N   UNL     1       1.319   6.628  20.980  0.00  0.00    +0.000 NA
ATOM     22  C   UNL     1       1.735   5.512  20.228  0.00  0.00    +0.000 A 
ATOM     23  C   UNL     1       1.437   4.231  20.695  0.00  0.00    +0.000 A 
ATOM     24  C   UNL     1       1.802   3.097  19.957  0.00  0.00    +0.000 A 
ATOM     25  C   UNL     1       2.482   3.244  18.745  0.00  0.00    +0.000 A 
ATOM     26 CL   UNL     1       2.910   1.855  17.831  0.00  0.00    +0.000 Cl
ATOM     27  C   UNL     1       2.805   4.511  18.269  0.00  0.00    +0.000 A 
ATOM     28  C   UNL     1       2.424   5.632  19.015  0.00  0.00    +0.000 A 
ATOM     29  H   UNL     1       2.466   8.939  19.001  0.00  0.00    +0.000 HD
ENDBRANCH  16  20
ENDBRANCH   1  16
TORSDOF 3
ENDMDL
