MODEL 1
REMARK VINA RESULT:      -8.3      0.000      0.000
REMARK  Name = 
REMARK  5 active torsions:
REMARK  status: ('A' for Active; 'I' for Inactive)
REMARK    1  A    between atoms: C_2  and  C_10
REMARK    2  A    between atoms: N_3  and  C_4
REMARK    3  A    between atoms: C_14  and  S_15
REMARK    4  A    between atoms: S_15  and  N_18
REMARK    5  A    between atoms: N_18  and  C_19
REMARK                            x       y       z     vdW  Elec       q    Type
REMARK                         _______ _______ _______ _____ _____    ______ ____
ROOT
ATOM      1  C   UNL     1       7.913   7.718  18.172  0.00  0.00    +0.000 A 
ATOM      2  C   UNL     1       8.366   6.811  19.140  0.00  0.00    +0.000 A 
ATOM      3  C   UNL     1       8.017   5.461  19.060  0.00  0.00    +0.000 A 
ATOM      4  C   UNL     1       7.216   5.010  18.008  0.00  0.00    +0.000 A 
ATOM      5  C   UNL     1       6.786   5.915  17.030  0.00  0.00    +0.000 A 
ATOM      6  C   UNL     1       7.127   7.272  17.108  0.00  0.00    +0.000 A 
ENDROOT
BRANCH   1   8
ATOM      7  O   UNL     1       7.878   9.932  17.473  0.00  0.00    +0.000 OA
ATOM      8  C   UNL     1       8.327   9.140  18.289  0.00  0.00    +0.000 C 
ATOM      9  N   UNL     1       9.226   9.417  19.305  0.00  0.00    +0.000 N 
ATOM     10  H   UNL     1       9.650   8.631  19.785  0.00  0.00    +0.000 HD
BRANCH   9  11
ATOM     11  C   UNL     1       9.758  10.690  19.609  0.00  0.00    +0.000 A 
ATOM     12  C   UNL     1      10.623  11.390  18.772  0.00  0.00    +0.000 A 
ATOM     13  C   UNL     1      11.122  12.629  19.170  0.00  0.00    +0.000 A 
ATOM     14  C   UNL     1      10.731  13.135  20.398  0.00  0.00    +0.000 A 
ATOM     15  N   UNL     1       9.876  12.502  21.228  0.00  0.00    +0.000 NA
ATOM     16  C   UNL     1       9.408  11.301  20.811  0.00  0.00    +0.000 A 
ENDBRANCH   9  11
ENDBRANCH   1   8
BRANCH   5  17
ATOM     17  S   UNL     1       5.705   5.377  15.718  0.00  0.00    +0.000 S 
ATOM     18  O   UNL     1       5.264   6.554  15.001  0.00  0.00    +0.000 OA
ATOM     19  O   UNL     1       6.385   4.293  15.041  0.00  0.00    +0.000 OA
BRANCH  17  20
ATOM     20  N   UNL     1       4.402   4.687  16.527  0.00  0.00    +0.000 N 
ATOM     21  H   UNL     1       4.382   3.669  16.530  0.00  0.00    +0.000 HD
BRANCH  20  22
ATOM     22  C   UNL     1       3.784   5.403  17.580  0.00  0.00    +0.000 A 
ATOM     23  C   UNL     1       3.474   6.755  17.423  0.00  0.00    +0.000 A 
ATOM     24  C   UNL     1       2.778   7.426  18.430  0.00  0.00    +0.000 A 
ATOM     25  C   UNL     1       2.411   6.750  19.594  0.00  0.00    +0.000 A 
ATOM     26  C   UNL     1       2.746   5.404  19.751  0.00  0.00    +0.000 A 
ATOM     27 CL   UNL     1       2.296   4.575  21.189  0.00  0.00    +0.000 Cl
ATOM     28  C   UNL     1       3.428   4.725  18.745  0.00  0.00    +0.000 A 
ENDBRANCH  20  22
ENDBRANCH  17  20
ENDBRANCH   5  17
TORSDOF 5
ENDMDL
MODEL 2
REMARK VINA RESULT:      -8.2      5.052      6.603
REMARK  Name = 
REMARK  5 active torsions:
REMARK  status: ('A' for Active; 'I' for Inactive)
REMARK    1  A    between atoms: C_2  and  C_10
REMARK    2  A    between atoms: N_3  and  C_4
REMARK    3  A    between atoms: C_14  and  S_15
REMARK    4  A    between atoms: S_15  and  N_18
REMARK    5  A    between atoms: N_18  and  C_19
REMARK                            x       y       z     vdW  Elec       q    Type
REMARK                         _______ _______ _______ _____ _____    ______ ____
ROOT
ATOM      1  C   UNL     1       2.804   7.191  19.095  0.00  0.00    +0.000 A 
ATOM      2  C   UNL     1       2.735   7.866  17.868  0.00  0.00    +0.000 A 
ATOM      3  C   UNL     1       3.587   7.512  16.820  0.00  0.00    +0.000 A 
ATOM      4  C   UNL     1       4.511   6.478  16.991  0.00  0.00    +0.000 A 
ATOM      5  C   UNL     1       4.560   5.791  18.210  0.00  0.00    +0.000 A 
ATOM      6  C   UNL     1       3.712   6.145  19.268  0.00  0.00    +0.000 A 
ENDROOT
BRANCH   1   8
ATOM      7  O   UNL     1       1.420   6.708  20.896  0.00  0.00    +0.000 OA
ATOM      8  C   UNL     1       1.863   7.590  20.174  0.00  0.00    +0.000 C 
ATOM      9  N   UNL     1       1.549   8.937  20.222  0.00  0.00    +0.000 N 
ATOM     10  H   UNL     1       1.849   9.518  19.447  0.00  0.00    +0.000 HD
BRANCH   9  11
ATOM     11  C   UNL     1       0.683   9.547  21.156  0.00  0.00    +0.000 A 
ATOM     12  C   UNL     1      -0.342  10.424  20.809  0.00  0.00    +0.000 A 
ATOM     13  C   UNL     1      -1.128  11.002  21.804  0.00  0.00    +0.000 A 
ATOM     14  C   UNL     1      -0.867  10.676  23.124  0.00  0.00    +0.000 A 
ATOM     15  N   UNL     1       0.099   9.812  23.504  0.00  0.00    +0.000 NA
ATOM     16  C   UNL     1       0.844   9.267  22.512  0.00  0.00    +0.000 A 
ENDBRANCH   9  11
ENDBRANCH   1   8
BRANCH   5  17
ATOM     17  S   UNL     1       5.777   4.516  18.477  0.00  0.00    +0.000 S 
ATOM     18  O   UNL     1       6.762   4.620  17.422  0.00  0.00    +0.000 OA
ATOM     19  O   UNL     1       6.157   4.593  19.872  0.00  0.00    +0.000 OA
BRANCH  17  20
ATOM     20  N   UNL     1       4.909   3.087  18.301  0.00  0.00    +0.000 N 
ATOM     21  H   UNL     1       5.464   2.233  18.338  0.00  0.00    +0.000 HD
BRANCH  20  22
ATOM     22  C   UNL     1       3.546   3.053  18.685  0.00  0.00    +0.000 A 
ATOM     23  C   UNL     1       2.543   3.158  17.720  0.00  0.00    +0.000 A 
ATOM     24  C   UNL     1       1.205   3.027  18.097  0.00  0.00    +0.000 A 
ATOM     25  C   UNL     1       0.876   2.810  19.436  0.00  0.00    +0.000 A 
ATOM     26  C   UNL     1       1.886   2.729  20.396  0.00  0.00    +0.000 A 
ATOM     27 CL   UNL     1       1.477   2.466  22.045  0.00  0.00    +0.000 Cl
ATOM     28  C   UNL     1       3.223   2.845  20.025  0.00  0.00    +0.000 A 
ENDBRANCH  20  22
ENDBRANCH  17  20
ENDBRANCH   5  17
TORSDOF 5
ENDMDL
MODEL 3
REMARK VINA RESULT:      -8.2      1.235      1.739
REMARK  Name = 
REMARK  5 active torsions:
REMARK  status: ('A' for Active; 'I' for Inactive)
REMARK    1  A    between atoms: C_2  and  C_10
REMARK    2  A    between atoms: N_3  and  C_4
REMARK    3  A    between atoms: C_14  and  S_15
REMARK    4  A    between atoms: S_15  and  N_18
REMARK    5  A    between atoms: N_18  and  C_19
REMARK                            x       y       z     vdW  Elec       q    Type
REMARK                         _______ _______ _______ _____ _____    ______ ____
ROOT
ATOM      1  C   UNL     1       8.010   7.751  18.197  0.00  0.00    +0.000 A 
ATOM      2  C   UNL     1       8.397   6.874  19.219  0.00  0.00    +0.000 A 
ATOM      3  C   UNL     1       8.100   5.513  19.130  0.00  0.00    +0.000 A 
ATOM      4  C   UNL     1       7.417   5.020  18.015  0.00  0.00    +0.000 A 
ATOM      5  C   UNL     1       7.054   5.896  16.985  0.00  0.00    +0.000 A 
ATOM      6  C   UNL     1       7.343   7.264  17.071  0.00  0.00    +0.000 A 
ENDROOT
BRANCH   1   8
ATOM      7  O   UNL     1       7.872   9.971  17.529  0.00  0.00    +0.000 OA
ATOM      8  C   UNL     1       8.366   9.188  18.328  0.00  0.00    +0.000 C 
ATOM      9  N   UNL     1       9.269   9.489  19.333  0.00  0.00    +0.000 N 
ATOM     10  H   UNL     1       9.733   8.714  19.796  0.00  0.00    +0.000 HD
BRANCH   9  11
ATOM     11  C   UNL     1       9.752  10.778  19.646  0.00  0.00    +0.000 A 
ATOM     12  C   UNL     1       9.459  11.452  20.830  0.00  0.00    +0.000 A 
ATOM     13  C   UNL     1       9.956  12.737  21.039  0.00  0.00    +0.000 A 
ATOM     14  C   UNL     1      10.742  13.309  20.054  0.00  0.00    +0.000 A 
ATOM     15  N   UNL     1      11.072  12.683  18.904  0.00  0.00    +0.000 NA
ATOM     16  C   UNL     1      10.573  11.435  18.732  0.00  0.00    +0.000 A 
ENDBRANCH   9  11
ENDBRANCH   1   8
BRANCH   5  17
ATOM     17  S   UNL     1       6.121   5.304  15.586  0.00  0.00    +0.000 S 
ATOM     18  O   UNL     1       5.241   6.371  15.160  0.00  0.00    +0.000 OA
ATOM     19  O   UNL     1       7.074   4.706  14.676  0.00  0.00    +0.000 OA
BRANCH  17  20
ATOM     20  N   UNL     1       5.209   4.039  16.216  0.00  0.00    +0.000 N 
ATOM     21  H   UNL     1       5.736   3.200  16.455  0.00  0.00    +0.000 HD
BRANCH  20  22
ATOM     22  C   UNL     1       4.005   4.328  16.902  0.00  0.00    +0.000 A 
ATOM     23  C   UNL     1       3.032   3.340  17.060  0.00  0.00    +0.000 A 
ATOM     24  C   UNL     1       1.892   3.608  17.820  0.00  0.00    +0.000 A 
ATOM     25  C   UNL     1       1.722   4.865  18.403  0.00  0.00    +0.000 A 
ATOM     26  C   UNL     1       2.690   5.853  18.220  0.00  0.00    +0.000 A 
ATOM     27 CL   UNL     1       2.475   7.401  18.936  0.00  0.00    +0.000 Cl
ATOM     28  C   UNL     1       3.836   5.588  17.474  0.00  0.00    +0.000 A 
ENDBRANCH  20  22
ENDBRANCH  17  20
ENDBRANCH   5  17
TORSDOF 5
ENDMDL
MODEL 4
REMARK VINA RESULT:      -8.1      1.056      1.415
REMARK  Name = 
REMARK  5 active torsions:
REMARK  status: ('A' for Active; 'I' for Inactive)
REMARK    1  A    between atoms: C_2  and  C_10
REMARK    2  A    between atoms: N_3  and  C_4
REMARK    3  A    between atoms: C_14  and  S_15
REMARK    4  A    between atoms: S_15  and  N_18
REMARK    5  A    between atoms: N_18  and  C_19
REMARK                            x       y       z     vdW  Elec       q    Type
REMARK                         _______ _______ _______ _____ _____    ______ ____
ROOT
ATOM      1  C   UNL     1       7.967   7.835  18.202  0.00  0.00    +0.000 A 
ATOM      2  C   UNL     1       8.415   6.913  19.159  0.00  0.00    +0.000 A 
ATOM      3  C   UNL     1       8.053   5.568  19.065  0.00  0.00    +0.000 A 
ATOM      4  C   UNL     1       7.245   5.135  18.010  0.00  0.00    +0.000 A 
ATOM      5  C   UNL     1       6.821   6.056  17.043  0.00  0.00    +0.000 A 
ATOM      6  C   UNL     1       7.174   7.408  17.136  0.00  0.00    +0.000 A 
ENDROOT
BRANCH   1   8
ATOM      7  O   UNL     1       7.982  10.050  17.504  0.00  0.00    +0.000 OA
ATOM      8  C   UNL     1       8.395   9.252  18.334  0.00  0.00    +0.000 C 
ATOM      9  N   UNL     1       9.265   9.517  19.378  0.00  0.00    +0.000 N 
ATOM     10  H   UNL     1       9.664   8.725  19.870  0.00  0.00    +0.000 HD
BRANCH   9  11
ATOM     11  C   UNL     1       9.802  10.783  19.699  0.00  0.00    +0.000 A 
ATOM     12  C   UNL     1      10.847  11.384  19.002  0.00  0.00    +0.000 A 
ATOM     13  C   UNL     1      11.333  12.625  19.411  0.00  0.00    +0.000 A 
ATOM     14  C   UNL     1      10.749  13.232  20.510  0.00  0.00    +0.000 A 
ATOM     15  N   UNL     1       9.719  12.698  21.199  0.00  0.00    +0.000 NA
ATOM     16  C   UNL     1       9.270  11.492  20.774  0.00  0.00    +0.000 A 
ENDBRANCH   9  11
ENDBRANCH   1   8
BRANCH   5  17
ATOM     17  S   UNL     1       5.731   5.543  15.729  0.00  0.00    +0.000 S 
ATOM     18  O   UNL     1       5.190   6.735  15.115  0.00  0.00    +0.000 OA
ATOM     19  O   UNL     1       6.455   4.558  14.953  0.00  0.00    +0.000 OA
BRANCH  17  20
ATOM     20  N   UNL     1       4.505   4.710  16.524  0.00  0.00    +0.000 N 
ATOM     21  H   UNL     1       4.602   3.697  16.534  0.00  0.00    +0.000 HD
BRANCH  20  22
ATOM     22  C   UNL     1       3.792   5.356  17.564  0.00  0.00    +0.000 A 
ATOM     23  C   UNL     1       3.649   4.736  18.806  0.00  0.00    +0.000 A 
ATOM     24  C   UNL     1       3.029   5.421  19.853  0.00  0.00    +0.000 A 
ATOM     25  C   UNL     1       2.541   6.713  19.648  0.00  0.00    +0.000 A 
ATOM     26  C   UNL     1       2.670   7.315  18.396  0.00  0.00    +0.000 A 
ATOM     27 CL   UNL     1       2.065   8.905  18.147  0.00  0.00    +0.000 Cl
ATOM     28  C   UNL     1       3.300   6.642  17.352  0.00  0.00    +0.000 A 
ENDBRANCH  20  22
ENDBRANCH  17  20
ENDBRANCH   5  17
TORSDOF 5
ENDMDL
MODEL 5
REMARK VINA RESULT:      -8.1      5.189      7.654
REMARK  Name = 
REMARK  5 active torsions:
REMARK  status: ('A' for Active; 'I' for Inactive)
REMARK    1  A    between atoms: C_2  and  C_10
REMARK    2  A    between atoms: N_3  and  C_4
REMARK    3  A    between atoms: C_14  and  S_15
REMARK    4  A    between atoms: S_15  and  N_18
REMARK    5  A    between atoms: N_18  and  C_19
REMARK                            x       y       z     vdW  Elec       q    Type
REMARK                         _______ _______ _______ _____ _____    ______ ____
ROOT
ATOM      1  C   UNL     1       2.937   6.394  18.885  0.00  0.00    +0.000 A 
ATOM      2  C   UNL     1       2.671   5.141  19.457  0.00  0.00    +0.000 A 
ATOM      3  C   UNL     1       1.832   5.037  20.568  0.00  0.00    +0.000 A 
ATOM      4  C   UNL     1       1.249   6.185  21.111  0.00  0.00    +0.000 A 
ATOM      5  C   UNL     1       1.498   7.431  20.522  0.00  0.00    +0.000 A 
ATOM      6  C   UNL     1       2.345   7.543  19.411  0.00  0.00    +0.000 A 
ENDROOT
BRANCH   1   8
ATOM      7  O   UNL     1       3.867   7.503  17.069  0.00  0.00    +0.000 OA
ATOM      8  C   UNL     1       3.821   6.451  17.691  0.00  0.00    +0.000 C 
ATOM      9  N   UNL     1       4.479   5.273  17.381  0.00  0.00    +0.000 N 
ATOM     10  H   UNL     1       4.202   4.434  17.878  0.00  0.00    +0.000 HD
BRANCH   9  11
ATOM     11  C   UNL     1       5.368   5.089  16.299  0.00  0.00    +0.000 A 
ATOM     12  C   UNL     1       5.063   4.348  15.160  0.00  0.00    +0.000 A 
ATOM     13  C   UNL     1       6.016   4.195  14.155  0.00  0.00    +0.000 A 
ATOM     14  C   UNL     1       7.251   4.799  14.319  0.00  0.00    +0.000 A 
ATOM     15  N   UNL     1       7.580   5.547  15.394  0.00  0.00    +0.000 NA
ATOM     16  C   UNL     1       6.630   5.677  16.352  0.00  0.00    +0.000 A 
ENDBRANCH   9  11
ENDBRANCH   1   8
BRANCH   5  17
ATOM     17  S   UNL     1       0.824   8.917  21.239  0.00  0.00    +0.000 S 
ATOM     18  O   UNL     1      -0.561   8.659  21.568  0.00  0.00    +0.000 OA
ATOM     19  O   UNL     1       1.768   9.355  22.245  0.00  0.00    +0.000 OA
BRANCH  17  20
ATOM     20  N   UNL     1       0.908  10.041  19.991  0.00  0.00    +0.000 N 
ATOM     21  H   UNL     1       1.755  10.001  19.426  0.00  0.00    +0.000 HD
BRANCH  20  22
ATOM     22  C   UNL     1      -0.291  10.534  19.422  0.00  0.00    +0.000 A 
ATOM     23  C   UNL     1      -0.952  11.615  20.007  0.00  0.00    +0.000 A 
ATOM     24  C   UNL     1      -2.080  12.155  19.385  0.00  0.00    +0.000 A 
ATOM     25  C   UNL     1      -2.550  11.601  18.193  0.00  0.00    +0.000 A 
ATOM     26  C   UNL     1      -1.895  10.506  17.629  0.00  0.00    +0.000 A 
ATOM     27 CL   UNL     1      -2.479   9.824  16.163  0.00  0.00    +0.000 Cl
ATOM     28  C   UNL     1      -0.762   9.972  18.237  0.00  0.00    +0.000 A 
ENDBRANCH  20  22
ENDBRANCH  17  20
ENDBRANCH   5  17
TORSDOF 5
ENDMDL
MODEL 6
REMARK VINA RESULT:      -8.0      5.521      7.019
REMARK  Name = 
REMARK  5 active torsions:
REMARK  status: ('A' for Active; 'I' for Inactive)
REMARK    1  A    between atoms: C_2  and  C_10
REMARK    2  A    between atoms: N_3  and  C_4
REMARK    3  A    between atoms: C_14  and  S_15
REMARK    4  A    between atoms: S_15  and  N_18
REMARK    5  A    between atoms: N_18  and  C_19
REMARK                            x       y       z     vdW  Elec       q    Type
REMARK                         _______ _______ _______ _____ _____    ______ ____
ROOT
ATOM      1  C   UNL     1       4.018   3.759  17.370  0.00  0.00    +0.000 A 
ATOM      2  C   UNL     1       3.962   2.359  17.324  0.00  0.00    +0.000 A 
ATOM      3  C   UNL     1       3.248   1.650  18.292  0.00  0.00    +0.000 A 
ATOM      4  C   UNL     1       2.583   2.337  19.311  0.00  0.00    +0.000 A 
ATOM      5  C   UNL     1       2.622   3.737  19.339  0.00  0.00    +0.000 A 
ATOM      6  C   UNL     1       3.342   4.454  18.374  0.00  0.00    +0.000 A 
ENDROOT
BRANCH   1   8
ATOM      7  O   UNL     1       4.702   5.691  16.277  0.00  0.00    +0.000 OA
ATOM      8  C   UNL     1       4.774   4.470  16.306  0.00  0.00    +0.000 C 
ATOM      9  N   UNL     1       5.459   3.659  15.419  0.00  0.00    +0.000 N 
ATOM     10  H   UNL     1       5.279   2.661  15.457  0.00  0.00    +0.000 HD
BRANCH   9  11
ATOM     11  C   UNL     1       6.244   4.106  14.333  0.00  0.00    +0.000 A 
ATOM     12  C   UNL     1       6.111   3.632  13.030  0.00  0.00    +0.000 A 
ATOM     13  C   UNL     1       6.952   4.111  12.028  0.00  0.00    +0.000 A 
ATOM     14  C   UNL     1       7.902   5.061  12.361  0.00  0.00    +0.000 A 
ATOM     15  N   UNL     1       8.049   5.566  13.604  0.00  0.00    +0.000 NA
ATOM     16  C   UNL     1       7.215   5.081  14.555  0.00  0.00    +0.000 A 
ENDBRANCH   9  11
ENDBRANCH   1   8
BRANCH   5  17
ATOM     17  S   UNL     1       1.842   4.633  20.667  0.00  0.00    +0.000 S 
ATOM     18  O   UNL     1       0.476   4.904  20.274  0.00  0.00    +0.000 OA
ATOM     19  O   UNL     1       2.146   3.913  21.886  0.00  0.00    +0.000 OA
BRANCH  17  20
ATOM     20  N   UNL     1       2.705   6.075  20.742  0.00  0.00    +0.000 N 
ATOM     21  H   UNL     1       3.718   5.976  20.737  0.00  0.00    +0.000 HD
BRANCH  20  22
ATOM     22  C   UNL     1       2.113   7.261  20.244  0.00  0.00    +0.000 A 
ATOM     23  C   UNL     1       2.305   7.636  18.914  0.00  0.00    +0.000 A 
ATOM     24  C   UNL     1       1.640   8.755  18.408  0.00  0.00    +0.000 A 
ATOM     25  C   UNL     1       0.801   9.501  19.237  0.00  0.00    +0.000 A 
ATOM     26  C   UNL     1       0.634   9.131  20.572  0.00  0.00    +0.000 A 
ATOM     27 CL   UNL     1      -0.396  10.056  21.592  0.00  0.00    +0.000 Cl
ATOM     28  C   UNL     1       1.284   8.009  21.079  0.00  0.00    +0.000 A 
ENDBRANCH  20  22
ENDBRANCH  17  20
ENDBRANCH   5  17
TORSDOF 5
ENDMDL
MODEL 7
REMARK VINA RESULT:      -8.0      1.142      1.406
REMARK  Name = 
REMARK  5 active torsions:
REMARK  status: ('A' for Active; 'I' for Inactive)
REMARK    1  A    between atoms: C_2  and  C_10
REMARK    2  A    between atoms: N_3  and  C_4
REMARK    3  A    between atoms: C_14  and  S_15
REMARK    4  A    between atoms: S_15  and  N_18
REMARK    5  A    between atoms: N_18  and  C_19
REMARK                            x       y       z     vdW  Elec       q    Type
REMARK                         _______ _______ _______ _____ _____    ______ ____
ROOT
ATOM      1  C   UNL     1       7.873   7.813  18.227  0.00  0.00    +0.000 A 
ATOM      2  C   UNL     1       8.481   6.860  19.058  0.00  0.00    +0.000 A 
ATOM      3  C   UNL     1       8.045   5.534  19.044  0.00  0.00    +0.000 A 
ATOM      4  C   UNL     1       7.003   5.151  18.196  0.00  0.00    +0.000 A 
ATOM      5  C   UNL     1       6.416   6.100  17.351  0.00  0.00    +0.000 A 
ATOM      6  C   UNL     1       6.843   7.434  17.365  0.00  0.00    +0.000 A 
ENDROOT
BRANCH   1   8
ATOM      7  O   UNL     1       8.027   9.967  17.373  0.00  0.00    +0.000 OA
ATOM      8  C   UNL     1       8.384   9.208  18.263  0.00  0.00    +0.000 C 
ATOM      9  N   UNL     1       9.260   9.495  19.296  0.00  0.00    +0.000 N 
ATOM     10  H   UNL     1       9.606   8.719  19.849  0.00  0.00    +0.000 HD
BRANCH   9  11
ATOM     11  C   UNL     1       9.869  10.747  19.533  0.00  0.00    +0.000 A 
ATOM     12  C   UNL     1      10.919  11.257  18.773  0.00  0.00    +0.000 A 
ATOM     13  C   UNL     1      11.479  12.491  19.101  0.00  0.00    +0.000 A 
ATOM     14  C   UNL     1      10.963  13.183  20.183  0.00  0.00    +0.000 A 
ATOM     15  N   UNL     1       9.930  12.738  20.931  0.00  0.00    +0.000 NA
ATOM     16  C   UNL     1       9.408  11.537  20.584  0.00  0.00    +0.000 A 
ENDBRANCH   9  11
ENDBRANCH   1   8
BRANCH   5  17
ATOM     17  S   UNL     1       5.038   5.652  16.312  0.00  0.00    +0.000 S 
ATOM     18  O   UNL     1       5.208   6.322  15.041  0.00  0.00    +0.000 OA
ATOM     19  O   UNL     1       4.911   4.213  16.394  0.00  0.00    +0.000 OA
BRANCH  17  20
ATOM     20  N   UNL     1       3.705   6.292  17.114  0.00  0.00    +0.000 N 
ATOM     21  H   UNL     1       3.127   6.922  16.561  0.00  0.00    +0.000 HD
BRANCH  20  22
ATOM     22  C   UNL     1       3.127   5.566  18.183  0.00  0.00    +0.000 A 
ATOM     23  C   UNL     1       3.252   6.027  19.494  0.00  0.00    +0.000 A 
ATOM     24  C   UNL     1       2.597   5.357  20.528  0.00  0.00    +0.000 A 
ATOM     25  C   UNL     1       1.835   4.221  20.250  0.00  0.00    +0.000 A 
ATOM     26  C   UNL     1       1.735   3.754  18.939  0.00  0.00    +0.000 A 
ATOM     27 CL   UNL     1       0.800   2.352  18.601  0.00  0.00    +0.000 Cl
ATOM     28  C   UNL     1       2.375   4.426  17.901  0.00  0.00    +0.000 A 
ENDBRANCH  20  22
ENDBRANCH  17  20
ENDBRANCH   5  17
TORSDOF 5
ENDMDL
MODEL 8
REMARK VINA RESULT:      -8.0      1.427      1.940
REMARK  Name = 
REMARK  5 active torsions:
REMARK  status: ('A' for Active; 'I' for Inactive)
REMARK    1  A    between atoms: C_2  and  C_10
REMARK    2  A    between atoms: N_3  and  C_4
REMARK    3  A    between atoms: C_14  and  S_15
REMARK    4  A    between atoms: S_15  and  N_18
REMARK    5  A    between atoms: N_18  and  C_19
REMARK                            x       y       z     vdW  Elec       q    Type
REMARK                         _______ _______ _______ _____ _____    ______ ____
ROOT
ATOM      1  C   UNL     1       7.909   7.898  18.248  0.00  0.00    +0.000 A 
ATOM      2  C   UNL     1       8.516   6.947  19.080  0.00  0.00    +0.000 A 
ATOM      3  C   UNL     1       8.099   5.614  19.048  0.00  0.00    +0.000 A 
ATOM      4  C   UNL     1       7.077   5.225  18.181  0.00  0.00    +0.000 A 
ATOM      5  C   UNL     1       6.490   6.174  17.334  0.00  0.00    +0.000 A 
ATOM      6  C   UNL     1       6.899   7.513  17.366  0.00  0.00    +0.000 A 
ENDROOT
BRANCH   1   8
ATOM      7  O   UNL     1       7.987  10.081  17.460  0.00  0.00    +0.000 OA
ATOM      8  C   UNL     1       8.401   9.300  18.304  0.00  0.00    +0.000 C 
ATOM      9  N   UNL     1       9.324   9.568  19.300  0.00  0.00    +0.000 N 
ATOM     10  H   UNL     1       9.710   8.780  19.809  0.00  0.00    +0.000 HD
BRANCH   9  11
ATOM     11  C   UNL     1       9.926  10.821  19.548  0.00  0.00    +0.000 A 
ATOM     12  C   UNL     1       9.701  11.579  20.694  0.00  0.00    +0.000 A 
ATOM     13  C   UNL     1      10.317  12.821  20.838  0.00  0.00    +0.000 A 
ATOM     14  C   UNL     1      11.150  13.266  19.825  0.00  0.00    +0.000 A 
ATOM     15  N   UNL     1      11.416  12.554  18.710  0.00  0.00    +0.000 NA
ATOM     16  C   UNL     1      10.803  11.350  18.602  0.00  0.00    +0.000 A 
ENDBRANCH   9  11
ENDBRANCH   1   8
BRANCH   5  17
ATOM     17  S   UNL     1       5.135   5.716  16.269  0.00  0.00    +0.000 S 
ATOM     18  O   UNL     1       5.086   6.671  15.184  0.00  0.00    +0.000 OA
ATOM     19  O   UNL     1       5.268   4.297  16.019  0.00  0.00    +0.000 OA
BRANCH  17  20
ATOM     20  N   UNL     1       3.777   5.900  17.245  0.00  0.00    +0.000 N 
ATOM     21  H   UNL     1       3.171   6.681  17.003  0.00  0.00    +0.000 HD
BRANCH  20  22
ATOM     22  C   UNL     1       3.233   4.765  17.893  0.00  0.00    +0.000 A 
ATOM     23  C   UNL     1       1.962   4.303  17.550  0.00  0.00    +0.000 A 
ATOM     24  C   UNL     1       1.475   3.128  18.126  0.00  0.00    +0.000 A 
ATOM     25  C   UNL     1       2.253   2.431  19.052  0.00  0.00    +0.000 A 
ATOM     26  C   UNL     1       3.513   2.914  19.404  0.00  0.00    +0.000 A 
ATOM     27 CL   UNL     1       4.467   2.055  20.549  0.00  0.00    +0.000 Cl
ATOM     28  C   UNL     1       4.011   4.077  18.824  0.00  0.00    +0.000 A 
ENDBRANCH  20  22
ENDBRANCH  17  20
ENDBRANCH   5  17
TORSDOF 5
ENDMDL
MODEL 9
REMARK VINA RESULT:      -7.9      6.272      9.335
REMARK  Name = 
REMARK  5 active torsions:
REMARK  status: ('A' for Active; 'I' for Inactive)
REMARK    1  A    between atoms: C_2  and  C_10
REMARK    2  A    between atoms: N_3  and  C_4
REMARK    3  A    between atoms: C_14  and  S_15
REMARK    4  A    between atoms: S_15  and  N_18
REMARK    5  A    between atoms: N_18  and  C_19
REMARK                            x       y       z     vdW  Elec       q    Type
REMARK                         _______ _______ _______ _____ _____    ______ ____
ROOT
ATOM      1  C   UNL     1       2.193   7.905  18.762  0.00  0.00    +0.000 A 
ATOM      2  C   UNL     1       2.099   8.859  17.739  0.00  0.00    +0.000 A 
ATOM      3  C   UNL     1       1.500  10.096  17.982  0.00  0.00    +0.000 A 
ATOM      4  C   UNL     1       0.997  10.390  19.252  0.00  0.00    +0.000 A 
ATOM      5  C   UNL     1       1.116   9.444  20.277  0.00  0.00    +0.000 A 
ATOM      6  C   UNL     1       1.709   8.197  20.038  0.00  0.00    +0.000 A 
ENDROOT
BRANCH   1   8
ATOM      7  O   UNL     1       3.881   6.638  17.793  0.00  0.00    +0.000 OA
ATOM      8  C   UNL     1       2.857   6.610  18.460  0.00  0.00    +0.000 C 
ATOM      9  N   UNL     1       2.210   5.483  18.938  0.00  0.00    +0.000 N 
ATOM     10  H   UNL     1       1.275   5.602  19.315  0.00  0.00    +0.000 HD
BRANCH   9  11
ATOM     11  C   UNL     1       2.650   4.151  18.777  0.00  0.00    +0.000 A 
ATOM     12  C   UNL     1       2.244   3.319  17.736  0.00  0.00    +0.000 A 
ATOM     13  C   UNL     1       2.708   2.007  17.675  0.00  0.00    +0.000 A 
ATOM     14  C   UNL     1       3.576   1.567  18.660  0.00  0.00    +0.000 A 
ATOM     15  N   UNL     1       4.014   2.346  19.671  0.00  0.00    +0.000 NA
ATOM     16  C   UNL     1       3.545   3.616  19.701  0.00  0.00    +0.000 A 
ENDBRANCH   9  11
ENDBRANCH   1   8
BRANCH   5  17
ATOM     17  S   UNL     1       0.419   9.766  21.886  0.00  0.00    +0.000 S 
ATOM     18  O   UNL     1      -0.841   9.061  21.969  0.00  0.00    +0.000 OA
ATOM     19  O   UNL     1       1.476   9.537  22.848  0.00  0.00    +0.000 OA
BRANCH  17  20
ATOM     20  N   UNL     1       0.138  11.425  21.878  0.00  0.00    +0.000 N 
ATOM     21  H   UNL     1       0.868  11.987  21.445  0.00  0.00    +0.000 HD
BRANCH  20  22
ATOM     22  C   UNL     1      -1.195  11.900  21.895  0.00  0.00    +0.000 A 
ATOM     23  C   UNL     1      -1.827  12.261  20.704  0.00  0.00    +0.000 A 
ATOM     24  C   UNL     1      -3.172  12.637  20.721  0.00  0.00    +0.000 A 
ATOM     25  C   UNL     1      -3.872  12.666  21.929  0.00  0.00    +0.000 A 
ATOM     26  C   UNL     1      -3.224  12.326  23.116  0.00  0.00    +0.000 A 
ATOM     27 CL   UNL     1      -4.089  12.368  24.602  0.00  0.00    +0.000 Cl
ATOM     28  C   UNL     1      -1.887  11.937  23.105  0.00  0.00    +0.000 A 
ENDBRANCH  20  22
ENDBRANCH  17  20
ENDBRANCH   5  17
TORSDOF 5
ENDMDL
