MODEL 1
REMARK VINA RESULT:      -9.0      0.000      0.000
REMARK  Name = 
REMARK  8 active torsions:
REMARK  status: ('A' for Active; 'I' for Inactive)
REMARK    1  A    between atoms: C_1  and  N_2
REMARK    2  A    between atoms: C_6  and  C_7
REMARK    3  A    between atoms: C_7  and  N_8
REMARK    4  A    between atoms: N_8  and  C_9
REMARK    5  A    between atoms: C_9  and  C_10
REMARK    6  A    between atoms: C_12  and  N_13
REMARK    7  A    between atoms: C_15  and  N_16
REMARK    8  A    between atoms: C_23  and  C_24
REMARK                            x       y       z     vdW  Elec       q    Type
REMARK                         _______ _______ _______ _____ _____    ______ ____
ROOT
ATOM      1  C   UNL     1       4.513   4.844  18.628  0.00  0.00    +0.000 A 
ATOM      2  C   UNL     1       3.912   3.683  19.129  0.00  0.00    +0.000 A 
ATOM      3  C   UNL     1       2.670   3.739  19.754  0.00  0.00    +0.000 A 
ATOM      4  C   UNL     1       2.073   4.988  19.960  0.00  0.00    +0.000 A 
ATOM      5  C   UNL     1       2.621   6.168  19.438  0.00  0.00    +0.000 A 
ATOM      6  C   UNL     1       3.845   6.073  18.762  0.00  0.00    +0.000 A 
ENDROOT
BRANCH   5   7
ATOM      7  N   UNL     1       1.969   7.422  19.585  0.00  0.00    +0.000 N 
ATOM      8  C   UNL     1       1.294   7.807  20.817  0.00  0.00    +0.000 C 
ATOM      9  C   UNL     1       0.818   9.198  20.538  0.00  0.00    +0.000 A 
ATOM     10  C   UNL     1       1.189   9.558  19.246  0.00  0.00    +0.000 A 
ATOM     11  C   UNL     1       0.882  10.784  18.686  0.00  0.00    +0.000 A 
ATOM     12  C   UNL     1       0.166  11.684  19.469  0.00  0.00    +0.000 A 
ATOM     13  C   UNL     1      -0.210  11.345  20.783  0.00  0.00    +0.000 A 
ATOM     14  C   UNL     1       0.116  10.091  21.343  0.00  0.00    +0.000 A 
ATOM     15  C   UNL     1       1.930   8.450  18.642  0.00  0.00    +0.000 C 
ATOM     16  O   UNL     1       2.381   8.527  17.511  0.00  0.00    +0.000 OA
BRANCH  14  17
ATOM     17  C   UNL     1      -0.286   9.774  22.759  0.00  0.00    +0.000 C 
ATOM     18  F   UNL     1      -0.987  10.773  23.363  0.00  0.00    +0.000 F 
ATOM     19  F   UNL     1      -1.071   8.666  22.840  0.00  0.00    +0.000 F 
ATOM     20  F   UNL     1       0.786   9.537  23.562  0.00  0.00    +0.000 F 
ENDBRANCH  14  17
ENDBRANCH   5   7
BRANCH   3  21
ATOM     21  N   UNL     1       2.142   2.599  20.375  0.00  0.00    +0.000 N 
ATOM     22  H   UNL     1       2.757   1.792  20.346  0.00  0.00    +0.000 HD
ATOM     23  H   UNL     1       1.201   2.373  20.066  0.00  0.00    +0.000 HD
ENDBRANCH   3  21
BRANCH   1  24
ATOM     24  C   UNL     1       5.888   4.784  18.007  0.00  0.00    +0.000 C 
BRANCH  24  25
ATOM     25  N   UNL     1       6.017   3.710  17.015  0.00  0.00    +0.000 NA
ATOM     26  H   UNL     1       7.013   3.562  16.840  0.00  0.00    +0.000 HD
BRANCH  25  27
ATOM     27  C   UNL     1       5.411   4.080  15.727  0.00  0.00    +0.000 C 
BRANCH  27  33
ATOM     28  C   UNL     1       5.704   3.357  12.702  0.00  0.00    +0.000 C 
ATOM     29  N   UNL     1       6.559   4.229  13.460  0.00  0.00    +0.000 N 
ATOM     30  C   UNL     1       7.646   4.893  12.980  0.00  0.00    +0.000 A 
ATOM     31  N   UNL     1       8.192   5.597  13.944  0.00  0.00    +0.000 NA
ATOM     32  N   UNL     1       7.449   5.388  15.082  0.00  0.00    +0.000 NA
ATOM     33  C   UNL     1       6.461   4.566  14.785  0.00  0.00    +0.000 A 
ENDBRANCH  27  33
ENDBRANCH  25  27
ENDBRANCH  24  25
ENDBRANCH   1  24
TORSDOF 7
ENDMDL
MODEL 2
REMARK VINA RESULT:      -9.0      1.553      2.307
REMARK  Name = 
REMARK  8 active torsions:
REMARK  status: ('A' for Active; 'I' for Inactive)
REMARK    1  A    between atoms: C_1  and  N_2
REMARK    2  A    between atoms: C_6  and  C_7
REMARK    3  A    between atoms: C_7  and  N_8
REMARK    4  A    between atoms: N_8  and  C_9
REMARK    5  A    between atoms: C_9  and  C_10
REMARK    6  A    between atoms: C_12  and  N_13
REMARK    7  A    between atoms: C_15  and  N_16
REMARK    8  A    between atoms: C_23  and  C_24
REMARK                            x       y       z     vdW  Elec       q    Type
REMARK                         _______ _______ _______ _____ _____    ______ ____
ROOT
ATOM      1  C   UNL     1       3.188   3.850  18.366  0.00  0.00    +0.000 A 
ATOM      2  C   UNL     1       3.090   3.018  19.488  0.00  0.00    +0.000 A 
ATOM      3  C   UNL     1       2.563   3.498  20.683  0.00  0.00    +0.000 A 
ATOM      4  C   UNL     1       2.222   4.852  20.776  0.00  0.00    +0.000 A 
ATOM      5  C   UNL     1       2.266   5.707  19.665  0.00  0.00    +0.000 A 
ATOM      6  C   UNL     1       2.746   5.180  18.458  0.00  0.00    +0.000 A 
ENDROOT
BRANCH   5   7
ATOM      7  N   UNL     1       1.845   7.061  19.749  0.00  0.00    +0.000 N 
ATOM      8  C   UNL     1       1.191   7.600  20.934  0.00  0.00    +0.000 C 
ATOM      9  C   UNL     1       0.989   9.044  20.600  0.00  0.00    +0.000 A 
ATOM     10  C   UNL     1       1.481   9.291  19.321  0.00  0.00    +0.000 A 
ATOM     11  C   UNL     1       1.427  10.533  18.718  0.00  0.00    +0.000 A 
ATOM     12  C   UNL     1       0.848  11.571  19.441  0.00  0.00    +0.000 A 
ATOM     13  C   UNL     1       0.354  11.347  20.740  0.00  0.00    +0.000 A 
ATOM     14  C   UNL     1       0.421  10.073  21.345  0.00  0.00    +0.000 A 
ATOM     15  C   UNL     1       2.038   8.049  18.783  0.00  0.00    +0.000 C 
ATOM     16  O   UNL     1       2.549   8.009  17.676  0.00  0.00    +0.000 OA
BRANCH  14  17
ATOM     17  C   UNL     1      -0.100   9.879  22.744  0.00  0.00    +0.000 C 
ATOM     18  F   UNL     1      -1.060   8.918  22.839  0.00  0.00    +0.000 F 
ATOM     19  F   UNL     1       0.879   9.514  23.616  0.00  0.00    +0.000 F 
ATOM     20  F   UNL     1      -0.657  11.011  23.253  0.00  0.00    +0.000 F 
ENDBRANCH  14  17
ENDBRANCH   5   7
BRANCH   3  21
ATOM     21  N   UNL     1       2.599   2.704  21.837  0.00  0.00    +0.000 N 
ATOM     22  H   UNL     1       3.459   2.787  22.369  0.00  0.00    +0.000 HD
ATOM     23  H   UNL     1       2.349   1.733  21.664  0.00  0.00    +0.000 HD
ENDBRANCH   3  21
BRANCH   1  24
ATOM     24  C   UNL     1       3.817   3.339  17.091  0.00  0.00    +0.000 C 
BRANCH  24  25
ATOM     25  N   UNL     1       4.608   4.362  16.397  0.00  0.00    +0.000 NA
ATOM     26  H   UNL     1       4.403   4.294  15.398  0.00  0.00    +0.000 HD
BRANCH  25  27
ATOM     27  C   UNL     1       6.053   4.135  16.550  0.00  0.00    +0.000 C 
BRANCH  27  33
ATOM     28  C   UNL     1       6.414   5.364  19.399  0.00  0.00    +0.000 C 
ATOM     29  N   UNL     1       6.883   5.922  18.161  0.00  0.00    +0.000 N 
ATOM     30  C   UNL     1       7.572   7.088  18.023  0.00  0.00    +0.000 A 
ATOM     31  N   UNL     1       7.839   7.294  16.755  0.00  0.00    +0.000 NA
ATOM     32  N   UNL     1       7.313   6.241  16.044  0.00  0.00    +0.000 NA
ATOM     33  C   UNL     1       6.740   5.413  16.896  0.00  0.00    +0.000 A 
ENDBRANCH  27  33
ENDBRANCH  25  27
ENDBRANCH  24  25
ENDBRANCH   1  24
TORSDOF 7
ENDMDL
MODEL 3
REMARK VINA RESULT:      -8.8      1.540      2.532
REMARK  Name = 
REMARK  8 active torsions:
REMARK  status: ('A' for Active; 'I' for Inactive)
REMARK    1  A    between atoms: C_1  and  N_2
REMARK    2  A    between atoms: C_6  and  C_7
REMARK    3  A    between atoms: C_7  and  N_8
REMARK    4  A    between atoms: N_8  and  C_9
REMARK    5  A    between atoms: C_9  and  C_10
REMARK    6  A    between atoms: C_12  and  N_13
REMARK    7  A    between atoms: C_15  and  N_16
REMARK    8  A    between atoms: C_23  and  C_24
REMARK                            x       y       z     vdW  Elec       q    Type
REMARK                         _______ _______ _______ _____ _____    ______ ____
ROOT
ATOM      1  C   UNL     1       3.820   4.266  17.929  0.00  0.00    +0.000 A 
ATOM      2  C   UNL     1       3.648   3.309  18.936  0.00  0.00    +0.000 A 
ATOM      3  C   UNL     1       2.946   3.619  20.097  0.00  0.00    +0.000 A 
ATOM      4  C   UNL     1       2.498   4.930  20.286  0.00  0.00    +0.000 A 
ATOM      5  C   UNL     1       2.613   5.906  19.286  0.00  0.00    +0.000 A 
ATOM      6  C   UNL     1       3.274   5.549  18.103  0.00  0.00    +0.000 A 
ENDROOT
BRANCH   5   7
ATOM      7  N   UNL     1       2.087   7.215  19.456  0.00  0.00    +0.000 N 
ATOM      8  C   UNL     1       1.428   7.634  20.686  0.00  0.00    +0.000 C 
ATOM      9  C   UNL     1       1.100   9.072  20.437  0.00  0.00    +0.000 A 
ATOM     10  C   UNL     1       1.531   9.427  19.162  0.00  0.00    +0.000 A 
ATOM     11  C   UNL     1       1.359  10.691  18.630  0.00  0.00    +0.000 A 
ATOM     12  C   UNL     1       0.720  11.638  19.425  0.00  0.00    +0.000 A 
ATOM     13  C   UNL     1       0.286  11.305  20.722  0.00  0.00    +0.000 A 
ATOM     14  C   UNL     1       0.473  10.011  21.254  0.00  0.00    +0.000 A 
ATOM     15  C   UNL     1       2.170   8.266  18.541  0.00  0.00    +0.000 C 
ATOM     16  O   UNL     1       2.649   8.326  17.421  0.00  0.00    +0.000 OA
BRANCH  14  17
ATOM     17  C   UNL     1       0.013   9.699  22.653  0.00  0.00    +0.000 C 
ATOM     18  F   UNL     1      -0.952   8.740  22.708  0.00  0.00    +0.000 F 
ATOM     19  F   UNL     1       1.025   9.255  23.445  0.00  0.00    +0.000 F 
ATOM     20  F   UNL     1      -0.509  10.787  23.281  0.00  0.00    +0.000 F 
ENDBRANCH  14  17
ENDBRANCH   5   7
BRANCH   3  21
ATOM     21  N   UNL     1       2.899   2.702  21.157  0.00  0.00    +0.000 N 
ATOM     22  H   UNL     1       3.804   2.320  21.412  0.00  0.00    +0.000 HD
ATOM     23  H   UNL     1       2.200   1.975  21.028  0.00  0.00    +0.000 HD
ENDBRANCH   3  21
BRANCH   1  24
ATOM     24  C   UNL     1       4.636   3.941  16.700  0.00  0.00    +0.000 C 
BRANCH  24  25
ATOM     25  N   UNL     1       5.350   5.107  16.167  0.00  0.00    +0.000 NA
ATOM     26  H   UNL     1       5.077   5.223  15.188  0.00  0.00    +0.000 HD
BRANCH  25  27
ATOM     27  C   UNL     1       6.807   4.908  16.178  0.00  0.00    +0.000 C 
BRANCH  27  33
ATOM     28  C   UNL     1       7.214   7.801  17.285  0.00  0.00    +0.000 C 
ATOM     29  N   UNL     1       7.531   6.574  17.962  0.00  0.00    +0.000 N 
ATOM     30  C   UNL     1       8.062   6.467  19.211  0.00  0.00    +0.000 A 
ATOM     31  N   UNL     1       8.222   5.200  19.514  0.00  0.00    +0.000 NA
ATOM     32  N   UNL     1       7.789   4.459  18.440  0.00  0.00    +0.000 NA
ATOM     33  C   UNL     1       7.367   5.291  17.507  0.00  0.00    +0.000 A 
ENDBRANCH  27  33
ENDBRANCH  25  27
ENDBRANCH  24  25
ENDBRANCH   1  24
TORSDOF 7
ENDMDL
MODEL 4
REMARK VINA RESULT:      -8.7      1.142      1.580
REMARK  Name = 
REMARK  8 active torsions:
REMARK  status: ('A' for Active; 'I' for Inactive)
REMARK    1  A    between atoms: C_1  and  N_2
REMARK    2  A    between atoms: C_6  and  C_7
REMARK    3  A    between atoms: C_7  and  N_8
REMARK    4  A    between atoms: N_8  and  C_9
REMARK    5  A    between atoms: C_9  and  C_10
REMARK    6  A    between atoms: C_12  and  N_13
REMARK    7  A    between atoms: C_15  and  N_16
REMARK    8  A    between atoms: C_23  and  C_24
REMARK                            x       y       z     vdW  Elec       q    Type
REMARK                         _______ _______ _______ _____ _____    ______ ____
ROOT
ATOM      1  C   UNL     1       3.843   4.130  19.258  0.00  0.00    +0.000 A 
ATOM      2  C   UNL     1       3.297   3.180  20.129  0.00  0.00    +0.000 A 
ATOM      3  C   UNL     1       2.243   3.515  20.974  0.00  0.00    +0.000 A 
ATOM      4  C   UNL     1       1.800   4.842  21.008  0.00  0.00    +0.000 A 
ATOM      5  C   UNL     1       2.291   5.812  20.123  0.00  0.00    +0.000 A 
ATOM      6  C   UNL     1       3.313   5.431  19.243  0.00  0.00    +0.000 A 
ENDROOT
BRANCH   5   7
ATOM      7  N   UNL     1       1.782   7.138  20.112  0.00  0.00    +0.000 N 
ATOM      8  C   UNL     1       1.097   7.718  21.260  0.00  0.00    +0.000 C 
ATOM      9  C   UNL     1       0.799   9.117  20.823  0.00  0.00    +0.000 A 
ATOM     10  C   UNL     1       1.270   9.302  19.527  0.00  0.00    +0.000 A 
ATOM     11  C   UNL     1       1.133  10.491  18.836  0.00  0.00    +0.000 A 
ATOM     12  C   UNL     1       0.489  11.539  19.487  0.00  0.00    +0.000 A 
ATOM     13  C   UNL     1       0.014  11.377  20.802  0.00  0.00    +0.000 A 
ATOM     14  C   UNL     1       0.166  10.158  21.497  0.00  0.00    +0.000 A 
ATOM     15  C   UNL     1       1.907   8.064  19.075  0.00  0.00    +0.000 C 
ATOM     16  O   UNL     1       2.417   7.977  17.971  0.00  0.00    +0.000 OA
BRANCH  14  17
ATOM     17  C   UNL     1      -0.337  10.032  22.911  0.00  0.00    +0.000 C 
ATOM     18  F   UNL     1      -0.897  11.175  23.394  0.00  0.00    +0.000 F 
ATOM     19  F   UNL     1      -1.288   9.068  23.038  0.00  0.00    +0.000 F 
ATOM     20  F   UNL     1       0.652   9.705  23.785  0.00  0.00    +0.000 F 
ENDBRANCH  14  17
ENDBRANCH   5   7
BRANCH   3  21
ATOM     21  N   UNL     1       1.797   2.602  21.939  0.00  0.00    +0.000 N 
ATOM     22  H   UNL     1       0.914   2.855  22.369  0.00  0.00    +0.000 HD
ATOM     23  H   UNL     1       2.506   2.372  22.631  0.00  0.00    +0.000 HD
ENDBRANCH   3  21
BRANCH   1  24
ATOM     24  C   UNL     1       5.027   3.775  18.389  0.00  0.00    +0.000 C 
BRANCH  24  25
ATOM     25  N   UNL     1       6.303   4.229  18.955  0.00  0.00    +0.000 NA
ATOM     26  H   UNL     1       6.148   4.457  19.939  0.00  0.00    +0.000 HD
BRANCH  25  27
ATOM     27  C   UNL     1       6.784   5.458  18.306  0.00  0.00    +0.000 C 
BRANCH  27  33
ATOM     28  C   UNL     1       4.899   6.659  16.124  0.00  0.00    +0.000 C 
ATOM     29  N   UNL     1       6.031   5.803  15.899  0.00  0.00    +0.000 N 
ATOM     30  C   UNL     1       6.477   5.373  14.687  0.00  0.00    +0.000 A 
ATOM     31  N   UNL     1       7.530   4.607  14.851  0.00  0.00    +0.000 NA
ATOM     32  N   UNL     1       7.780   4.531  16.202  0.00  0.00    +0.000 NA
ATOM     33  C   UNL     1       6.877   5.258  16.831  0.00  0.00    +0.000 A 
ENDBRANCH  27  33
ENDBRANCH  25  27
ENDBRANCH  24  25
ENDBRANCH   1  24
TORSDOF 7
ENDMDL
MODEL 5
REMARK VINA RESULT:      -8.7      1.682      2.310
REMARK  Name = 
REMARK  8 active torsions:
REMARK  status: ('A' for Active; 'I' for Inactive)
REMARK    1  A    between atoms: C_1  and  N_2
REMARK    2  A    between atoms: C_6  and  C_7
REMARK    3  A    between atoms: C_7  and  N_8
REMARK    4  A    between atoms: N_8  and  C_9
REMARK    5  A    between atoms: C_9  and  C_10
REMARK    6  A    between atoms: C_12  and  N_13
REMARK    7  A    between atoms: C_15  and  N_16
REMARK    8  A    between atoms: C_23  and  C_24
REMARK                            x       y       z     vdW  Elec       q    Type
REMARK                         _______ _______ _______ _____ _____    ______ ____
ROOT
ATOM      1  C   UNL     1       3.647   3.715  18.876  0.00  0.00    +0.000 A 
ATOM      2  C   UNL     1       3.194   2.852  19.880  0.00  0.00    +0.000 A 
ATOM      3  C   UNL     1       2.315   3.302  20.861  0.00  0.00    +0.000 A 
ATOM      4  C   UNL     1       1.965   4.657  20.884  0.00  0.00    +0.000 A 
ATOM      5  C   UNL     1       2.363   5.544  19.874  0.00  0.00    +0.000 A 
ATOM      6  C   UNL     1       3.202   5.048  18.866  0.00  0.00    +0.000 A 
ENDROOT
BRANCH   5   7
ATOM      7  N   UNL     1       1.941   6.901  19.863  0.00  0.00    +0.000 N 
ATOM      8  C   UNL     1       1.265   7.513  20.999  0.00  0.00    +0.000 C 
ATOM      9  C   UNL     1       1.070   8.933  20.569  0.00  0.00    +0.000 A 
ATOM     10  C   UNL     1       1.586   9.098  19.287  0.00  0.00    +0.000 A 
ATOM     11  C   UNL     1       1.544  10.299  18.605  0.00  0.00    +0.000 A 
ATOM     12  C   UNL     1       0.952  11.381  19.250  0.00  0.00    +0.000 A 
ATOM     13  C   UNL     1       0.433  11.239  20.550  0.00  0.00    +0.000 A 
ATOM     14  C   UNL     1       0.488  10.007  21.237  0.00  0.00    +0.000 A 
ATOM     15  C   UNL     1       2.153   7.825  18.839  0.00  0.00    +0.000 C 
ATOM     16  O   UNL     1       2.685   7.715  17.747  0.00  0.00    +0.000 OA
BRANCH  14  17
ATOM     17  C   UNL     1      -0.059   9.902  22.636  0.00  0.00    +0.000 C 
ATOM     18  F   UNL     1      -0.574  11.070  23.109  0.00  0.00    +0.000 F 
ATOM     19  F   UNL     1      -1.061   8.987  22.733  0.00  0.00    +0.000 F 
ATOM     20  F   UNL     1       0.888   9.523  23.535  0.00  0.00    +0.000 F 
ENDBRANCH  14  17
ENDBRANCH   5   7
BRANCH   3  21
ATOM     21  N   UNL     1       1.978   2.473  21.939  0.00  0.00    +0.000 N 
ATOM     22  H   UNL     1       2.753   2.272  22.562  0.00  0.00    +0.000 HD
ATOM     23  H   UNL     1       1.486   1.629  21.658  0.00  0.00    +0.000 HD
ENDBRANCH   3  21
BRANCH   1  24
ATOM     24  C   UNL     1       4.648   3.235  17.853  0.00  0.00    +0.000 C 
BRANCH  24  25
ATOM     25  N   UNL     1       4.747   4.127  16.691  0.00  0.00    +0.000 NA
ATOM     26  H   UNL     1       4.250   3.687  15.913  0.00  0.00    +0.000 HD
BRANCH  25  27
ATOM     27  C   UNL     1       6.140   4.307  16.256  0.00  0.00    +0.000 C 
BRANCH  27  33
ATOM     28  C   UNL     1       6.117   7.285  17.198  0.00  0.00    +0.000 C 
ATOM     29  N   UNL     1       6.912   6.221  17.745  0.00  0.00    +0.000 N 
ATOM     30  C   UNL     1       7.794   6.334  18.777  0.00  0.00    +0.000 A 
ATOM     31  N   UNL     1       8.346   5.168  19.015  0.00  0.00    +0.000 NA
ATOM     32  N   UNL     1       7.817   4.269  18.118  0.00  0.00    +0.000 NA
ATOM     33  C   UNL     1       6.949   4.907  17.356  0.00  0.00    +0.000 A 
ENDBRANCH  27  33
ENDBRANCH  25  27
ENDBRANCH  24  25
ENDBRANCH   1  24
TORSDOF 7
ENDMDL
MODEL 6
REMARK VINA RESULT:      -8.6      1.108      1.633
REMARK  Name = 
REMARK  8 active torsions:
REMARK  status: ('A' for Active; 'I' for Inactive)
REMARK    1  A    between atoms: C_1  and  N_2
REMARK    2  A    between atoms: C_6  and  C_7
REMARK    3  A    between atoms: C_7  and  N_8
REMARK    4  A    between atoms: N_8  and  C_9
REMARK    5  A    between atoms: C_9  and  C_10
REMARK    6  A    between atoms: C_12  and  N_13
REMARK    7  A    between atoms: C_15  and  N_16
REMARK    8  A    between atoms: C_23  and  C_24
REMARK                            x       y       z     vdW  Elec       q    Type
REMARK                         _______ _______ _______ _____ _____    ______ ____
ROOT
ATOM      1  C   UNL     1       4.739   5.055  19.183  0.00  0.00    +0.000 A 
ATOM      2  C   UNL     1       4.017   3.894  18.883  0.00  0.00    +0.000 A 
ATOM      3  C   UNL     1       2.632   3.931  18.758  0.00  0.00    +0.000 A 
ATOM      4  C   UNL     1       1.961   5.129  19.030  0.00  0.00    +0.000 A 
ATOM      5  C   UNL     1       2.649   6.322  19.292  0.00  0.00    +0.000 A 
ATOM      6  C   UNL     1       4.048   6.266  19.355  0.00  0.00    +0.000 A 
ENDROOT
BRANCH   5   7
ATOM      7  N   UNL     1       1.962   7.550  19.491  0.00  0.00    +0.000 N 
ATOM      8  C   UNL     1       1.312   7.882  20.752  0.00  0.00    +0.000 C 
ATOM      9  C   UNL     1       0.785   9.263  20.525  0.00  0.00    +0.000 A 
ATOM     10  C   UNL     1       1.106   9.668  19.232  0.00  0.00    +0.000 A 
ATOM     11  C   UNL     1       0.744  10.897  18.714  0.00  0.00    +0.000 A 
ATOM     12  C   UNL     1       0.024  11.754  19.542  0.00  0.00    +0.000 A 
ATOM     13  C   UNL     1      -0.302  11.369  20.856  0.00  0.00    +0.000 A 
ATOM     14  C   UNL     1       0.079  10.112  21.373  0.00  0.00    +0.000 A 
ATOM     15  C   UNL     1       1.864   8.601  18.578  0.00  0.00    +0.000 C 
ATOM     16  O   UNL     1       2.278   8.722  17.437  0.00  0.00    +0.000 OA
BRANCH  14  17
ATOM     17  C   UNL     1      -0.271   9.746  22.791  0.00  0.00    +0.000 C 
ATOM     18  F   UNL     1      -1.038   8.625  22.890  0.00  0.00    +0.000 F 
ATOM     19  F   UNL     1       0.831   9.511  23.553  0.00  0.00    +0.000 F 
ATOM     20  F   UNL     1      -0.966  10.728  23.424  0.00  0.00    +0.000 F 
ENDBRANCH  14  17
ENDBRANCH   5   7
BRANCH   3  21
ATOM     21  N   UNL     1       1.907   2.742  18.598  0.00  0.00    +0.000 N 
ATOM     22  H   UNL     1       2.451   1.976  18.214  0.00  0.00    +0.000 HD
ATOM     23  H   UNL     1       1.028   2.872  18.104  0.00  0.00    +0.000 HD
ENDBRANCH   3  21
BRANCH   1  24
ATOM     24  C   UNL     1       6.236   4.993  19.378  0.00  0.00    +0.000 C 
BRANCH  24  25
ATOM     25  N   UNL     1       6.915   4.225  18.329  0.00  0.00    +0.000 NA
ATOM     26  H   UNL     1       7.731   3.774  18.747  0.00  0.00    +0.000 HD
BRANCH  25  27
ATOM     27  C   UNL     1       7.416   5.093  17.253  0.00  0.00    +0.000 C 
BRANCH  27  33
ATOM     28  C   UNL     1       5.073   6.701  15.955  0.00  0.00    +0.000 C 
ATOM     29  N   UNL     1       5.689   5.514  15.431  0.00  0.00    +0.000 N 
ATOM     30  C   UNL     1       5.353   4.888  14.269  0.00  0.00    +0.000 A 
ATOM     31  N   UNL     1       6.118   3.835  14.099  0.00  0.00    +0.000 NA
ATOM     32  N   UNL     1       6.973   3.766  15.174  0.00  0.00    +0.000 NA
ATOM     33  C   UNL     1       6.715   4.783  15.973  0.00  0.00    +0.000 A 
ENDBRANCH  27  33
ENDBRANCH  25  27
ENDBRANCH  24  25
ENDBRANCH   1  24
TORSDOF 7
ENDMDL
MODEL 7
REMARK VINA RESULT:      -8.6      1.119      1.574
REMARK  Name = 
REMARK  8 active torsions:
REMARK  status: ('A' for Active; 'I' for Inactive)
REMARK    1  A    between atoms: C_1  and  N_2
REMARK    2  A    between atoms: C_6  and  C_7
REMARK    3  A    between atoms: C_7  and  N_8
REMARK    4  A    between atoms: N_8  and  C_9
REMARK    5  A    between atoms: C_9  and  C_10
REMARK    6  A    between atoms: C_12  and  N_13
REMARK    7  A    between atoms: C_15  and  N_16
REMARK    8  A    between atoms: C_23  and  C_24
REMARK                            x       y       z     vdW  Elec       q    Type
REMARK                         _______ _______ _______ _____ _____    ______ ____
ROOT
ATOM      1  C   UNL     1       4.702   4.837  19.230  0.00  0.00    +0.000 A 
ATOM      2  C   UNL     1       3.946   3.686  18.976  0.00  0.00    +0.000 A 
ATOM      3  C   UNL     1       2.560   3.756  18.870  0.00  0.00    +0.000 A 
ATOM      4  C   UNL     1       1.925   4.978  19.116  0.00  0.00    +0.000 A 
ATOM      5  C   UNL     1       2.647   6.161  19.332  0.00  0.00    +0.000 A 
ATOM      6  C   UNL     1       4.045   6.070  19.375  0.00  0.00    +0.000 A 
ENDROOT
BRANCH   5   7
ATOM      7  N   UNL     1       1.996   7.412  19.504  0.00  0.00    +0.000 N 
ATOM      8  C   UNL     1       1.326   7.775  20.746  0.00  0.00    +0.000 C 
ATOM      9  C   UNL     1       0.850   9.171  20.494  0.00  0.00    +0.000 A 
ATOM     10  C   UNL     1       1.214   9.554  19.207  0.00  0.00    +0.000 A 
ATOM     11  C   UNL     1       0.905  10.789  18.670  0.00  0.00    +0.000 A 
ATOM     12  C   UNL     1       0.192  11.675  19.472  0.00  0.00    +0.000 A 
ATOM     13  C   UNL     1      -0.177  11.313  20.781  0.00  0.00    +0.000 A 
ATOM     14  C   UNL     1       0.151  10.049  21.318  0.00  0.00    +0.000 A 
ATOM     15  C   UNL     1       1.953   8.457  18.580  0.00  0.00    +0.000 C 
ATOM     16  O   UNL     1       2.398   8.554  17.448  0.00  0.00    +0.000 OA
BRANCH  14  17
ATOM     17  C   UNL     1      -0.244   9.707  22.730  0.00  0.00    +0.000 C 
ATOM     18  F   UNL     1       0.816   9.452  23.545  0.00  0.00    +0.000 F 
ATOM     19  F   UNL     1      -0.944  10.708  23.330  0.00  0.00    +0.000 F 
ATOM     20  F   UNL     1      -1.035   8.602  22.794  0.00  0.00    +0.000 F 
ENDBRANCH  14  17
ENDBRANCH   5   7
BRANCH   3  21
ATOM     21  N   UNL     1       1.802   2.583  18.757  0.00  0.00    +0.000 N 
ATOM     22  H   UNL     1       2.118   1.829  19.358  0.00  0.00    +0.000 HD
ATOM     23  H   UNL     1       1.676   2.277  17.796  0.00  0.00    +0.000 HD
ENDBRANCH   3  21
BRANCH   1  24
ATOM     24  C   UNL     1       6.199   4.741  19.405  0.00  0.00    +0.000 C 
BRANCH  24  25
ATOM     25  N   UNL     1       6.853   4.006  18.316  0.00  0.00    +0.000 NA
ATOM     26  H   UNL     1       7.551   3.385  18.730  0.00  0.00    +0.000 HD
BRANCH  25  27
ATOM     27  C   UNL     1       7.576   4.906  17.405  0.00  0.00    +0.000 C 
BRANCH  27  33
ATOM     28  C   UNL     1       6.280   3.664  14.847  0.00  0.00    +0.000 C 
ATOM     29  N   UNL     1       6.068   4.991  15.355  0.00  0.00    +0.000 N 
ATOM     30  C   UNL     1       5.257   5.936  14.804  0.00  0.00    +0.000 A 
ATOM     31  N   UNL     1       5.301   7.030  15.526  0.00  0.00    +0.000 NA
ATOM     32  N   UNL     1       6.162   6.801  16.574  0.00  0.00    +0.000 NA
ATOM     33  C   UNL     1       6.620   5.568  16.470  0.00  0.00    +0.000 A 
ENDBRANCH  27  33
ENDBRANCH  25  27
ENDBRANCH  24  25
ENDBRANCH   1  24
TORSDOF 7
ENDMDL
MODEL 8
REMARK VINA RESULT:      -8.6      2.057      4.344
REMARK  Name = 
REMARK  8 active torsions:
REMARK  status: ('A' for Active; 'I' for Inactive)
REMARK    1  A    between atoms: C_1  and  N_2
REMARK    2  A    between atoms: C_6  and  C_7
REMARK    3  A    between atoms: C_7  and  N_8
REMARK    4  A    between atoms: N_8  and  C_9
REMARK    5  A    between atoms: C_9  and  C_10
REMARK    6  A    between atoms: C_12  and  N_13
REMARK    7  A    between atoms: C_15  and  N_16
REMARK    8  A    between atoms: C_23  and  C_24
REMARK                            x       y       z     vdW  Elec       q    Type
REMARK                         _______ _______ _______ _____ _____    ______ ____
ROOT
ATOM      1  C   UNL     1       4.381   5.217  19.029  0.00  0.00    +0.000 A 
ATOM      2  C   UNL     1       5.019   5.339  17.789  0.00  0.00    +0.000 A 
ATOM      3  C   UNL     1       4.744   6.417  16.952  0.00  0.00    +0.000 A 
ATOM      4  C   UNL     1       3.750   7.327  17.327  0.00  0.00    +0.000 A 
ATOM      5  C   UNL     1       3.118   7.264  18.577  0.00  0.00    +0.000 A 
ATOM      6  C   UNL     1       3.457   6.200  19.424  0.00  0.00    +0.000 A 
ENDROOT
BRANCH   5   7
ATOM      7  N   UNL     1       2.164   8.236  18.981  0.00  0.00    +0.000 N 
ATOM      8  C   UNL     1       1.570   8.236  20.311  0.00  0.00    +0.000 C 
ATOM      9  C   UNL     1       0.692   9.448  20.305  0.00  0.00    +0.000 A 
ATOM     10  C   UNL     1       0.780  10.070  19.063  0.00  0.00    +0.000 A 
ATOM     11  C   UNL     1       0.073  11.212  18.739  0.00  0.00    +0.000 A 
ATOM     12  C   UNL     1      -0.762  11.747  19.715  0.00  0.00    +0.000 A 
ATOM     13  C   UNL     1      -0.859  11.140  20.981  0.00  0.00    +0.000 A 
ATOM     14  C   UNL     1      -0.126   9.976  21.300  0.00  0.00    +0.000 A 
ATOM     15  C   UNL     1       1.720   9.323  18.226  0.00  0.00    +0.000 C 
ATOM     16  O   UNL     1       1.984   9.680  17.090  0.00  0.00    +0.000 OA
BRANCH  14  17
ATOM     17  C   UNL     1      -0.240   9.369  22.673  0.00  0.00    +0.000 C 
ATOM     18  F   UNL     1       0.954   9.248  23.315  0.00  0.00    +0.000 F 
ATOM     19  F   UNL     1      -1.036  10.100  23.499  0.00  0.00    +0.000 F 
ATOM     20  F   UNL     1      -0.773   8.118  22.643  0.00  0.00    +0.000 F 
ENDBRANCH  14  17
ENDBRANCH   5   7
BRANCH   3  21
ATOM     21  N   UNL     1       5.279   6.457  15.657  0.00  0.00    +0.000 N 
ATOM     22  H   UNL     1       6.028   5.791  15.499  0.00  0.00    +0.000 HD
ATOM     23  H   UNL     1       5.533   7.395  15.357  0.00  0.00    +0.000 HD
ENDBRANCH   3  21
BRANCH   1  24
ATOM     24  C   UNL     1       4.639   4.013  19.903  0.00  0.00    +0.000 C 
BRANCH  24  25
ATOM     25  N   UNL     1       4.944   2.804  19.129  0.00  0.00    +0.000 NA
ATOM     26  H   UNL     1       4.888   3.043  18.137  0.00  0.00    +0.000 HD
BRANCH  25  27
ATOM     27  C   UNL     1       3.958   1.739  19.364  0.00  0.00    +0.000 C 
BRANCH  27  33
ATOM     28  C   UNL     1       1.779   2.510  21.467  0.00  0.00    +0.000 C 
ATOM     29  N   UNL     1       1.649   2.575  20.038  0.00  0.00    +0.000 N 
ATOM     30  C   UNL     1       0.547   2.990  19.355  0.00  0.00    +0.000 A 
ATOM     31  N   UNL     1       0.774   2.919  18.065  0.00  0.00    +0.000 NA
ATOM     32  N   UNL     1       2.054   2.446  17.895  0.00  0.00    +0.000 NA
ATOM     33  C   UNL     1       2.581   2.243  19.088  0.00  0.00    +0.000 A 
ENDBRANCH  27  33
ENDBRANCH  25  27
ENDBRANCH  24  25
ENDBRANCH   1  24
TORSDOF 7
ENDMDL
MODEL 9
REMARK VINA RESULT:      -8.5      0.829      1.147
REMARK  Name = 
REMARK  8 active torsions:
REMARK  status: ('A' for Active; 'I' for Inactive)
REMARK    1  A    between atoms: C_1  and  N_2
REMARK    2  A    between atoms: C_6  and  C_7
REMARK    3  A    between atoms: C_7  and  N_8
REMARK    4  A    between atoms: N_8  and  C_9
REMARK    5  A    between atoms: C_9  and  C_10
REMARK    6  A    between atoms: C_12  and  N_13
REMARK    7  A    between atoms: C_15  and  N_16
REMARK    8  A    between atoms: C_23  and  C_24
REMARK                            x       y       z     vdW  Elec       q    Type
REMARK                         _______ _______ _______ _____ _____    ______ ____
ROOT
ATOM      1  C   UNL     1       4.825   5.045  19.293  0.00  0.00    +0.000 A 
ATOM      2  C   UNL     1       4.130   3.830  19.294  0.00  0.00    +0.000 A 
ATOM      3  C   UNL     1       2.742   3.806  19.383  0.00  0.00    +0.000 A 
ATOM      4  C   UNL     1       2.056   5.011  19.570  0.00  0.00    +0.000 A 
ATOM      5  C   UNL     1       2.709   6.251  19.533  0.00  0.00    +0.000 A 
ATOM      6  C   UNL     1       4.103   6.247  19.382  0.00  0.00    +0.000 A 
ENDROOT
BRANCH   5   7
ATOM      7  N   UNL     1       1.995   7.474  19.646  0.00  0.00    +0.000 N 
ATOM      8  C   UNL     1       1.309   7.863  20.871  0.00  0.00    +0.000 C 
ATOM      9  C   UNL     1       0.762   9.219  20.553  0.00  0.00    +0.000 A 
ATOM     10  C   UNL     1       1.106   9.556  19.247  0.00  0.00    +0.000 A 
ATOM     11  C   UNL     1       0.734  10.746  18.651  0.00  0.00    +0.000 A 
ATOM     12  C   UNL     1      -0.022  11.634  19.412  0.00  0.00    +0.000 A 
ATOM     13  C   UNL     1      -0.372  11.317  20.738  0.00  0.00    +0.000 A 
ATOM     14  C   UNL     1       0.020  10.100  21.334  0.00  0.00    +0.000 A 
ATOM     15  C   UNL     1       1.899   8.469  18.672  0.00  0.00    +0.000 C 
ATOM     16  O   UNL     1       2.338   8.533  17.536  0.00  0.00    +0.000 OA
BRANCH  14  17
ATOM     17  C   UNL     1      -0.356   9.808  22.763  0.00  0.00    +0.000 C 
ATOM     18  F   UNL     1      -1.069  10.806  23.353  0.00  0.00    +0.000 F 
ATOM     19  F   UNL     1      -1.118   8.687  22.880  0.00  0.00    +0.000 F 
ATOM     20  F   UNL     1       0.731   9.610  23.556  0.00  0.00    +0.000 F 
ENDBRANCH  14  17
ENDBRANCH   5   7
BRANCH   3  21
ATOM     21  N   UNL     1       2.066   2.585  19.525  0.00  0.00    +0.000 N 
ATOM     22  H   UNL     1       1.930   2.299  20.489  0.00  0.00    +0.000 HD
ATOM     23  H   UNL     1       2.462   1.840  18.958  0.00  0.00    +0.000 HD
ENDBRANCH   3  21
BRANCH   1  24
ATOM     24  C   UNL     1       6.335   5.060  19.257  0.00  0.00    +0.000 C 
BRANCH  24  25
ATOM     25  N   UNL     1       6.869   5.622  18.012  0.00  0.00    +0.000 NA
ATOM     26  H   UNL     1       6.080   5.950  17.450  0.00  0.00    +0.000 HD
BRANCH  25  27
ATOM     27  C   UNL     1       7.568   4.608  17.209  0.00  0.00    +0.000 C 
BRANCH  27  33
ATOM     28  C   UNL     1       4.970   3.355  16.010  0.00  0.00    +0.000 C 
ATOM     29  N   UNL     1       5.963   4.111  15.297  0.00  0.00    +0.000 N 
ATOM     30  C   UNL     1       5.934   4.412  13.970  0.00  0.00    +0.000 A 
ATOM     31  N   UNL     1       6.997   5.114  13.654  0.00  0.00    +0.000 NA
ATOM     32  N   UNL     1       7.742   5.275  14.799  0.00  0.00    +0.000 NA
ATOM     33  C   UNL     1       7.113   4.672  15.790  0.00  0.00    +0.000 A 
ENDBRANCH  27  33
ENDBRANCH  25  27
ENDBRANCH  24  25
ENDBRANCH   1  24
TORSDOF 7
ENDMDL
