MODEL 1
REMARK VINA RESULT:      -7.8      0.000      0.000
REMARK  Name = 
REMARK  11 active torsions:
REMARK  status: ('A' for Active; 'I' for Inactive)
REMARK    1  A    between atoms: C_1  and  C_2
REMARK    2  A    between atoms: C_2  and  C_3
REMARK    3  A    between atoms: C_2  and  N_4
REMARK    4  A    between atoms: C_8  and  C_9
REMARK    5  A    between atoms: C_14  and  C_15
REMARK    6  A    between atoms: N_17  and  C_18
REMARK    7  A    between atoms: C_18  and  C_19
REMARK    8  A    between atoms: N_23  and  C_24
REMARK    9  A    between atoms: C_24  and  C_25
REMARK   10  A    between atoms: C_24  and  C_26
REMARK   11  A    between atoms: C_24  and  C_27
REMARK                            x       y       z     vdW  Elec       q    Type
REMARK                         _______ _______ _______ _____ _____    ______ ____
ROOT
ATOM      1  C   UNL     1       4.246   4.652  17.940  0.00  0.00    +0.000 C 
ATOM      2  C   UNL     1       4.367   4.786  19.456  0.00  0.00    +0.000 C 
ATOM      3  C   UNL     1       2.885   4.722  19.832  0.00  0.00    +0.000 C 
ATOM      4  C   UNL     1       2.281   4.592  18.437  0.00  0.00    +0.000 C 
ATOM      5  C   UNL     1       3.173   3.518  17.747  0.00  0.00    +0.000 C 
ATOM      6  C   UNL     1       3.052   5.594  17.487  0.00  0.00    +0.000 C 
ENDROOT
BRANCH   1  11
ATOM      7  N   UNL     1       6.646   5.321  17.143  0.00  0.00    +0.000 N 
ATOM      8  N   UNL     1       7.489   5.063  16.120  0.00  0.00    +0.000 NA
ATOM      9  C   UNL     1       6.810   4.239  15.327  0.00  0.00    +0.000 A 
ATOM     10  C   UNL     1       5.541   3.938  15.838  0.00  0.00    +0.000 A 
ATOM     11  C   UNL     1       5.451   4.646  17.021  0.00  0.00    +0.000 A 
BRANCH   7  13
ATOM     12  C   UNL     1       7.996   5.750  19.166  0.00  0.00    +0.000 C 
ATOM     13  C   UNL     1       7.031   6.322  18.134  0.00  0.00    +0.000 C 
ATOM     14  C   UNL     1       7.642   7.575  17.508  0.00  0.00    +0.000 C 
ENDBRANCH   7  13
ENDBRANCH   1  11
BRANCH   6  15
ATOM     15  C   UNL     1       3.052   7.105  17.845  0.00  0.00    +0.000 C 
ATOM     16  O   UNL     1       4.067   7.819  17.842  0.00  0.00    +0.000 OA
ATOM     17  N   UNL     1       1.829   7.643  18.205  0.00  0.00    +0.000 N 
ATOM     18  H   UNL     1       0.987   7.076  18.160  0.00  0.00    +0.000 HD
BRANCH  17  19
ATOM     19  C   UNL     1       1.717   9.059  18.507  0.00  0.00    +0.000 C 
BRANCH  19  20
ATOM     20  C   UNL     1       1.054   9.271  19.823  0.00  0.00    +0.000 A 
ATOM     21  N   UNL     1       1.294   8.531  20.890  0.00  0.00    +0.000 NA
ATOM     22  C   UNL     1       0.556   9.105  21.873  0.00  0.00    +0.000 A 
ATOM     23  N   UNL     1      -0.188  10.129  21.478  0.00  0.00    +0.000 NA
ATOM     24  N   UNL     1       0.087  10.202  20.155  0.00  0.00    +0.000 N 
BRANCH  24  25
ATOM     25  C   UNL     1      -0.649  11.177  19.336  0.00  0.00    +0.000 C 
ATOM     26  C   UNL     1      -1.710  11.931  20.189  0.00  0.00    +0.000 C 
ATOM     27  C   UNL     1       0.313  12.232  18.768  0.00  0.00    +0.000 C 
ATOM     28  C   UNL     1      -1.423  10.466  18.211  0.00  0.00    +0.000 C 
ENDBRANCH  24  25
ENDBRANCH  19  20
ENDBRANCH  17  19
ENDBRANCH   6  15
TORSDOF 6
ENDMDL
MODEL 2
REMARK VINA RESULT:      -7.5      1.042      1.792
REMARK  Name = 
REMARK  11 active torsions:
REMARK  status: ('A' for Active; 'I' for Inactive)
REMARK    1  A    between atoms: C_1  and  C_2
REMARK    2  A    between atoms: C_2  and  C_3
REMARK    3  A    between atoms: C_2  and  N_4
REMARK    4  A    between atoms: C_8  and  C_9
REMARK    5  A    between atoms: C_14  and  C_15
REMARK    6  A    between atoms: N_17  and  C_18
REMARK    7  A    between atoms: C_18  and  C_19
REMARK    8  A    between atoms: N_23  and  C_24
REMARK    9  A    between atoms: C_24  and  C_25
REMARK   10  A    between atoms: C_24  and  C_26
REMARK   11  A    between atoms: C_24  and  C_27
REMARK                            x       y       z     vdW  Elec       q    Type
REMARK                         _______ _______ _______ _____ _____    ______ ____
ROOT
ATOM      1  C   UNL     1       4.055   4.904  18.085  0.00  0.00    +0.000 C 
ATOM      2  C   UNL     1       4.224   5.151  19.582  0.00  0.00    +0.000 C 
ATOM      3  C   UNL     1       2.752   5.184  19.998  0.00  0.00    +0.000 C 
ATOM      4  C   UNL     1       2.104   4.971  18.633  0.00  0.00    +0.000 C 
ATOM      5  C   UNL     1       2.930   3.807  18.010  0.00  0.00    +0.000 C 
ATOM      6  C   UNL     1       2.891   5.860  17.587  0.00  0.00    +0.000 C 
ENDROOT
BRANCH   1  11
ATOM      7  N   UNL     1       6.485   5.338  17.221  0.00  0.00    +0.000 N 
ATOM      8  N   UNL     1       7.278   4.985  16.186  0.00  0.00    +0.000 NA
ATOM      9  C   UNL     1       6.510   4.208  15.427  0.00  0.00    +0.000 A 
ATOM     10  C   UNL     1       5.232   4.032  15.973  0.00  0.00    +0.000 A 
ATOM     11  C   UNL     1       5.233   4.770  17.140  0.00  0.00    +0.000 A 
BRANCH   7  13
ATOM     12  C   UNL     1       7.984   5.708  19.149  0.00  0.00    +0.000 C 
ATOM     13  C   UNL     1       6.981   6.323  18.180  0.00  0.00    +0.000 C 
ATOM     14  C   UNL     1       7.607   7.544  17.509  0.00  0.00    +0.000 C 
ENDBRANCH   7  13
ENDBRANCH   1  11
BRANCH   6  15
ATOM     15  C   UNL     1       2.966   7.393  17.823  0.00  0.00    +0.000 C 
ATOM     16  O   UNL     1       4.016   8.051  17.773  0.00  0.00    +0.000 OA
ATOM     17  N   UNL     1       1.770   8.019  18.126  0.00  0.00    +0.000 N 
ATOM     18  H   UNL     1       0.900   7.494  18.118  0.00  0.00    +0.000 HD
BRANCH  17  19
ATOM     19  C   UNL     1       1.728   9.458  18.313  0.00  0.00    +0.000 C 
BRANCH  19  20
ATOM     20  C   UNL     1       0.326   9.934  18.470  0.00  0.00    +0.000 A 
ATOM     21  N   UNL     1      -0.583   9.857  17.516  0.00  0.00    +0.000 NA
ATOM     22  C   UNL     1      -1.721  10.318  18.095  0.00  0.00    +0.000 A 
ATOM     23  N   UNL     1      -1.573  10.742  19.341  0.00  0.00    +0.000 NA
ATOM     24  N   UNL     1      -0.252  10.550  19.565  0.00  0.00    +0.000 N 
BRANCH  24  25
ATOM     25  C   UNL     1       0.321  11.011  20.839  0.00  0.00    +0.000 C 
ATOM     26  C   UNL     1      -0.784  11.594  21.766  0.00  0.00    +0.000 C 
ATOM     27  C   UNL     1       0.972   9.838  21.588  0.00  0.00    +0.000 C 
ATOM     28  C   UNL     1       1.332  12.147  20.599  0.00  0.00    +0.000 C 
ENDBRANCH  24  25
ENDBRANCH  19  20
ENDBRANCH  17  19
ENDBRANCH   6  15
TORSDOF 6
ENDMDL
MODEL 3
REMARK VINA RESULT:      -7.3      1.384      1.922
REMARK  Name = 
REMARK  11 active torsions:
REMARK  status: ('A' for Active; 'I' for Inactive)
REMARK    1  A    between atoms: C_1  and  C_2
REMARK    2  A    between atoms: C_2  and  C_3
REMARK    3  A    between atoms: C_2  and  N_4
REMARK    4  A    between atoms: C_8  and  C_9
REMARK    5  A    between atoms: C_14  and  C_15
REMARK    6  A    between atoms: N_17  and  C_18
REMARK    7  A    between atoms: C_18  and  C_19
REMARK    8  A    between atoms: N_23  and  C_24
REMARK    9  A    between atoms: C_24  and  C_25
REMARK   10  A    between atoms: C_24  and  C_26
REMARK   11  A    between atoms: C_24  and  C_27
REMARK                            x       y       z     vdW  Elec       q    Type
REMARK                         _______ _______ _______ _____ _____    ______ ____
ROOT
ATOM      1  C   UNL     1       4.017   4.962  18.113  0.00  0.00    +0.000 C 
ATOM      2  C   UNL     1       4.170   5.224  19.610  0.00  0.00    +0.000 C 
ATOM      3  C   UNL     1       2.693   5.320  19.999  0.00  0.00    +0.000 C 
ATOM      4  C   UNL     1       2.061   5.113  18.626  0.00  0.00    +0.000 C 
ATOM      5  C   UNL     1       2.851   3.909  18.032  0.00  0.00    +0.000 C 
ATOM      6  C   UNL     1       2.899   5.956  17.582  0.00  0.00    +0.000 C 
ENDROOT
BRANCH   1  11
ATOM      7  N   UNL     1       6.470   5.308  17.274  0.00  0.00    +0.000 N 
ATOM      8  N   UNL     1       7.268   4.903  16.262  0.00  0.00    +0.000 NA
ATOM      9  C   UNL     1       6.491   4.124  15.515  0.00  0.00    +0.000 A 
ATOM     10  C   UNL     1       5.201   3.998  16.046  0.00  0.00    +0.000 A 
ATOM     11  C   UNL     1       5.204   4.770  17.191  0.00  0.00    +0.000 A 
BRANCH   7  13
ATOM     12  C   UNL     1       7.962   5.700  19.203  0.00  0.00    +0.000 C 
ATOM     13  C   UNL     1       6.977   6.308  18.211  0.00  0.00    +0.000 C 
ATOM     14  C   UNL     1       7.630   7.500  17.513  0.00  0.00    +0.000 C 
ENDBRANCH   7  13
ENDBRANCH   1  11
BRANCH   6  15
ATOM     15  C   UNL     1       3.030   7.488  17.799  0.00  0.00    +0.000 C 
ATOM     16  O   UNL     1       4.109   8.100  17.792  0.00  0.00    +0.000 OA
ATOM     17  N   UNL     1       1.849   8.170  18.032  0.00  0.00    +0.000 N 
ATOM     18  H   UNL     1       0.959   7.683  17.989  0.00  0.00    +0.000 HD
BRANCH  17  19
ATOM     19  C   UNL     1       1.862   9.613  18.196  0.00  0.00    +0.000 C 
BRANCH  19  20
ATOM     20  C   UNL     1       0.477  10.161  18.194  0.00  0.00    +0.000 A 
ATOM     21  N   UNL     1      -0.560   9.524  17.683  0.00  0.00    +0.000 NA
ATOM     22  C   UNL     1      -1.619  10.326  17.960  0.00  0.00    +0.000 A 
ATOM     23  N   UNL     1      -1.307  11.465  18.562  0.00  0.00    +0.000 NA
ATOM     24  N   UNL     1       0.041  11.386  18.662  0.00  0.00    +0.000 N 
BRANCH  24  25
ATOM     25  C   UNL     1       0.775  12.543  19.197  0.00  0.00    +0.000 C 
ATOM     26  C   UNL     1       2.029  12.855  18.331  0.00  0.00    +0.000 C 
ATOM     27  C   UNL     1      -0.115  13.797  19.177  0.00  0.00    +0.000 C 
ATOM     28  C   UNL     1       1.289  12.250  20.618  0.00  0.00    +0.000 C 
ENDBRANCH  24  25
ENDBRANCH  19  20
ENDBRANCH  17  19
ENDBRANCH   6  15
TORSDOF 6
ENDMDL
MODEL 4
REMARK VINA RESULT:      -7.0      1.331      2.074
REMARK  Name = 
REMARK  11 active torsions:
REMARK  status: ('A' for Active; 'I' for Inactive)
REMARK    1  A    between atoms: C_1  and  C_2
REMARK    2  A    between atoms: C_2  and  C_3
REMARK    3  A    between atoms: C_2  and  N_4
REMARK    4  A    between atoms: C_8  and  C_9
REMARK    5  A    between atoms: C_14  and  C_15
REMARK    6  A    between atoms: N_17  and  C_18
REMARK    7  A    between atoms: C_18  and  C_19
REMARK    8  A    between atoms: N_23  and  C_24
REMARK    9  A    between atoms: C_24  and  C_25
REMARK   10  A    between atoms: C_24  and  C_26
REMARK   11  A    between atoms: C_24  and  C_27
REMARK                            x       y       z     vdW  Elec       q    Type
REMARK                         _______ _______ _______ _____ _____    ______ ____
ROOT
ATOM      1  C   UNL     1       4.519   3.907  17.301  0.00  0.00    +0.000 C 
ATOM      2  C   UNL     1       4.865   3.296  18.657  0.00  0.00    +0.000 C 
ATOM      3  C   UNL     1       3.454   2.968  19.150  0.00  0.00    +0.000 C 
ATOM      4  C   UNL     1       2.649   3.493  17.966  0.00  0.00    +0.000 C 
ATOM      5  C   UNL     1       3.414   2.945  16.726  0.00  0.00    +0.000 C 
ATOM      6  C   UNL     1       3.283   4.875  17.532  0.00  0.00    +0.000 C 
ENDROOT
BRANCH   1  11
ATOM      7  N   UNL     1       6.626   5.277  16.579  0.00  0.00    +0.000 N 
ATOM      8  N   UNL     1       7.363   5.506  15.470  0.00  0.00    +0.000 NA
ATOM      9  C   UNL     1       6.754   4.810  14.515  0.00  0.00    +0.000 A 
ATOM     10  C   UNL     1       5.641   4.109  14.998  0.00  0.00    +0.000 A 
ATOM     11  C   UNL     1       5.574   4.420  16.342  0.00  0.00    +0.000 A 
BRANCH   7  13
ATOM     12  C   UNL     1       7.888   5.240  18.702  0.00  0.00    +0.000 C 
ATOM     13  C   UNL     1       6.942   6.020  17.797  0.00  0.00    +0.000 C 
ATOM     14  C   UNL     1       7.532   7.401  17.516  0.00  0.00    +0.000 C 
ENDBRANCH   7  13
ENDBRANCH   1  11
BRANCH   6  15
ATOM     15  C   UNL     1       3.356   6.020  18.578  0.00  0.00    +0.000 C 
ATOM     16  O   UNL     1       4.396   6.631  18.867  0.00  0.00    +0.000 OA
ATOM     17  N   UNL     1       2.170   6.332  19.220  0.00  0.00    +0.000 N 
ATOM     18  H   UNL     1       1.306   5.870  18.952  0.00  0.00    +0.000 HD
BRANCH  17  19
ATOM     19  C   UNL     1       2.125   7.422  20.178  0.00  0.00    +0.000 C 
BRANCH  19  20
ATOM     20  C   UNL     1       1.449   8.614  19.595  0.00  0.00    +0.000 A 
ATOM     21  N   UNL     1       1.592   8.994  18.339  0.00  0.00    +0.000 NA
ATOM     22  C   UNL     1       0.756  10.055  18.209  0.00  0.00    +0.000 A 
ATOM     23  N   UNL     1       0.138  10.410  19.326  0.00  0.00    +0.000 NA
ATOM     24  N   UNL     1       0.623   9.524  20.228  0.00  0.00    +0.000 N 
BRANCH  24  25
ATOM     25  C   UNL     1       0.236   9.673  21.639  0.00  0.00    +0.000 C 
ATOM     26  C   UNL     1       1.478   9.564  22.570  0.00  0.00    +0.000 C 
ATOM     27  C   UNL     1      -0.393  11.056  21.878  0.00  0.00    +0.000 C 
ATOM     28  C   UNL     1      -0.724   8.546  22.060  0.00  0.00    +0.000 C 
ENDBRANCH  24  25
ENDBRANCH  19  20
ENDBRANCH  17  19
ENDBRANCH   6  15
TORSDOF 6
ENDMDL
MODEL 5
REMARK VINA RESULT:      -6.9      1.727      2.912
REMARK  Name = 
REMARK  11 active torsions:
REMARK  status: ('A' for Active; 'I' for Inactive)
REMARK    1  A    between atoms: C_1  and  C_2
REMARK    2  A    between atoms: C_2  and  C_3
REMARK    3  A    between atoms: C_2  and  N_4
REMARK    4  A    between atoms: C_8  and  C_9
REMARK    5  A    between atoms: C_14  and  C_15
REMARK    6  A    between atoms: N_17  and  C_18
REMARK    7  A    between atoms: C_18  and  C_19
REMARK    8  A    between atoms: N_23  and  C_24
REMARK    9  A    between atoms: C_24  and  C_25
REMARK   10  A    between atoms: C_24  and  C_26
REMARK   11  A    between atoms: C_24  and  C_27
REMARK                            x       y       z     vdW  Elec       q    Type
REMARK                         _______ _______ _______ _____ _____    ______ ____
ROOT
ATOM      1  C   UNL     1       4.555   3.742  18.349  0.00  0.00    +0.000 C 
ATOM      2  C   UNL     1       4.315   2.837  19.556  0.00  0.00    +0.000 C 
ATOM      3  C   UNL     1       3.050   2.119  19.082  0.00  0.00    +0.000 C 
ATOM      4  C   UNL     1       2.865   2.807  17.733  0.00  0.00    +0.000 C 
ATOM      5  C   UNL     1       4.295   2.800  17.116  0.00  0.00    +0.000 C 
ATOM      6  C   UNL     1       3.147   4.349  17.940  0.00  0.00    +0.000 C 
ENDROOT
BRANCH   1  11
ATOM      7  N   UNL     1       6.224   5.378  17.176  0.00  0.00    +0.000 N 
ATOM      8  N   UNL     1       7.283   6.154  17.492  0.00  0.00    +0.000 NA
ATOM      9  C   UNL     1       7.474   5.946  18.792  0.00  0.00    +0.000 A 
ATOM     10  C   UNL     1       6.531   5.060  19.330  0.00  0.00    +0.000 A 
ATOM     11  C   UNL     1       5.724   4.703  18.268  0.00  0.00    +0.000 A 
BRANCH   7  13
ATOM     12  C   UNL     1       5.165   6.529  15.264  0.00  0.00    +0.000 C 
ATOM     13  C   UNL     1       5.836   5.258  15.772  0.00  0.00    +0.000 C 
ATOM     14  C   UNL     1       7.009   4.904  14.859  0.00  0.00    +0.000 C 
ENDBRANCH   7  13
ENDBRANCH   1  11
BRANCH   6  15
ATOM     15  C   UNL     1       2.288   5.129  18.971  0.00  0.00    +0.000 C 
ATOM     16  O   UNL     1       1.267   4.675  19.509  0.00  0.00    +0.000 OA
ATOM     17  N   UNL     1       2.710   6.414  19.263  0.00  0.00    +0.000 N 
ATOM     18  H   UNL     1       3.573   6.773  18.865  0.00  0.00    +0.000 HD
BRANCH  17  19
ATOM     19  C   UNL     1       2.003   7.205  20.254  0.00  0.00    +0.000 C 
BRANCH  19  20
ATOM     20  C   UNL     1       1.577   8.514  19.685  0.00  0.00    +0.000 A 
ATOM     21  N   UNL     1       1.880   8.913  18.464  0.00  0.00    +0.000 NA
ATOM     22  C   UNL     1       1.239  10.102  18.327  0.00  0.00    +0.000 A 
ATOM     23  N   UNL     1       0.599  10.510  19.412  0.00  0.00    +0.000 NA
ATOM     24  N   UNL     1       0.860   9.523  20.300  0.00  0.00    +0.000 N 
BRANCH  24  25
ATOM     25  C   UNL     1       0.389   9.679  21.685  0.00  0.00    +0.000 C 
ATOM     26  C   UNL     1      -0.713   8.633  22.019  0.00  0.00    +0.000 C 
ATOM     27  C   UNL     1       1.545   9.454  22.672  0.00  0.00    +0.000 C 
ATOM     28  C   UNL     1      -0.252  11.064  21.887  0.00  0.00    +0.000 C 
ENDBRANCH  24  25
ENDBRANCH  19  20
ENDBRANCH  17  19
ENDBRANCH   6  15
TORSDOF 6
ENDMDL
MODEL 6
REMARK VINA RESULT:      -6.9      1.163      1.857
REMARK  Name = 
REMARK  11 active torsions:
REMARK  status: ('A' for Active; 'I' for Inactive)
REMARK    1  A    between atoms: C_1  and  C_2
REMARK    2  A    between atoms: C_2  and  C_3
REMARK    3  A    between atoms: C_2  and  N_4
REMARK    4  A    between atoms: C_8  and  C_9
REMARK    5  A    between atoms: C_14  and  C_15
REMARK    6  A    between atoms: N_17  and  C_18
REMARK    7  A    between atoms: C_18  and  C_19
REMARK    8  A    between atoms: N_23  and  C_24
REMARK    9  A    between atoms: C_24  and  C_25
REMARK   10  A    between atoms: C_24  and  C_26
REMARK   11  A    between atoms: C_24  and  C_27
REMARK                            x       y       z     vdW  Elec       q    Type
REMARK                         _______ _______ _______ _____ _____    ______ ____
ROOT
ATOM      1  C   UNL     1       4.187   4.528  17.717  0.00  0.00    +0.000 C 
ATOM      2  C   UNL     1       4.472   4.283  19.197  0.00  0.00    +0.000 C 
ATOM      3  C   UNL     1       3.050   3.986  19.680  0.00  0.00    +0.000 C 
ATOM      4  C   UNL     1       2.301   4.157  18.362  0.00  0.00    +0.000 C 
ATOM      5  C   UNL     1       3.178   3.383  17.334  0.00  0.00    +0.000 C 
ATOM      6  C   UNL     1       2.888   5.436  17.641  0.00  0.00    +0.000 C 
ENDROOT
BRANCH   1  11
ATOM      7  N   UNL     1       6.395   5.656  16.885  0.00  0.00    +0.000 N 
ATOM      8  N   UNL     1       7.144   5.727  15.763  0.00  0.00    +0.000 NA
ATOM      9  C   UNL     1       6.477   5.001  14.870  0.00  0.00    +0.000 A 
ATOM     10  C   UNL     1       5.313   4.437  15.409  0.00  0.00    +0.000 A 
ATOM     11  C   UNL     1       5.276   4.869  16.721  0.00  0.00    +0.000 A 
BRANCH   7  13
ATOM     12  C   UNL     1       7.727   5.732  18.964  0.00  0.00    +0.000 C 
ATOM     13  C   UNL     1       6.774   6.475  18.034  0.00  0.00    +0.000 C 
ATOM     14  C   UNL     1       7.395   7.812  17.633  0.00  0.00    +0.000 C 
ENDBRANCH   7  13
ENDBRANCH   1  11
BRANCH   6  15
ATOM     15  C   UNL     1       2.828   6.800  18.382  0.00  0.00    +0.000 C 
ATOM     16  O   UNL     1       3.336   7.008  19.494  0.00  0.00    +0.000 OA
ATOM     17  N   UNL     1       2.137   7.810  17.736  0.00  0.00    +0.000 N 
ATOM     18  H   UNL     1       1.763   7.660  16.804  0.00  0.00    +0.000 HD
BRANCH  17  19
ATOM     19  C   UNL     1       2.069   9.136  18.324  0.00  0.00    +0.000 C 
BRANCH  19  20
ATOM     20  C   UNL     1       0.661   9.619  18.385  0.00  0.00    +0.000 A 
ATOM     21  N   UNL     1      -0.170   9.580  17.361  0.00  0.00    +0.000 NA
ATOM     22  C   UNL     1      -1.347  10.033  17.862  0.00  0.00    +0.000 A 
ATOM     23  N   UNL     1      -1.295  10.416  19.130  0.00  0.00    +0.000 NA
ATOM     24  N   UNL     1       0.002  10.204  19.451  0.00  0.00    +0.000 N 
BRANCH  24  25
ATOM     25  C   UNL     1       0.475  10.620  20.780  0.00  0.00    +0.000 C 
ATOM     26  C   UNL     1       1.204   9.450  21.502  0.00  0.00    +0.000 C 
ATOM     27  C   UNL     1       1.481  11.775  20.653  0.00  0.00    +0.000 C 
ATOM     28  C   UNL     1      -0.711  11.013  21.679  0.00  0.00    +0.000 C 
ENDBRANCH  24  25
ENDBRANCH  19  20
ENDBRANCH  17  19
ENDBRANCH   6  15
TORSDOF 6
ENDMDL
MODEL 7
REMARK VINA RESULT:      -6.9      1.388      2.630
REMARK  Name = 
REMARK  11 active torsions:
REMARK  status: ('A' for Active; 'I' for Inactive)
REMARK    1  A    between atoms: C_1  and  C_2
REMARK    2  A    between atoms: C_2  and  C_3
REMARK    3  A    between atoms: C_2  and  N_4
REMARK    4  A    between atoms: C_8  and  C_9
REMARK    5  A    between atoms: C_14  and  C_15
REMARK    6  A    between atoms: N_17  and  C_18
REMARK    7  A    between atoms: C_18  and  C_19
REMARK    8  A    between atoms: N_23  and  C_24
REMARK    9  A    between atoms: C_24  and  C_25
REMARK   10  A    between atoms: C_24  and  C_26
REMARK   11  A    between atoms: C_24  and  C_27
REMARK                            x       y       z     vdW  Elec       q    Type
REMARK                         _______ _______ _______ _____ _____    ______ ____
ROOT
ATOM      1  C   UNL     1       3.701   4.852  18.530  0.00  0.00    +0.000 C 
ATOM      2  C   UNL     1       3.091   4.509  19.887  0.00  0.00    +0.000 C 
ATOM      3  C   UNL     1       1.619   4.407  19.481  0.00  0.00    +0.000 C 
ATOM      4  C   UNL     1       1.747   4.741  17.998  0.00  0.00    +0.000 C 
ATOM      5  C   UNL     1       2.962   3.886  17.531  0.00  0.00    +0.000 C 
ATOM      6  C   UNL     1       2.763   5.946  17.865  0.00  0.00    +0.000 C 
ENDROOT
BRANCH   1  11
ATOM      7  N   UNL     1       5.905   5.179  17.161  0.00  0.00    +0.000 N 
ATOM      8  N   UNL     1       7.225   5.368  17.383  0.00  0.00    +0.000 NA
ATOM      9  C   UNL     1       7.347   5.346  18.707  0.00  0.00    +0.000 A 
ATOM     10  C   UNL     1       6.115   5.169  19.350  0.00  0.00    +0.000 A 
ATOM     11  C   UNL     1       5.188   5.066  18.332  0.00  0.00    +0.000 A 
BRANCH   7  13
ATOM     12  C   UNL     1       5.240   6.341  15.086  0.00  0.00    +0.000 C 
ATOM     13  C   UNL     1       5.443   5.003  15.787  0.00  0.00    +0.000 C 
ATOM     14  C   UNL     1       6.379   4.129  14.952  0.00  0.00    +0.000 C 
ENDBRANCH   7  13
ENDBRANCH   1  11
BRANCH   6  15
ATOM     15  C   UNL     1       2.442   7.272  18.605  0.00  0.00    +0.000 C 
ATOM     16  O   UNL     1       2.437   7.395  19.839  0.00  0.00    +0.000 OA
ATOM     17  N   UNL     1       2.125   8.354  17.801  0.00  0.00    +0.000 N 
ATOM     18  H   UNL     1       2.176   8.272  16.790  0.00  0.00    +0.000 HD
BRANCH  17  19
ATOM     19  C   UNL     1       1.860   9.651  18.397  0.00  0.00    +0.000 C 
BRANCH  19  20
ATOM     20  C   UNL     1       0.399   9.936  18.422  0.00  0.00    +0.000 A 
ATOM     21  N   UNL     1      -0.405   9.723  17.397  0.00  0.00    +0.000 NA
ATOM     22  C   UNL     1      -1.640  10.036  17.865  0.00  0.00    +0.000 A 
ATOM     23  N   UNL     1      -1.659  10.495  19.107  0.00  0.00    +0.000 NA
ATOM     24  N   UNL     1      -0.349  10.485  19.447  0.00  0.00    +0.000 N 
BRANCH  24  25
ATOM     25  C   UNL     1       0.044  11.039  20.752  0.00  0.00    +0.000 C 
ATOM     26  C   UNL     1       1.164  12.106  20.589  0.00  0.00    +0.000 C 
ATOM     27  C   UNL     1      -1.154  11.734  21.420  0.00  0.00    +0.000 C 
ATOM     28  C   UNL     1       0.622   9.936  21.657  0.00  0.00    +0.000 C 
ENDBRANCH  24  25
ENDBRANCH  19  20
ENDBRANCH  17  19
ENDBRANCH   6  15
TORSDOF 6
ENDMDL
MODEL 8
REMARK VINA RESULT:      -6.8      1.200      2.069
REMARK  Name = 
REMARK  11 active torsions:
REMARK  status: ('A' for Active; 'I' for Inactive)
REMARK    1  A    between atoms: C_1  and  C_2
REMARK    2  A    between atoms: C_2  and  C_3
REMARK    3  A    between atoms: C_2  and  N_4
REMARK    4  A    between atoms: C_8  and  C_9
REMARK    5  A    between atoms: C_14  and  C_15
REMARK    6  A    between atoms: N_17  and  C_18
REMARK    7  A    between atoms: C_18  and  C_19
REMARK    8  A    between atoms: N_23  and  C_24
REMARK    9  A    between atoms: C_24  and  C_25
REMARK   10  A    between atoms: C_24  and  C_26
REMARK   11  A    between atoms: C_24  and  C_27
REMARK                            x       y       z     vdW  Elec       q    Type
REMARK                         _______ _______ _______ _____ _____    ______ ____
ROOT
ATOM      1  C   UNL     1       4.195   3.932  17.593  0.00  0.00    +0.000 C 
ATOM      2  C   UNL     1       4.376   3.414  19.018  0.00  0.00    +0.000 C 
ATOM      3  C   UNL     1       2.907   3.237  19.409  0.00  0.00    +0.000 C 
ATOM      4  C   UNL     1       2.248   3.719  18.121  0.00  0.00    +0.000 C 
ATOM      5  C   UNL     1       3.065   3.011  17.000  0.00  0.00    +0.000 C 
ATOM      6  C   UNL     1       3.029   5.007  17.638  0.00  0.00    +0.000 C 
ENDROOT
BRANCH   1  11
ATOM      7  N   UNL     1       6.411   5.147  16.921  0.00  0.00    +0.000 N 
ATOM      8  N   UNL     1       7.271   5.196  15.880  0.00  0.00    +0.000 NA
ATOM      9  C   UNL     1       6.748   4.375  14.975  0.00  0.00    +0.000 A 
ATOM     10  C   UNL     1       5.568   3.771  15.427  0.00  0.00    +0.000 A 
ATOM     11  C   UNL     1       5.364   4.280  16.695  0.00  0.00    +0.000 A 
BRANCH   7  13
ATOM     12  C   UNL     1       7.536   5.455  19.097  0.00  0.00    +0.000 C 
ATOM     13  C   UNL     1       6.615   6.058  18.044  0.00  0.00    +0.000 C 
ATOM     14  C   UNL     1       7.158   7.420  17.614  0.00  0.00    +0.000 C 
ENDBRANCH   7  13
ENDBRANCH   1  11
BRANCH   6  15
ATOM     15  C   UNL     1       3.110   6.228  18.593  0.00  0.00    +0.000 C 
ATOM     16  O   UNL     1       3.886   6.303  19.559  0.00  0.00    +0.000 OA
ATOM     17  N   UNL     1       2.231   7.265  18.330  0.00  0.00    +0.000 N 
ATOM     18  H   UNL     1       1.630   7.230  17.512  0.00  0.00    +0.000 HD
BRANCH  17  19
ATOM     19  C   UNL     1       2.266   8.471  19.136  0.00  0.00    +0.000 C 
BRANCH  19  20
ATOM     20  C   UNL     1       1.005   9.248  18.985  0.00  0.00    +0.000 A 
ATOM     21  N   UNL     1       0.566   9.712  17.830  0.00  0.00    +0.000 NA
ATOM     22  C   UNL     1      -0.632  10.277  18.126  0.00  0.00    +0.000 A 
ATOM     23  N   UNL     1      -0.950  10.255  19.412  0.00  0.00    +0.000 NA
ATOM     24  N   UNL     1       0.122   9.647  19.972  0.00  0.00    +0.000 N 
BRANCH  24  25
ATOM     25  C   UNL     1       0.180   9.533  21.437  0.00  0.00    +0.000 C 
ATOM     26  C   UNL     1      -0.438  10.788  22.117  0.00  0.00    +0.000 C 
ATOM     27  C   UNL     1      -0.627   8.313  21.911  0.00  0.00    +0.000 C 
ATOM     28  C   UNL     1       1.640   9.453  21.917  0.00  0.00    +0.000 C 
ENDBRANCH  24  25
ENDBRANCH  19  20
ENDBRANCH  17  19
ENDBRANCH   6  15
TORSDOF 6
ENDMDL
MODEL 9
REMARK VINA RESULT:      -6.7      1.611      2.715
REMARK  Name = 
REMARK  11 active torsions:
REMARK  status: ('A' for Active; 'I' for Inactive)
REMARK    1  A    between atoms: C_1  and  C_2
REMARK    2  A    between atoms: C_2  and  C_3
REMARK    3  A    between atoms: C_2  and  N_4
REMARK    4  A    between atoms: C_8  and  C_9
REMARK    5  A    between atoms: C_14  and  C_15
REMARK    6  A    between atoms: N_17  and  C_18
REMARK    7  A    between atoms: C_18  and  C_19
REMARK    8  A    between atoms: N_23  and  C_24
REMARK    9  A    between atoms: C_24  and  C_25
REMARK   10  A    between atoms: C_24  and  C_26
REMARK   11  A    between atoms: C_24  and  C_27
REMARK                            x       y       z     vdW  Elec       q    Type
REMARK                         _______ _______ _______ _____ _____    ______ ____
ROOT
ATOM      1  C   UNL     1       3.830   4.869  18.425  0.00  0.00    +0.000 C 
ATOM      2  C   UNL     1       3.215   4.287  19.696  0.00  0.00    +0.000 C 
ATOM      3  C   UNL     1       1.759   4.171  19.240  0.00  0.00    +0.000 C 
ATOM      4  C   UNL     1       1.896   4.737  17.830  0.00  0.00    +0.000 C 
ATOM      5  C   UNL     1       3.166   4.032  17.270  0.00  0.00    +0.000 C 
ATOM      6  C   UNL     1       2.843   6.001  17.912  0.00  0.00    +0.000 C 
ENDROOT
BRANCH   1  11
ATOM      7  N   UNL     1       6.065   5.390  17.171  0.00  0.00    +0.000 N 
ATOM      8  N   UNL     1       7.356   5.662  17.460  0.00  0.00    +0.000 NA
ATOM      9  C   UNL     1       7.421   5.607  18.787  0.00  0.00    +0.000 A 
ATOM     10  C   UNL     1       6.177   5.326  19.366  0.00  0.00    +0.000 A 
ATOM     11  C   UNL     1       5.305   5.192  18.303  0.00  0.00    +0.000 A 
BRANCH   7  13
ATOM     12  C   UNL     1       5.235   6.546  15.152  0.00  0.00    +0.000 C 
ATOM     13  C   UNL     1       5.678   5.226  15.772  0.00  0.00    +0.000 C 
ATOM     14  C   UNL     1       6.785   4.610  14.917  0.00  0.00    +0.000 C 
ENDBRANCH   7  13
ENDBRANCH   1  11
BRANCH   6  15
ATOM     15  C   UNL     1       2.433   7.178  18.838  0.00  0.00    +0.000 C 
ATOM     16  O   UNL     1       2.539   7.157  20.074  0.00  0.00    +0.000 OA
ATOM     17  N   UNL     1       1.901   8.289  18.208  0.00  0.00    +0.000 N 
ATOM     18  H   UNL     1       1.859   8.332  17.195  0.00  0.00    +0.000 HD
BRANCH  17  19
ATOM     19  C   UNL     1       1.536   9.460  18.984  0.00  0.00    +0.000 C 
BRANCH  19  20
ATOM     20  C   UNL     1       0.300  10.092  18.444  0.00  0.00    +0.000 A 
ATOM     21  N   UNL     1      -0.604   9.441  17.736  0.00  0.00    +0.000 NA
ATOM     22  C   UNL     1      -1.585  10.354  17.519  0.00  0.00    +0.000 A 
ATOM     23  N   UNL     1      -1.327  11.564  17.993  0.00  0.00    +0.000 NA
ATOM     24  N   UNL     1      -0.097  11.413  18.536  0.00  0.00    +0.000 N 
BRANCH  24  25
ATOM     25  C   UNL     1       0.581  12.599  19.082  0.00  0.00    +0.000 C 
ATOM     26  C   UNL     1       1.974  12.799  18.418  0.00  0.00    +0.000 C 
ATOM     27  C   UNL     1      -0.244  13.865  18.799  0.00  0.00    +0.000 C 
ATOM     28  C   UNL     1       0.839  12.430  20.590  0.00  0.00    +0.000 C 
ENDBRANCH  24  25
ENDBRANCH  19  20
ENDBRANCH  17  19
ENDBRANCH   6  15
TORSDOF 6
ENDMDL
