MODEL 1
REMARK VINA RESULT:      -9.2      0.000      0.000
REMARK  Name = 
REMARK  5 active torsions:
REMARK  status: ('A' for Active; 'I' for Inactive)
REMARK    1  A    between atoms: C_2  and  C_5
REMARK    2  A    between atoms: C_9  and  C_10
REMARK    3  A    between atoms: N_13  and  C_14
REMARK    4  A    between atoms: C_14  and  C_15
REMARK    5  A    between atoms: N_19  and  C_20
REMARK                            x       y       z     vdW  Elec       q    Type
REMARK                         _______ _______ _______ _____ _____    ______ ____
ROOT
ATOM      1  C   UNL     1       6.524   4.412  16.145  0.00  0.00    +0.000 A 
ATOM      2  N   UNL     1       7.551   4.762  16.993  0.00  0.00    +0.000 NA
ATOM      3  N   UNL     1       7.103   4.607  18.230  0.00  0.00    +0.000 NA
ATOM      4  N   UNL     1       5.823   4.219  18.086  0.00  0.00    +0.000 N 
ATOM      5  N   UNL     1       5.420   4.021  16.810  0.00  0.00    +0.000 NA
ENDROOT
BRANCH   1  10
ATOM      6  C   UNL     1       5.812   3.789  12.478  0.00  0.00    +0.000 A 
ATOM      7  C   UNL     1       6.889   4.463  11.888  0.00  0.00    +0.000 A 
ATOM      8  C   UNL     1       7.859   5.077  12.680  0.00  0.00    +0.000 A 
ATOM      9  C   UNL     1       7.753   5.040  14.073  0.00  0.00    +0.000 A 
ATOM     10  C   UNL     1       6.683   4.382  14.694  0.00  0.00    +0.000 A 
ATOM     11  C   UNL     1       5.731   3.738  13.884  0.00  0.00    +0.000 A 
BRANCH   6  13
ATOM     12  F   UNL     1       3.569   2.946  12.307  0.00  0.00    +0.000 F 
ATOM     13  C   UNL     1       4.734   3.158  11.633  0.00  0.00    +0.000 C 
ATOM     14  F   UNL     1       5.103   1.940  11.145  0.00  0.00    +0.000 F 
ATOM     15  F   UNL     1       4.406   3.911  10.547  0.00  0.00    +0.000 F 
ENDBRANCH   6  13
ENDBRANCH   1  10
BRANCH   4  16
ATOM     16  C   UNL     1       5.040   3.777  19.233  0.00  0.00    +0.000 C 
BRANCH  16  17
ATOM     17  C   UNL     1       3.684   3.332  18.829  0.00  0.00    +0.000 A 
ATOM     18  N   UNL     1       3.332   2.101  18.499  0.00  0.00    +0.000 NA
ATOM     19  N   UNL     1       1.971   2.085  18.456  0.00  0.00    +0.000 NA
ATOM     20  N   UNL     1       1.474   3.271  18.758  0.00  0.00    +0.000 NA
ATOM     21  N   UNL     1       2.534   4.104  18.896  0.00  0.00    +0.000 N 
BRANCH  21  22
ATOM     22  C   UNL     1       2.330   5.497  19.068  0.00  0.00    +0.000 A 
ATOM     23  C   UNL     1       2.609   6.360  17.994  0.00  0.00    +0.000 A 
ATOM     24  C   UNL     1       2.418   7.737  18.124  0.00  0.00    +0.000 A 
ATOM     25  C   UNL     1       1.977   8.268  19.333  0.00  0.00    +0.000 A 
ATOM     26  C   UNL     1       1.739   7.424  20.416  0.00  0.00    +0.000 A 
ATOM     27  C   UNL     1       1.910   6.041  20.289  0.00  0.00    +0.000 A 
ENDBRANCH  21  22
ENDBRANCH  16  17
ENDBRANCH   4  16
TORSDOF 5
ENDMDL
MODEL 2
REMARK VINA RESULT:      -9.2      0.382      1.243
REMARK  Name = 
REMARK  5 active torsions:
REMARK  status: ('A' for Active; 'I' for Inactive)
REMARK    1  A    between atoms: C_2  and  C_5
REMARK    2  A    between atoms: C_9  and  C_10
REMARK    3  A    between atoms: N_13  and  C_14
REMARK    4  A    between atoms: C_14  and  C_15
REMARK    5  A    between atoms: N_19  and  C_20
REMARK                            x       y       z     vdW  Elec       q    Type
REMARK                         _______ _______ _______ _____ _____    ______ ____
ROOT
ATOM      1  C   UNL     1       6.787   4.562  16.094  0.00  0.00    +0.000 A 
ATOM      2  N   UNL     1       7.901   4.541  16.904  0.00  0.00    +0.000 NA
ATOM      3  N   UNL     1       7.469   4.517  18.156  0.00  0.00    +0.000 NA
ATOM      4  N   UNL     1       6.129   4.570  18.059  0.00  0.00    +0.000 N 
ATOM      5  N   UNL     1       5.639   4.540  16.798  0.00  0.00    +0.000 NA
ENDROOT
BRANCH   1  10
ATOM      6  C   UNL     1       5.934   3.828  12.478  0.00  0.00    +0.000 A 
ATOM      7  C   UNL     1       6.945   4.543  11.824  0.00  0.00    +0.000 A 
ATOM      8  C   UNL     1       7.919   5.222  12.556  0.00  0.00    +0.000 A 
ATOM      9  C   UNL     1       7.882   5.209  13.952  0.00  0.00    +0.000 A 
ATOM     10  C   UNL     1       6.878   4.510  14.637  0.00  0.00    +0.000 A 
ATOM     11  C   UNL     1       5.923   3.801  13.887  0.00  0.00    +0.000 A 
BRANCH   6  13
ATOM     12  F   UNL     1       4.485   3.783  10.562  0.00  0.00    +0.000 F 
ATOM     13  C   UNL     1       4.850   3.125  11.698  0.00  0.00    +0.000 C 
ATOM     14  F   UNL     1       3.705   2.974  12.420  0.00  0.00    +0.000 F 
ATOM     15  F   UNL     1       5.211   1.873  11.304  0.00  0.00    +0.000 F 
ENDBRANCH   6  13
ENDBRANCH   1  10
BRANCH   4  16
ATOM     16  C   UNL     1       5.284   4.386  19.231  0.00  0.00    +0.000 C 
BRANCH  16  17
ATOM     17  C   UNL     1       3.961   3.823  18.868  0.00  0.00    +0.000 A 
ATOM     18  N   UNL     1       3.705   2.560  18.568  0.00  0.00    +0.000 NA
ATOM     19  N   UNL     1       2.350   2.431  18.558  0.00  0.00    +0.000 NA
ATOM     20  N   UNL     1       1.763   3.576  18.852  0.00  0.00    +0.000 NA
ATOM     21  N   UNL     1       2.752   4.497  18.950  0.00  0.00    +0.000 N 
BRANCH  21  22
ATOM     22  C   UNL     1       2.437   5.871  19.104  0.00  0.00    +0.000 A 
ATOM     23  C   UNL     1       1.901   6.311  20.327  0.00  0.00    +0.000 A 
ATOM     24  C   UNL     1       1.582   7.657  20.516  0.00  0.00    +0.000 A 
ATOM     25  C   UNL     1       1.764   8.569  19.481  0.00  0.00    +0.000 A 
ATOM     26  C   UNL     1       2.256   8.134  18.251  0.00  0.00    +0.000 A 
ATOM     27  C   UNL     1       2.596   6.790  18.059  0.00  0.00    +0.000 A 
ENDBRANCH  21  22
ENDBRANCH  16  17
ENDBRANCH   4  16
TORSDOF 5
ENDMDL
MODEL 3
REMARK VINA RESULT:      -8.9      6.695      7.918
REMARK  Name = 
REMARK  5 active torsions:
REMARK  status: ('A' for Active; 'I' for Inactive)
REMARK    1  A    between atoms: C_2  and  C_5
REMARK    2  A    between atoms: C_9  and  C_10
REMARK    3  A    between atoms: N_13  and  C_14
REMARK    4  A    between atoms: C_14  and  C_15
REMARK    5  A    between atoms: N_19  and  C_20
REMARK                            x       y       z     vdW  Elec       q    Type
REMARK                         _______ _______ _______ _____ _____    ______ ____
ROOT
ATOM      1  C   UNL     1       8.677   9.201  18.451  0.00  0.00    +0.000 A 
ATOM      2  N   UNL     1       7.822   9.219  17.372  0.00  0.00    +0.000 NA
ATOM      3  N   UNL     1       7.349   7.989  17.231  0.00  0.00    +0.000 NA
ATOM      4  N   UNL     1       7.964   7.273  18.189  0.00  0.00    +0.000 N 
ATOM      5  N   UNL     1       8.759   7.983  19.021  0.00  0.00    +0.000 NA
ENDROOT
BRANCH   1  10
ATOM      6  C   UNL     1      10.411  12.567  18.533  0.00  0.00    +0.000 A 
ATOM      7  C   UNL     1      10.425  12.816  19.911  0.00  0.00    +0.000 A 
ATOM      8  C   UNL     1       9.913  11.877  20.806  0.00  0.00    +0.000 A 
ATOM      9  C   UNL     1       9.363  10.684  20.331  0.00  0.00    +0.000 A 
ATOM     10  C   UNL     1       9.325  10.408  18.956  0.00  0.00    +0.000 A 
ATOM     11  C   UNL     1       9.877  11.348  18.069  0.00  0.00    +0.000 A 
BRANCH   6  13
ATOM     12  F   UNL     1      12.094  14.174  17.937  0.00  0.00    +0.000 F 
ATOM     13  C   UNL     1      10.923  13.593  17.552  0.00  0.00    +0.000 C 
ATOM     14  F   UNL     1      10.046  14.619  17.369  0.00  0.00    +0.000 F 
ATOM     15  F   UNL     1      11.153  13.073  16.316  0.00  0.00    +0.000 F 
ENDBRANCH   6  13
ENDBRANCH   1  10
BRANCH   4  16
ATOM     16  C   UNL     1       7.568   5.899  18.467  0.00  0.00    +0.000 C 
BRANCH  16  17
ATOM     17  C   UNL     1       6.842   5.298  17.322  0.00  0.00    +0.000 A 
ATOM     18  N   UNL     1       7.379   4.609  16.329  0.00  0.00    +0.000 NA
ATOM     19  N   UNL     1       6.348   4.030  15.655  0.00  0.00    +0.000 NA
ATOM     20  N   UNL     1       5.189   4.338  16.208  0.00  0.00    +0.000 NA
ATOM     21  N   UNL     1       5.462   5.220  17.199  0.00  0.00    +0.000 N 
BRANCH  21  22
ATOM     22  C   UNL     1       4.407   5.868  17.890  0.00  0.00    +0.000 A 
ATOM     23  C   UNL     1       3.881   5.263  19.046  0.00  0.00    +0.000 A 
ATOM     24  C   UNL     1       2.845   5.874  19.754  0.00  0.00    +0.000 A 
ATOM     25  C   UNL     1       2.303   7.073  19.302  0.00  0.00    +0.000 A 
ATOM     26  C   UNL     1       2.789   7.658  18.134  0.00  0.00    +0.000 A 
ATOM     27  C   UNL     1       3.841   7.064  17.428  0.00  0.00    +0.000 A 
ENDBRANCH  21  22
ENDBRANCH  16  17
ENDBRANCH   4  16
TORSDOF 5
ENDMDL
MODEL 4
REMARK VINA RESULT:      -8.7      6.745      7.928
REMARK  Name = 
REMARK  5 active torsions:
REMARK  status: ('A' for Active; 'I' for Inactive)
REMARK    1  A    between atoms: C_2  and  C_5
REMARK    2  A    between atoms: C_9  and  C_10
REMARK    3  A    between atoms: N_13  and  C_14
REMARK    4  A    between atoms: C_14  and  C_15
REMARK    5  A    between atoms: N_19  and  C_20
REMARK                            x       y       z     vdW  Elec       q    Type
REMARK                         _______ _______ _______ _____ _____    ______ ____
ROOT
ATOM      1  C   UNL     1       8.687   9.267  18.485  0.00  0.00    +0.000 A 
ATOM      2  N   UNL     1       7.831   9.289  17.407  0.00  0.00    +0.000 NA
ATOM      3  N   UNL     1       7.358   8.060  17.261  0.00  0.00    +0.000 NA
ATOM      4  N   UNL     1       7.974   7.340  18.216  0.00  0.00    +0.000 N 
ATOM      5  N   UNL     1       8.769   8.047  19.050  0.00  0.00    +0.000 NA
ENDROOT
BRANCH   1  10
ATOM      6  C   UNL     1      10.443  12.621  18.577  0.00  0.00    +0.000 A 
ATOM      7  C   UNL     1      10.436  12.878  19.954  0.00  0.00    +0.000 A 
ATOM      8  C   UNL     1       9.902  11.947  20.845  0.00  0.00    +0.000 A 
ATOM      9  C   UNL     1       9.352  10.755  20.368  0.00  0.00    +0.000 A 
ATOM     10  C   UNL     1       9.335  10.473  18.995  0.00  0.00    +0.000 A 
ATOM     11  C   UNL     1       9.908  11.403  18.111  0.00  0.00    +0.000 A 
BRANCH   6  13
ATOM     12  F   UNL     1      10.705  13.339  16.300  0.00  0.00    +0.000 F 
ATOM     13  C   UNL     1      10.979  13.638  17.600  0.00  0.00    +0.000 C 
ATOM     14  F   UNL     1      12.333  13.763  17.671  0.00  0.00    +0.000 F 
ATOM     15  F   UNL     1      10.477  14.886  17.809  0.00  0.00    +0.000 F 
ENDBRANCH   6  13
ENDBRANCH   1  10
BRANCH   4  16
ATOM     16  C   UNL     1       7.579   5.964  18.489  0.00  0.00    +0.000 C 
BRANCH  16  17
ATOM     17  C   UNL     1       6.875   5.360  17.333  0.00  0.00    +0.000 A 
ATOM     18  N   UNL     1       7.439   4.732  16.314  0.00  0.00    +0.000 NA
ATOM     19  N   UNL     1       6.434   4.118  15.631  0.00  0.00    +0.000 NA
ATOM     20  N   UNL     1       5.266   4.343  16.205  0.00  0.00    +0.000 NA
ATOM     21  N   UNL     1       5.501   5.208  17.220  0.00  0.00    +0.000 N 
BRANCH  21  22
ATOM     22  C   UNL     1       4.418   5.775  17.941  0.00  0.00    +0.000 A 
ATOM     23  C   UNL     1       3.885   7.002  17.509  0.00  0.00    +0.000 A 
ATOM     24  C   UNL     1       2.817   7.589  18.190  0.00  0.00    +0.000 A 
ATOM     25  C   UNL     1       2.292   6.975  19.324  0.00  0.00    +0.000 A 
ATOM     26  C   UNL     1       2.843   5.780  19.783  0.00  0.00    +0.000 A 
ATOM     27  C   UNL     1       3.900   5.175  19.096  0.00  0.00    +0.000 A 
ENDBRANCH  21  22
ENDBRANCH  16  17
ENDBRANCH   4  16
TORSDOF 5
ENDMDL
MODEL 5
REMARK VINA RESULT:      -8.7      1.749      2.640
REMARK  Name = 
REMARK  5 active torsions:
REMARK  status: ('A' for Active; 'I' for Inactive)
REMARK    1  A    between atoms: C_2  and  C_5
REMARK    2  A    between atoms: C_9  and  C_10
REMARK    3  A    between atoms: N_13  and  C_14
REMARK    4  A    between atoms: C_14  and  C_15
REMARK    5  A    between atoms: N_19  and  C_20
REMARK                            x       y       z     vdW  Elec       q    Type
REMARK                         _______ _______ _______ _____ _____    ______ ____
ROOT
ATOM      1  C   UNL     1       6.786   4.762  15.850  0.00  0.00    +0.000 A 
ATOM      2  N   UNL     1       7.813   4.388  16.687  0.00  0.00    +0.000 NA
ATOM      3  N   UNL     1       7.392   4.583  17.928  0.00  0.00    +0.000 NA
ATOM      4  N   UNL     1       6.159   5.106  17.795  0.00  0.00    +0.000 N 
ATOM      5  N   UNL     1       5.701   5.186  16.525  0.00  0.00    +0.000 NA
ENDROOT
BRANCH   1  10
ATOM      6  C   UNL     1       5.878   3.805  12.300  0.00  0.00    +0.000 A 
ATOM      7  C   UNL     1       6.906   4.440  11.591  0.00  0.00    +0.000 A 
ATOM      8  C   UNL     1       7.907   5.137  12.267  0.00  0.00    +0.000 A 
ATOM      9  C   UNL     1       7.882   5.222  13.661  0.00  0.00    +0.000 A 
ATOM     10  C   UNL     1       6.862   4.605  14.399  0.00  0.00    +0.000 A 
ATOM     11  C   UNL     1       5.879   3.877  13.707  0.00  0.00    +0.000 A 
BRANCH   6  13
ATOM     12  F   UNL     1       3.650   2.909  12.337  0.00  0.00    +0.000 F 
ATOM     13  C   UNL     1       4.767   3.084  11.577  0.00  0.00    +0.000 C 
ATOM     14  F   UNL     1       5.135   1.836  11.172  0.00  0.00    +0.000 F 
ATOM     15  F   UNL     1       4.357   3.736  10.455  0.00  0.00    +0.000 F 
ENDBRANCH   6  13
ENDBRANCH   1  10
BRANCH   4  16
ATOM     16  C   UNL     1       5.297   5.295  18.953  0.00  0.00    +0.000 C 
BRANCH  16  17
ATOM     17  C   UNL     1       4.156   6.191  18.643  0.00  0.00    +0.000 A 
ATOM     18  N   UNL     1       4.237   7.428  18.181  0.00  0.00    +0.000 NA
ATOM     19  N   UNL     1       2.980   7.780  17.794  0.00  0.00    +0.000 NA
ATOM     20  N   UNL     1       2.128   6.792  17.997  0.00  0.00    +0.000 NA
ATOM     21  N   UNL     1       2.821   5.814  18.628  0.00  0.00    +0.000 N 
BRANCH  21  22
ATOM     22  C   UNL     1       2.149   4.671  19.129  0.00  0.00    +0.000 A 
ATOM     23  C   UNL     1       1.665   3.715  18.218  0.00  0.00    +0.000 A 
ATOM     24  C   UNL     1       1.002   2.575  18.675  0.00  0.00    +0.000 A 
ATOM     25  C   UNL     1       0.788   2.392  20.038  0.00  0.00    +0.000 A 
ATOM     26  C   UNL     1       1.227   3.355  20.945  0.00  0.00    +0.000 A 
ATOM     27  C   UNL     1       1.910   4.491  20.498  0.00  0.00    +0.000 A 
ENDBRANCH  21  22
ENDBRANCH  16  17
ENDBRANCH   4  16
TORSDOF 5
ENDMDL
MODEL 6
REMARK VINA RESULT:      -8.7      1.759      2.875
REMARK  Name = 
REMARK  5 active torsions:
REMARK  status: ('A' for Active; 'I' for Inactive)
REMARK    1  A    between atoms: C_2  and  C_5
REMARK    2  A    between atoms: C_9  and  C_10
REMARK    3  A    between atoms: N_13  and  C_14
REMARK    4  A    between atoms: C_14  and  C_15
REMARK    5  A    between atoms: N_19  and  C_20
REMARK                            x       y       z     vdW  Elec       q    Type
REMARK                         _______ _______ _______ _____ _____    ______ ____
ROOT
ATOM      1  C   UNL     1       6.769   4.783  15.924  0.00  0.00    +0.000 A 
ATOM      2  N   UNL     1       7.771   4.394  16.783  0.00  0.00    +0.000 NA
ATOM      3  N   UNL     1       7.335   4.615  18.015  0.00  0.00    +0.000 NA
ATOM      4  N   UNL     1       6.118   5.166  17.854  0.00  0.00    +0.000 N 
ATOM      5  N   UNL     1       5.683   5.242  16.575  0.00  0.00    +0.000 NA
ENDROOT
BRANCH   1  10
ATOM      6  C   UNL     1       5.902   3.799  12.371  0.00  0.00    +0.000 A 
ATOM      7  C   UNL     1       6.953   4.407  11.671  0.00  0.00    +0.000 A 
ATOM      8  C   UNL     1       7.955   5.093  12.356  0.00  0.00    +0.000 A 
ATOM      9  C   UNL     1       7.909   5.196  13.748  0.00  0.00    +0.000 A 
ATOM     10  C   UNL     1       6.866   4.607  14.477  0.00  0.00    +0.000 A 
ATOM     11  C   UNL     1       5.881   3.888  13.777  0.00  0.00    +0.000 A 
BRANCH   6  13
ATOM     12  F   UNL     1       5.140   1.854  11.184  0.00  0.00    +0.000 F 
ATOM     13  C   UNL     1       4.789   3.090  11.639  0.00  0.00    +0.000 C 
ATOM     14  F   UNL     1       4.368   3.779  10.542  0.00  0.00    +0.000 F 
ATOM     15  F   UNL     1       3.684   2.904  12.411  0.00  0.00    +0.000 F 
ENDBRANCH   6  13
ENDBRANCH   1  10
BRANCH   4  16
ATOM     16  C   UNL     1       5.240   5.390  18.995  0.00  0.00    +0.000 C 
BRANCH  16  17
ATOM     17  C   UNL     1       4.097   6.265  18.639  0.00  0.00    +0.000 A 
ATOM     18  N   UNL     1       4.173   7.511  18.201  0.00  0.00    +0.000 NA
ATOM     19  N   UNL     1       2.930   7.842  17.755  0.00  0.00    +0.000 NA
ATOM     20  N   UNL     1       2.091   6.832  17.898  0.00  0.00    +0.000 NA
ATOM     21  N   UNL     1       2.774   5.859  18.549  0.00  0.00    +0.000 N 
BRANCH  21  22
ATOM     22  C   UNL     1       2.103   4.693  18.998  0.00  0.00    +0.000 A 
ATOM     23  C   UNL     1       1.889   4.523  20.378  0.00  0.00    +0.000 A 
ATOM     24  C   UNL     1       1.229   3.391  20.857  0.00  0.00    +0.000 A 
ATOM     25  C   UNL     1       0.804   2.404  19.972  0.00  0.00    +0.000 A 
ATOM     26  C   UNL     1       1.050   2.545  18.607  0.00  0.00    +0.000 A 
ATOM     27  C   UNL     1       1.693   3.686  18.115  0.00  0.00    +0.000 A 
ENDBRANCH  21  22
ENDBRANCH  16  17
ENDBRANCH   4  16
TORSDOF 5
ENDMDL
MODEL 7
REMARK VINA RESULT:      -8.6      0.609      1.197
REMARK  Name = 
REMARK  5 active torsions:
REMARK  status: ('A' for Active; 'I' for Inactive)
REMARK    1  A    between atoms: C_2  and  C_5
REMARK    2  A    between atoms: C_9  and  C_10
REMARK    3  A    between atoms: N_13  and  C_14
REMARK    4  A    between atoms: C_14  and  C_15
REMARK    5  A    between atoms: N_19  and  C_20
REMARK                            x       y       z     vdW  Elec       q    Type
REMARK                         _______ _______ _______ _____ _____    ______ ____
ROOT
ATOM      1  C   UNL     1       6.613   4.410  16.011  0.00  0.00    +0.000 A 
ATOM      2  N   UNL     1       7.594   4.732  16.921  0.00  0.00    +0.000 NA
ATOM      3  N   UNL     1       7.070   4.576  18.128  0.00  0.00    +0.000 NA
ATOM      4  N   UNL     1       5.794   4.215  17.905  0.00  0.00    +0.000 N 
ATOM      5  N   UNL     1       5.463   4.036  16.605  0.00  0.00    +0.000 NA
ENDROOT
BRANCH   1  10
ATOM      6  C   UNL     1       6.415   3.419  12.361  0.00  0.00    +0.000 A 
ATOM      7  C   UNL     1       7.183   4.435  11.776  0.00  0.00    +0.000 A 
ATOM      8  C   UNL     1       7.793   5.407  12.569  0.00  0.00    +0.000 A 
ATOM      9  C   UNL     1       7.627   5.385  13.956  0.00  0.00    +0.000 A 
ATOM     10  C   UNL     1       6.857   4.387  14.571  0.00  0.00    +0.000 A 
ATOM     11  C   UNL     1       6.277   3.394  13.763  0.00  0.00    +0.000 A 
BRANCH   6  13
ATOM     12  F   UNL     1       5.541   1.193  12.142  0.00  0.00    +0.000 F 
ATOM     13  C   UNL     1       5.716   2.387  11.511  0.00  0.00    +0.000 C 
ATOM     14  F   UNL     1       6.403   2.103  10.369  0.00  0.00    +0.000 F 
ATOM     15  F   UNL     1       4.477   2.784  11.112  0.00  0.00    +0.000 F 
ENDBRANCH   6  13
ENDBRANCH   1  10
BRANCH   4  16
ATOM     16  C   UNL     1       4.936   3.780  18.999  0.00  0.00    +0.000 C 
BRANCH  16  17
ATOM     17  C   UNL     1       3.577   3.429  18.519  0.00  0.00    +0.000 A 
ATOM     18  N   UNL     1       3.203   2.264  18.017  0.00  0.00    +0.000 NA
ATOM     19  N   UNL     1       1.843   2.287  17.954  0.00  0.00    +0.000 NA
ATOM     20  N   UNL     1       1.367   3.431  18.412  0.00  0.00    +0.000 NA
ATOM     21  N   UNL     1       2.443   4.211  18.679  0.00  0.00    +0.000 N 
BRANCH  21  22
ATOM     22  C   UNL     1       2.267   5.571  19.041  0.00  0.00    +0.000 A 
ATOM     23  C   UNL     1       1.793   5.873  20.330  0.00  0.00    +0.000 A 
ATOM     24  C   UNL     1       1.611   7.200  20.723  0.00  0.00    +0.000 A 
ATOM     25  C   UNL     1       1.870   8.234  19.828  0.00  0.00    +0.000 A 
ATOM     26  C   UNL     1       2.300   7.942  18.535  0.00  0.00    +0.000 A 
ATOM     27  C   UNL     1       2.503   6.616  18.138  0.00  0.00    +0.000 A 
ENDBRANCH  21  22
ENDBRANCH  16  17
ENDBRANCH   4  16
TORSDOF 5
ENDMDL
MODEL 8
REMARK VINA RESULT:      -8.5      1.034      1.064
REMARK  Name = 
REMARK  5 active torsions:
REMARK  status: ('A' for Active; 'I' for Inactive)
REMARK    1  A    between atoms: C_2  and  C_5
REMARK    2  A    between atoms: C_9  and  C_10
REMARK    3  A    between atoms: N_13  and  C_14
REMARK    4  A    between atoms: C_14  and  C_15
REMARK    5  A    between atoms: N_19  and  C_20
REMARK                            x       y       z     vdW  Elec       q    Type
REMARK                         _______ _______ _______ _____ _____    ______ ____
ROOT
ATOM      1  C   UNL     1       6.046   5.272  15.855  0.00  0.00    +0.000 A 
ATOM      2  N   UNL     1       6.234   6.572  16.267  0.00  0.00    +0.000 NA
ATOM      3  N   UNL     1       5.942   6.616  17.559  0.00  0.00    +0.000 NA
ATOM      4  N   UNL     1       5.550   5.366  17.865  0.00  0.00    +0.000 N 
ATOM      5  N   UNL     1       5.649   4.467  16.860  0.00  0.00    +0.000 NA
ENDROOT
BRANCH   1  10
ATOM      6  C   UNL     1       5.629   3.805  12.389  0.00  0.00    +0.000 A 
ATOM      7  C   UNL     1       6.872   4.121  11.824  0.00  0.00    +0.000 A 
ATOM      8  C   UNL     1       7.849   4.768  12.580  0.00  0.00    +0.000 A 
ATOM      9  C   UNL     1       7.588   5.123  13.906  0.00  0.00    +0.000 A 
ATOM     10  C   UNL     1       6.352   4.829  14.498  0.00  0.00    +0.000 A 
ATOM     11  C   UNL     1       5.389   4.146  13.735  0.00  0.00    +0.000 A 
BRANCH   6  13
ATOM     12  F   UNL     1       3.405   2.905  12.269  0.00  0.00    +0.000 F 
ATOM     13  C   UNL     1       4.549   3.144  11.569  0.00  0.00    +0.000 C 
ATOM     14  F   UNL     1       4.938   1.935  11.076  0.00  0.00    +0.000 F 
ATOM     15  F   UNL     1       4.177   3.886  10.490  0.00  0.00    +0.000 F 
ENDBRANCH   6  13
ENDBRANCH   1  10
BRANCH   4  16
ATOM     16  C   UNL     1       5.313   4.973  19.248  0.00  0.00    +0.000 C 
BRANCH  16  17
ATOM     17  C   UNL     1       4.008   4.286  19.403  0.00  0.00    +0.000 A 
ATOM     18  N   UNL     1       3.822   2.983  19.539  0.00  0.00    +0.000 NA
ATOM     19  N   UNL     1       2.523   2.813  19.911  0.00  0.00    +0.000 NA
ATOM     20  N   UNL     1       1.905   3.975  20.016  0.00  0.00    +0.000 NA
ATOM     21  N   UNL     1       2.788   4.915  19.602  0.00  0.00    +0.000 N 
BRANCH  21  22
ATOM     22  C   UNL     1       2.376   6.263  19.444  0.00  0.00    +0.000 A 
ATOM     23  C   UNL     1       2.518   6.873  18.185  0.00  0.00    +0.000 A 
ATOM     24  C   UNL     1       2.120   8.197  17.991  0.00  0.00    +0.000 A 
ATOM     25  C   UNL     1       1.607   8.933  19.055  0.00  0.00    +0.000 A 
ATOM     26  C   UNL     1       1.502   8.350  20.316  0.00  0.00    +0.000 A 
ATOM     27  C   UNL     1       1.880   7.017  20.515  0.00  0.00    +0.000 A 
ENDBRANCH  21  22
ENDBRANCH  16  17
ENDBRANCH   4  16
TORSDOF 5
ENDMDL
MODEL 9
REMARK VINA RESULT:      -8.4      4.733      8.078
REMARK  Name = 
REMARK  5 active torsions:
REMARK  status: ('A' for Active; 'I' for Inactive)
REMARK    1  A    between atoms: C_2  and  C_5
REMARK    2  A    between atoms: C_9  and  C_10
REMARK    3  A    between atoms: N_13  and  C_14
REMARK    4  A    between atoms: C_14  and  C_15
REMARK    5  A    between atoms: N_19  and  C_20
REMARK                            x       y       z     vdW  Elec       q    Type
REMARK                         _______ _______ _______ _____ _____    ______ ____
ROOT
ATOM      1  C   UNL     1       1.502   8.911  18.646  0.00  0.00    +0.000 A 
ATOM      2  N   UNL     1       2.277   8.739  17.521  0.00  0.00    +0.000 NA
ATOM      3  N   UNL     1       3.035   7.673  17.731  0.00  0.00    +0.000 NA
ATOM      4  N   UNL     1       2.727   7.273  18.978  0.00  0.00    +0.000 N 
ATOM      5  N   UNL     1       1.734   7.969  19.579  0.00  0.00    +0.000 NA
ENDROOT
BRANCH   1  10
ATOM      6  C   UNL     1      -1.631  10.924  17.954  0.00  0.00    +0.000 A 
ATOM      7  C   UNL     1      -1.588  11.839  19.014  0.00  0.00    +0.000 A 
ATOM      8  C   UNL     1      -0.527  11.827  19.918  0.00  0.00    +0.000 A 
ATOM      9  C   UNL     1       0.496  10.885  19.785  0.00  0.00    +0.000 A 
ATOM     10  C   UNL     1       0.478   9.949  18.740  0.00  0.00    +0.000 A 
ATOM     11  C   UNL     1      -0.579   9.996  17.816  0.00  0.00    +0.000 A 
BRANCH   6  13
ATOM     12  F   UNL     1      -3.790  11.770  17.326  0.00  0.00    +0.000 F 
ATOM     13  C   UNL     1      -2.795  10.900  16.994  0.00  0.00    +0.000 C 
ATOM     14  F   UNL     1      -3.385   9.675  16.924  0.00  0.00    +0.000 F 
ATOM     15  F   UNL     1      -2.434  11.215  15.720  0.00  0.00    +0.000 F 
ENDBRANCH   6  13
ENDBRANCH   1  10
BRANCH   4  16
ATOM     16  C   UNL     1       3.234   6.015  19.508  0.00  0.00    +0.000 C 
BRANCH  16  17
ATOM     17  C   UNL     1       2.738   4.855  18.728  0.00  0.00    +0.000 A 
ATOM     18  N   UNL     1       1.545   4.295  18.833  0.00  0.00    +0.000 NA
ATOM     19  N   UNL     1       1.416   3.452  17.772  0.00  0.00    +0.000 NA
ATOM     20  N   UNL     1       2.494   3.483  17.010  0.00  0.00    +0.000 NA
ATOM     21  N   UNL     1       3.386   4.281  17.644  0.00  0.00    +0.000 N 
BRANCH  21  22
ATOM     22  C   UNL     1       4.714   4.397  17.159  0.00  0.00    +0.000 A 
ATOM     23  C   UNL     1       4.932   4.371  15.770  0.00  0.00    +0.000 A 
ATOM     24  C   UNL     1       6.224   4.486  15.254  0.00  0.00    +0.000 A 
ATOM     25  C   UNL     1       7.311   4.595  16.117  0.00  0.00    +0.000 A 
ATOM     26  C   UNL     1       7.108   4.579  17.495  0.00  0.00    +0.000 A 
ATOM     27  C   UNL     1       5.814   4.485  18.021  0.00  0.00    +0.000 A 
ENDBRANCH  21  22
ENDBRANCH  16  17
ENDBRANCH   4  16
TORSDOF 5
ENDMDL
