MODEL 1
REMARK VINA RESULT:      -8.0      0.000      0.000
REMARK  Name = 
REMARK  5 active torsions:
REMARK  status: ('A' for Active; 'I' for Inactive)
REMARK    1  A    between atoms: C_1  and  C_2
REMARK    2  A    between atoms: C_5  and  S_6
REMARK    3  A    between atoms: S_6  and  N_9
REMARK    4  A    between atoms: C_12  and  C_13
REMARK    5  A    between atoms: C_28  and  C_29
REMARK                            x       y       z     vdW  Elec       q    Type
REMARK                         _______ _______ _______ _____ _____    ______ ____
ROOT
ATOM      1  N   UNL     1       0.535  10.195  20.144  0.00  0.00    +0.000 NA
ATOM      2  C   UNL     1      -0.778  10.122  19.466  0.00  0.00    +0.000 C 
ATOM      3  C   UNL     1      -0.951  11.229  18.428  0.00  0.00    +0.000 C 
ATOM      4  C   UNL     1      -0.635  12.619  18.991  0.00  0.00    +0.000 C 
ATOM      5  C   UNL     1       0.802  12.601  19.508  0.00  0.00    +0.000 C 
ATOM      6  C   UNL     1       1.021  11.527  20.570  0.00  0.00    +0.000 C 
ENDROOT
BRANCH   4   7
ATOM      7  C   UNL     1      -1.650  13.040  20.063  0.00  0.00    +0.000 C 
ATOM      8  O   UNL     1      -1.284  13.616  21.080  0.00  0.00    +0.000 OA
ATOM      9  N   UNL     1      -2.953  12.658  19.786  0.00  0.00    +0.000 N 
ATOM     10  C   UNL     1      -3.984  13.101  20.600  0.00  0.00    +0.000 A 
ATOM     11  N   UNL     1      -3.937  14.083  21.478  0.00  0.00    +0.000 NA
ATOM     12  N   UNL     1      -5.172  14.234  22.057  0.00  0.00    +0.000 NA
ATOM     13  C   UNL     1      -5.963  13.327  21.538  0.00  0.00    +0.000 A 
ATOM     14  C   UNL     1      -7.326  13.002  21.775  0.00  0.00    +0.000 A 
ATOM     15  C   UNL     1      -7.890  11.973  21.112  0.00  0.00    +0.000 A 
ATOM     16  C   UNL     1      -7.129  11.181  20.156  0.00  0.00    +0.000 A 
ATOM     17  C   UNL     1      -5.843  11.497  19.917  0.00  0.00    +0.000 A 
ATOM     18  N   UNL     1      -5.266  12.570  20.605  0.00  0.00    +0.000 N 
ATOM     19  H   UNL     1      -3.144  11.985  19.060  0.00  0.00    +0.000 HD
ENDBRANCH   4   7
BRANCH   1  20
ATOM     20  S   UNL     1       0.855   8.918  21.256  0.00  0.00    +0.000 S 
ATOM     21  O   UNL     1      -0.441   8.431  21.689  0.00  0.00    +0.000 OA
ATOM     22  O   UNL     1       1.838   9.368  22.218  0.00  0.00    +0.000 OA
BRANCH  20  27
ATOM     23  C   UNL     1       3.330   4.395  17.985  0.00  0.00    +0.000 C 
ATOM     24  C   UNL     1       2.732   5.500  18.815  0.00  0.00    +0.000 A 
ATOM     25  C   UNL     1       2.749   6.815  18.323  0.00  0.00    +0.000 A 
ATOM     26  C   UNL     1       2.203   7.870  19.061  0.00  0.00    +0.000 A 
ATOM     27  C   UNL     1       1.604   7.611  20.291  0.00  0.00    +0.000 A 
ATOM     28  C   UNL     1       1.592   6.305  20.801  0.00  0.00    +0.000 A 
ATOM     29  C   UNL     1       2.159   5.243  20.077  0.00  0.00    +0.000 A 
ATOM     30  C   UNL     1       2.145   3.858  20.666  0.00  0.00    +0.000 C 
ENDBRANCH  20  27
ENDBRANCH   1  20
TORSDOF 3
ENDMDL
MODEL 2
REMARK VINA RESULT:      -8.0      2.723      9.428
REMARK  Name = 
REMARK  5 active torsions:
REMARK  status: ('A' for Active; 'I' for Inactive)
REMARK    1  A    between atoms: C_1  and  C_2
REMARK    2  A    between atoms: C_5  and  S_6
REMARK    3  A    between atoms: S_6  and  N_9
REMARK    4  A    between atoms: C_12  and  C_13
REMARK    5  A    between atoms: C_28  and  C_29
REMARK                            x       y       z     vdW  Elec       q    Type
REMARK                         _______ _______ _______ _____ _____    ______ ____
ROOT
ATOM      1  N   UNL     1      -0.090  11.605  20.361  0.00  0.00    +0.000 NA
ATOM      2  C   UNL     1       1.309  11.750  19.900  0.00  0.00    +0.000 C 
ATOM      3  C   UNL     1       1.472  11.377  18.428  0.00  0.00    +0.000 C 
ATOM      4  C   UNL     1       0.861  10.011  18.095  0.00  0.00    +0.000 C 
ATOM      5  C   UNL     1      -0.619  10.054  18.468  0.00  0.00    +0.000 C 
ATOM      6  C   UNL     1      -0.834  10.396  19.940  0.00  0.00    +0.000 C 
ENDROOT
BRANCH   4   7
ATOM      7  C   UNL     1       1.619   8.869  18.788  0.00  0.00    +0.000 C 
ATOM      8  O   UNL     1       1.513   8.689  19.995  0.00  0.00    +0.000 OA
ATOM      9  N   UNL     1       2.438   8.140  17.940  0.00  0.00    +0.000 N 
ATOM     10  C   UNL     1       3.063   6.995  18.409  0.00  0.00    +0.000 A 
ATOM     11  N   UNL     1       2.774   6.326  19.507  0.00  0.00    +0.000 NA
ATOM     12  N   UNL     1       3.598   5.232  19.602  0.00  0.00    +0.000 NA
ATOM     13  C   UNL     1       4.399   5.252  18.564  0.00  0.00    +0.000 A 
ATOM     14  C   UNL     1       5.458   4.395  18.160  0.00  0.00    +0.000 A 
ATOM     15  C   UNL     1       6.155   4.680  17.043  0.00  0.00    +0.000 A 
ATOM     16  C   UNL     1       5.848   5.853  16.238  0.00  0.00    +0.000 A 
ATOM     17  C   UNL     1       4.835   6.657  16.608  0.00  0.00    +0.000 A 
ATOM     18  N   UNL     1       4.111   6.352  17.766  0.00  0.00    +0.000 N 
ATOM     19  H   UNL     1       2.659   8.489  17.020  0.00  0.00    +0.000 HD
ENDBRANCH   4   7
BRANCH   1  20
ATOM     20  S   UNL     1      -0.380  12.106  21.983  0.00  0.00    +0.000 S 
ATOM     21  O   UNL     1       0.329  13.361  22.147  0.00  0.00    +0.000 OA
ATOM     22  O   UNL     1      -0.130  10.991  22.871  0.00  0.00    +0.000 OA
BRANCH  20  27
ATOM     23  C   UNL     1      -6.326  13.440  22.367  0.00  0.00    +0.000 C 
ATOM     24  C   UNL     1      -4.864  13.087  22.288  0.00  0.00    +0.000 A 
ATOM     25  C   UNL     1      -4.184  13.248  21.069  0.00  0.00    +0.000 A 
ATOM     26  C   UNL     1      -2.827  12.934  20.953  0.00  0.00    +0.000 A 
ATOM     27  C   UNL     1      -2.127  12.483  22.069  0.00  0.00    +0.000 A 
ATOM     28  C   UNL     1      -2.796  12.304  23.288  0.00  0.00    +0.000 A 
ATOM     29  C   UNL     1      -4.165  12.595  23.408  0.00  0.00    +0.000 A 
ATOM     30  C   UNL     1      -4.854  12.371  24.727  0.00  0.00    +0.000 C 
ENDBRANCH  20  27
ENDBRANCH   1  20
TORSDOF 3
ENDMDL
MODEL 3
REMARK VINA RESULT:      -7.9      4.514      7.579
REMARK  Name = 
REMARK  5 active torsions:
REMARK  status: ('A' for Active; 'I' for Inactive)
REMARK    1  A    between atoms: C_1  and  C_2
REMARK    2  A    between atoms: C_5  and  S_6
REMARK    3  A    between atoms: S_6  and  N_9
REMARK    4  A    between atoms: C_12  and  C_13
REMARK    5  A    between atoms: C_28  and  C_29
REMARK                            x       y       z     vdW  Elec       q    Type
REMARK                         _______ _______ _______ _____ _____    ______ ____
ROOT
ATOM      1  N   UNL     1       5.129   4.976  18.131  0.00  0.00    +0.000 NA
ATOM      2  C   UNL     1       4.933   5.347  19.550  0.00  0.00    +0.000 C 
ATOM      3  C   UNL     1       3.550   4.950  20.062  0.00  0.00    +0.000 C 
ATOM      4  C   UNL     1       2.420   5.434  19.146  0.00  0.00    +0.000 C 
ATOM      5  C   UNL     1       2.658   4.845  17.757  0.00  0.00    +0.000 C 
ATOM      6  C   UNL     1       4.019   5.237  17.187  0.00  0.00    +0.000 C 
ENDROOT
BRANCH   4   7
ATOM      7  C   UNL     1       2.318   6.966  19.135  0.00  0.00    +0.000 C 
ATOM      8  O   UNL     1       3.033   7.637  18.401  0.00  0.00    +0.000 OA
ATOM      9  N   UNL     1       1.408   7.476  20.048  0.00  0.00    +0.000 N 
ATOM     10  C   UNL     1       1.115   8.831  20.039  0.00  0.00    +0.000 A 
ATOM     11  N   UNL     1       1.386   9.695  19.081  0.00  0.00    +0.000 NA
ATOM     12  N   UNL     1       0.903  10.930  19.435  0.00  0.00    +0.000 NA
ATOM     13  C   UNL     1       0.355  10.814  20.620  0.00  0.00    +0.000 A 
ATOM     14  C   UNL     1      -0.272  11.757  21.478  0.00  0.00    +0.000 A 
ATOM     15  C   UNL     1      -0.723  11.362  22.685  0.00  0.00    +0.000 A 
ATOM     16  C   UNL     1      -0.580   9.984  23.132  0.00  0.00    +0.000 A 
ATOM     17  C   UNL     1      -0.002   9.085  22.316  0.00  0.00    +0.000 A 
ATOM     18  N   UNL     1       0.459   9.500  21.062  0.00  0.00    +0.000 N 
ATOM     19  H   UNL     1       1.035   6.889  20.779  0.00  0.00    +0.000 HD
ENDBRANCH   4   7
BRANCH   1  20
ATOM     20  S   UNL     1       6.702   5.293  17.504  0.00  0.00    +0.000 S 
ATOM     21  O   UNL     1       7.601   4.395  18.202  0.00  0.00    +0.000 OA
ATOM     22  O   UNL     1       6.930   6.723  17.508  0.00  0.00    +0.000 OA
BRANCH  20  27
ATOM     23  C   UNL     1       6.663   3.479  11.673  0.00  0.00    +0.000 C 
ATOM     24  C   UNL     1       6.672   3.954  13.102  0.00  0.00    +0.000 A 
ATOM     25  C   UNL     1       5.860   3.305  14.046  0.00  0.00    +0.000 A 
ATOM     26  C   UNL     1       5.839   3.713  15.384  0.00  0.00    +0.000 A 
ATOM     27  C   UNL     1       6.660   4.760  15.796  0.00  0.00    +0.000 A 
ATOM     28  C   UNL     1       7.466   5.426  14.861  0.00  0.00    +0.000 A 
ATOM     29  C   UNL     1       7.475   5.037  13.512  0.00  0.00    +0.000 A 
ATOM     30  C   UNL     1       8.338   5.789  12.534  0.00  0.00    +0.000 C 
ENDBRANCH  20  27
ENDBRANCH   1  20
TORSDOF 3
ENDMDL
MODEL 4
REMARK VINA RESULT:      -7.7      5.730      8.794
REMARK  Name = 
REMARK  5 active torsions:
REMARK  status: ('A' for Active; 'I' for Inactive)
REMARK    1  A    between atoms: C_1  and  C_2
REMARK    2  A    between atoms: C_5  and  S_6
REMARK    3  A    between atoms: S_6  and  N_9
REMARK    4  A    between atoms: C_12  and  C_13
REMARK    5  A    between atoms: C_28  and  C_29
REMARK                            x       y       z     vdW  Elec       q    Type
REMARK                         _______ _______ _______ _____ _____    ______ ____
ROOT
ATOM      1  N   UNL     1       4.831   3.828  17.941  0.00  0.00    +0.000 NA
ATOM      2  C   UNL     1       4.862   3.510  19.386  0.00  0.00    +0.000 C 
ATOM      3  C   UNL     1       3.846   2.433  19.760  0.00  0.00    +0.000 C 
ATOM      4  C   UNL     1       2.439   2.743  19.236  0.00  0.00    +0.000 C 
ATOM      5  C   UNL     1       2.524   2.884  17.718  0.00  0.00    +0.000 C 
ATOM      6  C   UNL     1       3.508   3.970  17.292  0.00  0.00    +0.000 C 
ENDROOT
BRANCH   4   7
ATOM      7  C   UNL     1       1.841   3.982  19.918  0.00  0.00    +0.000 C 
ATOM      8  O   UNL     1       1.101   3.868  20.888  0.00  0.00    +0.000 OA
ATOM      9  N   UNL     1       2.174   5.179  19.304  0.00  0.00    +0.000 N 
ATOM     10  C   UNL     1       1.819   6.378  19.903  0.00  0.00    +0.000 A 
ATOM     11  N   UNL     1       1.429   6.558  21.149  0.00  0.00    +0.000 NA
ATOM     12  N   UNL     1       1.203   7.895  21.364  0.00  0.00    +0.000 NA
ATOM     13  C   UNL     1       1.441   8.521  20.237  0.00  0.00    +0.000 A 
ATOM     14  C   UNL     1       1.349   9.890  19.870  0.00  0.00    +0.000 A 
ATOM     15  C   UNL     1       1.624  10.259  18.603  0.00  0.00    +0.000 A 
ATOM     16  C   UNL     1       2.012   9.280  17.597  0.00  0.00    +0.000 A 
ATOM     17  C   UNL     1       2.117   7.985  17.947  0.00  0.00    +0.000 A 
ATOM     18  N   UNL     1       1.836   7.610  19.265  0.00  0.00    +0.000 N 
ATOM     19  H   UNL     1       2.582   5.183  18.382  0.00  0.00    +0.000 HD
ENDBRANCH   4   7
BRANCH   1  20
ATOM     20  S   UNL     1       6.021   4.959  17.416  0.00  0.00    +0.000 S 
ATOM     21  O   UNL     1       7.250   4.589  18.092  0.00  0.00    +0.000 OA
ATOM     22  O   UNL     1       5.481   6.296  17.535  0.00  0.00    +0.000 OA
BRANCH  20  27
ATOM     23  C   UNL     1       6.966   3.833  11.490  0.00  0.00    +0.000 C 
ATOM     24  C   UNL     1       6.737   4.138  12.946  0.00  0.00    +0.000 A 
ATOM     25  C   UNL     1       5.709   3.471  13.634  0.00  0.00    +0.000 A 
ATOM     26  C   UNL     1       5.463   3.724  14.987  0.00  0.00    +0.000 A 
ATOM     27  C   UNL     1       6.268   4.630  15.675  0.00  0.00    +0.000 A 
ATOM     28  C   UNL     1       7.287   5.313  14.997  0.00  0.00    +0.000 A 
ATOM     29  C   UNL     1       7.526   5.082  13.633  0.00  0.00    +0.000 A 
ATOM     30  C   UNL     1       8.617   5.850  12.935  0.00  0.00    +0.000 C 
ENDBRANCH  20  27
ENDBRANCH   1  20
TORSDOF 3
ENDMDL
MODEL 5
REMARK VINA RESULT:      -7.7      0.420      1.334
REMARK  Name = 
REMARK  5 active torsions:
REMARK  status: ('A' for Active; 'I' for Inactive)
REMARK    1  A    between atoms: C_1  and  C_2
REMARK    2  A    between atoms: C_5  and  S_6
REMARK    3  A    between atoms: S_6  and  N_9
REMARK    4  A    between atoms: C_12  and  C_13
REMARK    5  A    between atoms: C_28  and  C_29
REMARK                            x       y       z     vdW  Elec       q    Type
REMARK                         _______ _______ _______ _____ _____    ______ ____
ROOT
ATOM      1  N   UNL     1       0.421  10.098  20.076  0.00  0.00    +0.000 NA
ATOM      2  C   UNL     1      -0.932  10.058  19.475  0.00  0.00    +0.000 C 
ATOM      3  C   UNL     1      -1.099  11.093  18.364  0.00  0.00    +0.000 C 
ATOM      4  C   UNL     1      -0.669  12.499  18.800  0.00  0.00    +0.000 C 
ATOM      5  C   UNL     1       0.792  12.428  19.240  0.00  0.00    +0.000 C 
ATOM      6  C   UNL     1       1.007  11.425  20.370  0.00  0.00    +0.000 C 
ENDROOT
BRANCH   4   7
ATOM      7  C   UNL     1      -1.594  13.062  19.888  0.00  0.00    +0.000 C 
ATOM      8  O   UNL     1      -1.136  13.671  20.846  0.00  0.00    +0.000 OA
ATOM      9  N   UNL     1      -2.934  12.764  19.698  0.00  0.00    +0.000 N 
ATOM     10  C   UNL     1      -3.887  13.333  20.528  0.00  0.00    +0.000 A 
ATOM     11  N   UNL     1      -3.723  14.362  21.336  0.00  0.00    +0.000 NA
ATOM     12  N   UNL     1      -4.913  14.643  21.961  0.00  0.00    +0.000 NA
ATOM     13  C   UNL     1      -5.794  13.767  21.541  0.00  0.00    +0.000 A 
ATOM     14  C   UNL     1      -7.163  13.562  21.862  0.00  0.00    +0.000 A 
ATOM     15  C   UNL     1      -7.833  12.540  21.295  0.00  0.00    +0.000 A 
ATOM     16  C   UNL     1      -7.182  11.634  20.359  0.00  0.00    +0.000 A 
ATOM     17  C   UNL     1      -5.891  11.836  20.040  0.00  0.00    +0.000 A 
ATOM     18  N   UNL     1      -5.202  12.903  20.627  0.00  0.00    +0.000 N 
ATOM     19  H   UNL     1      -3.211  12.063  19.028  0.00  0.00    +0.000 HD
ENDBRANCH   4   7
BRANCH   1  20
ATOM     20  S   UNL     1       0.727   8.891  21.265  0.00  0.00    +0.000 S 
ATOM     21  O   UNL     1      -0.570   8.376  21.657  0.00  0.00    +0.000 OA
ATOM     22  O   UNL     1       1.643   9.425  22.251  0.00  0.00    +0.000 OA
BRANCH  20  27
ATOM     23  C   UNL     1       3.692   4.436  18.323  0.00  0.00    +0.000 C 
ATOM     24  C   UNL     1       2.952   5.545  19.023  0.00  0.00    +0.000 A 
ATOM     25  C   UNL     1       2.221   5.255  20.187  0.00  0.00    +0.000 A 
ATOM     26  C   UNL     1       1.521   6.255  20.869  0.00  0.00    +0.000 A 
ATOM     27  C   UNL     1       1.572   7.568  20.407  0.00  0.00    +0.000 A 
ATOM     28  C   UNL     1       2.286   7.869  19.238  0.00  0.00    +0.000 A 
ATOM     29  C   UNL     1       2.973   6.866  18.534  0.00  0.00    +0.000 A 
ATOM     30  C   UNL     1       3.712   7.226  17.273  0.00  0.00    +0.000 C 
ENDBRANCH  20  27
ENDBRANCH   1  20
TORSDOF 3
ENDMDL
MODEL 6
REMARK VINA RESULT:      -7.6      1.597      2.261
REMARK  Name = 
REMARK  5 active torsions:
REMARK  status: ('A' for Active; 'I' for Inactive)
REMARK    1  A    between atoms: C_1  and  C_2
REMARK    2  A    between atoms: C_5  and  S_6
REMARK    3  A    between atoms: S_6  and  N_9
REMARK    4  A    between atoms: C_12  and  C_13
REMARK    5  A    between atoms: C_28  and  C_29
REMARK                            x       y       z     vdW  Elec       q    Type
REMARK                         _______ _______ _______ _____ _____    ______ ____
ROOT
ATOM      1  N   UNL     1       0.331  10.437  20.367  0.00  0.00    +0.000 NA
ATOM      2  C   UNL     1      -0.599  10.137  19.255  0.00  0.00    +0.000 C 
ATOM      3  C   UNL     1      -0.783  11.329  18.320  0.00  0.00    +0.000 C 
ATOM      4  C   UNL     1      -1.132  12.619  19.071  0.00  0.00    +0.000 C 
ATOM      5  C   UNL     1      -0.011  12.899  20.070  0.00  0.00    +0.000 C 
ATOM      6  C   UNL     1       0.195  11.745  21.047  0.00  0.00    +0.000 C 
ENDROOT
BRANCH   4   7
ATOM      7  C   UNL     1      -2.514  12.531  19.735  0.00  0.00    +0.000 C 
ATOM      8  O   UNL     1      -3.353  11.735  19.333  0.00  0.00    +0.000 OA
ATOM      9  N   UNL     1      -2.710  13.451  20.754  0.00  0.00    +0.000 N 
ATOM     10  C   UNL     1      -3.857  13.381  21.528  0.00  0.00    +0.000 A 
ATOM     11  N   UNL     1      -4.697  12.369  21.614  0.00  0.00    +0.000 NA
ATOM     12  N   UNL     1      -5.687  12.675  22.514  0.00  0.00    +0.000 NA
ATOM     13  C   UNL     1      -5.452  13.886  22.959  0.00  0.00    +0.000 A 
ATOM     14  C   UNL     1      -6.150  14.716  23.877  0.00  0.00    +0.000 A 
ATOM     15  C   UNL     1      -5.695  15.959  24.129  0.00  0.00    +0.000 A 
ATOM     16  C   UNL     1      -4.499  16.473  23.478  0.00  0.00    +0.000 A 
ATOM     17  C   UNL     1      -3.826  15.683  22.621  0.00  0.00    +0.000 A 
ATOM     18  N   UNL     1      -4.301  14.392  22.368  0.00  0.00    +0.000 N 
ATOM     19  H   UNL     1      -2.075  14.226  20.870  0.00  0.00    +0.000 HD
ENDBRANCH   4   7
BRANCH   1  20
ATOM     20  S   UNL     1       0.676   9.110  21.409  0.00  0.00    +0.000 S 
ATOM     21  O   UNL     1      -0.608   8.552  21.786  0.00  0.00    +0.000 OA
ATOM     22  O   UNL     1       1.623   9.539  22.417  0.00  0.00    +0.000 OA
BRANCH  20  27
ATOM     23  C   UNL     1       3.382   4.878  17.938  0.00  0.00    +0.000 C 
ATOM     24  C   UNL     1       2.728   5.910  18.817  0.00  0.00    +0.000 A 
ATOM     25  C   UNL     1       2.676   7.246  18.386  0.00  0.00    +0.000 A 
ATOM     26  C   UNL     1       2.076   8.236  19.171  0.00  0.00    +0.000 A 
ATOM     27  C   UNL     1       1.492   7.889  20.387  0.00  0.00    +0.000 A 
ATOM     28  C   UNL     1       1.549   6.562  20.836  0.00  0.00    +0.000 A 
ATOM     29  C   UNL     1       2.170   5.566  20.065  0.00  0.00    +0.000 A 
ATOM     30  C   UNL     1       2.228   4.157  20.590  0.00  0.00    +0.000 C 
ENDBRANCH  20  27
ENDBRANCH   1  20
TORSDOF 3
ENDMDL
MODEL 7
REMARK VINA RESULT:      -7.6      6.590     10.353
REMARK  Name = 
REMARK  5 active torsions:
REMARK  status: ('A' for Active; 'I' for Inactive)
REMARK    1  A    between atoms: C_1  and  C_2
REMARK    2  A    between atoms: C_5  and  S_6
REMARK    3  A    between atoms: S_6  and  N_9
REMARK    4  A    between atoms: C_12  and  C_13
REMARK    5  A    between atoms: C_28  and  C_29
REMARK                            x       y       z     vdW  Elec       q    Type
REMARK                         _______ _______ _______ _____ _____    ______ ____
ROOT
ATOM      1  N   UNL     1       4.637   5.422  17.742  0.00  0.00    +0.000 NA
ATOM      2  C   UNL     1       4.712   6.761  17.116  0.00  0.00    +0.000 C 
ATOM      3  C   UNL     1       5.831   6.850  16.080  0.00  0.00    +0.000 C 
ATOM      4  C   UNL     1       7.178   6.358  16.624  0.00  0.00    +0.000 C 
ATOM      5  C   UNL     1       6.998   4.913  17.085  0.00  0.00    +0.000 C 
ATOM      6  C   UNL     1       5.906   4.774  18.143  0.00  0.00    +0.000 C 
ENDROOT
BRANCH   4   7
ATOM      7  C   UNL     1       7.709   7.276  17.734  0.00  0.00    +0.000 C 
ATOM      8  O   UNL     1       7.926   6.840  18.858  0.00  0.00    +0.000 OA
ATOM      9  N   UNL     1       7.854   8.600  17.349  0.00  0.00    +0.000 N 
ATOM     10  C   UNL     1       8.460   9.501  18.210  0.00  0.00    +0.000 A 
ATOM     11  N   UNL     1       9.184   9.218  19.275  0.00  0.00    +0.000 NA
ATOM     12  N   UNL     1       9.636  10.385  19.840  0.00  0.00    +0.000 NA
ATOM     13  C   UNL     1       9.166  11.376  19.123  0.00  0.00    +0.000 A 
ATOM     14  C   UNL     1       9.287  12.786  19.251  0.00  0.00    +0.000 A 
ATOM     15  C   UNL     1       8.655  13.590  18.373  0.00  0.00    +0.000 A 
ATOM     16  C   UNL     1       7.846  13.044  17.293  0.00  0.00    +0.000 A 
ATOM     17  C   UNL     1       7.744  11.709  17.159  0.00  0.00    +0.000 A 
ATOM     18  N   UNL     1       8.407  10.880  18.070  0.00  0.00    +0.000 N 
ATOM     19  H   UNL     1       7.435   8.931  16.494  0.00  0.00    +0.000 HD
ENDBRANCH   4   7
BRANCH   1  20
ATOM     20  S   UNL     1       3.333   5.205  18.846  0.00  0.00    +0.000 S 
ATOM     21  O   UNL     1       3.940   4.953  20.139  0.00  0.00    +0.000 OA
ATOM     22  O   UNL     1       2.386   4.270  18.276  0.00  0.00    +0.000 OA
BRANCH  20  27
ATOM     23  C   UNL     1       0.616  10.654  19.306  0.00  0.00    +0.000 C 
ATOM     24  C   UNL     1       1.266   9.299  19.211  0.00  0.00    +0.000 A 
ATOM     25  C   UNL     1       1.687   8.826  17.957  0.00  0.00    +0.000 A 
ATOM     26  C   UNL     1       2.297   7.575  17.824  0.00  0.00    +0.000 A 
ATOM     27  C   UNL     1       2.520   6.795  18.956  0.00  0.00    +0.000 A 
ATOM     28  C   UNL     1       2.092   7.248  20.212  0.00  0.00    +0.000 A 
ATOM     29  C   UNL     1       1.458   8.494  20.351  0.00  0.00    +0.000 A 
ATOM     30  C   UNL     1       0.995   8.937  21.713  0.00  0.00    +0.000 C 
ENDBRANCH  20  27
ENDBRANCH   1  20
TORSDOF 3
ENDMDL
MODEL 8
REMARK VINA RESULT:      -7.6      2.610      9.416
REMARK  Name = 
REMARK  5 active torsions:
REMARK  status: ('A' for Active; 'I' for Inactive)
REMARK    1  A    between atoms: C_1  and  C_2
REMARK    2  A    between atoms: C_5  and  S_6
REMARK    3  A    between atoms: S_6  and  N_9
REMARK    4  A    between atoms: C_12  and  C_13
REMARK    5  A    between atoms: C_28  and  C_29
REMARK                            x       y       z     vdW  Elec       q    Type
REMARK                         _______ _______ _______ _____ _____    ______ ____
ROOT
ATOM      1  N   UNL     1      -0.242  11.581  20.527  0.00  0.00    +0.000 NA
ATOM      2  C   UNL     1       1.155  11.759  20.072  0.00  0.00    +0.000 C 
ATOM      3  C   UNL     1       1.329  11.407  18.596  0.00  0.00    +0.000 C 
ATOM      4  C   UNL     1       0.747  10.032  18.246  0.00  0.00    +0.000 C 
ATOM      5  C   UNL     1      -0.735  10.042  18.615  0.00  0.00    +0.000 C 
ATOM      6  C   UNL     1      -0.962  10.363  20.090  0.00  0.00    +0.000 C 
ENDROOT
BRANCH   4   7
ATOM      7  C   UNL     1       1.525   8.898  18.928  0.00  0.00    +0.000 C 
ATOM      8  O   UNL     1       1.448   8.725  20.138  0.00  0.00    +0.000 OA
ATOM      9  N   UNL     1       2.327   8.166  18.066  0.00  0.00    +0.000 N 
ATOM     10  C   UNL     1       2.967   7.027  18.527  0.00  0.00    +0.000 A 
ATOM     11  N   UNL     1       2.706   6.364  19.636  0.00  0.00    +0.000 NA
ATOM     12  N   UNL     1       3.536   5.273  19.718  0.00  0.00    +0.000 NA
ATOM     13  C   UNL     1       4.313   5.290  18.663  0.00  0.00    +0.000 A 
ATOM     14  C   UNL     1       5.366   4.434  18.239  0.00  0.00    +0.000 A 
ATOM     15  C   UNL     1       6.036   4.715  17.105  0.00  0.00    +0.000 A 
ATOM     16  C   UNL     1       5.705   5.882  16.300  0.00  0.00    +0.000 A 
ATOM     17  C   UNL     1       4.698   6.685  16.688  0.00  0.00    +0.000 A 
ATOM     18  N   UNL     1       4.003   6.384  17.865  0.00  0.00    +0.000 N 
ATOM     19  H   UNL     1       2.526   8.511  17.139  0.00  0.00    +0.000 HD
ENDBRANCH   4   7
BRANCH   1  20
ATOM     20  S   UNL     1      -0.547  12.058  22.153  0.00  0.00    +0.000 S 
ATOM     21  O   UNL     1       0.135  13.325  22.333  0.00  0.00    +0.000 OA
ATOM     22  O   UNL     1      -0.276  10.938  23.030  0.00  0.00    +0.000 OA
BRANCH  20  27
ATOM     23  C   UNL     1      -6.551  13.152  22.364  0.00  0.00    +0.000 C 
ATOM     24  C   UNL     1      -5.067  12.903  22.293  0.00  0.00    +0.000 A 
ATOM     25  C   UNL     1      -4.351  12.677  23.480  0.00  0.00    +0.000 A 
ATOM     26  C   UNL     1      -2.973  12.441  23.458  0.00  0.00    +0.000 A 
ATOM     27  C   UNL     1      -2.302  12.397  22.239  0.00  0.00    +0.000 A 
ATOM     28  C   UNL     1      -3.002  12.635  21.047  0.00  0.00    +0.000 A 
ATOM     29  C   UNL     1      -4.382  12.896  21.062  0.00  0.00    +0.000 A 
ATOM     30  C   UNL     1      -5.094  13.167  19.764  0.00  0.00    +0.000 C 
ENDBRANCH  20  27
ENDBRANCH   1  20
TORSDOF 3
ENDMDL
MODEL 9
REMARK VINA RESULT:      -7.5      2.794      9.063
REMARK  Name = 
REMARK  5 active torsions:
REMARK  status: ('A' for Active; 'I' for Inactive)
REMARK    1  A    between atoms: C_1  and  C_2
REMARK    2  A    between atoms: C_5  and  S_6
REMARK    3  A    between atoms: S_6  and  N_9
REMARK    4  A    between atoms: C_12  and  C_13
REMARK    5  A    between atoms: C_28  and  C_29
REMARK                            x       y       z     vdW  Elec       q    Type
REMARK                         _______ _______ _______ _____ _____    ______ ____
ROOT
ATOM      1  N   UNL     1      -0.079  10.932  20.762  0.00  0.00    +0.000 NA
ATOM      2  C   UNL     1      -0.823   9.700  20.415  0.00  0.00    +0.000 C 
ATOM      3  C   UNL     1      -0.570   8.574  21.415  0.00  0.00    +0.000 C 
ATOM      4  C   UNL     1       0.923   8.331  21.665  0.00  0.00    +0.000 C 
ATOM      5  C   UNL     1       1.532   9.636  22.174  0.00  0.00    +0.000 C 
ATOM      6  C   UNL     1       1.330  10.790  21.195  0.00  0.00    +0.000 C 
ENDROOT
BRANCH   4   7
ATOM      7  C   UNL     1       1.627   7.794  20.410  0.00  0.00    +0.000 C 
ATOM      8  O   UNL     1       1.912   8.542  19.483  0.00  0.00    +0.000 OA
ATOM      9  N   UNL     1       1.838   6.424  20.426  0.00  0.00    +0.000 N 
ATOM     10  C   UNL     1       2.591   5.836  19.422  0.00  0.00    +0.000 A 
ATOM     11  N   UNL     1       3.387   6.445  18.566  0.00  0.00    +0.000 NA
ATOM     12  N   UNL     1       3.979   5.511  17.753  0.00  0.00    +0.000 NA
ATOM     13  C   UNL     1       3.524   4.334  18.110  0.00  0.00    +0.000 A 
ATOM     14  C   UNL     1       3.766   3.026  17.610  0.00  0.00    +0.000 A 
ATOM     15  C   UNL     1       3.120   1.976  18.153  0.00  0.00    +0.000 A 
ATOM     16  C   UNL     1       2.173   2.153  19.245  0.00  0.00    +0.000 A 
ATOM     17  C   UNL     1       1.954   3.388  19.732  0.00  0.00    +0.000 A 
ATOM     18  N   UNL     1       2.633   4.473  19.167  0.00  0.00    +0.000 N 
ATOM     19  H   UNL     1       1.368   5.844  21.103  0.00  0.00    +0.000 HD
ENDBRANCH   4   7
BRANCH   1  20
ATOM     20  S   UNL     1      -0.390  12.285  19.743  0.00  0.00    +0.000 S 
ATOM     21  O   UNL     1       0.450  12.108  18.574  0.00  0.00    +0.000 OA
ATOM     22  O   UNL     1      -0.318  13.495  20.533  0.00  0.00    +0.000 OA
BRANCH  20  27
ATOM     23  C   UNL     1      -6.147  11.560  17.838  0.00  0.00    +0.000 C 
ATOM     24  C   UNL     1      -4.720  11.749  18.281  0.00  0.00    +0.000 A 
ATOM     25  C   UNL     1      -4.462  12.294  19.550  0.00  0.00    +0.000 A 
ATOM     26  C   UNL     1      -3.152  12.485  20.001  0.00  0.00    +0.000 A 
ATOM     27  C   UNL     1      -2.084  12.100  19.195  0.00  0.00    +0.000 A 
ATOM     28  C   UNL     1      -2.327  11.567  17.921  0.00  0.00    +0.000 A 
ATOM     29  C   UNL     1      -3.639  11.394  17.450  0.00  0.00    +0.000 A 
ATOM     30  C   UNL     1      -3.859  10.838  16.069  0.00  0.00    +0.000 C 
ENDBRANCH  20  27
ENDBRANCH   1  20
TORSDOF 3
ENDMDL
