MODEL 1
REMARK VINA RESULT:      -8.1      0.000      0.000
REMARK  Name = 
REMARK  3 active torsions:
REMARK  status: ('A' for Active; 'I' for Inactive)
REMARK    1  A    between atoms: C_2  and  C_3
REMARK    2  A    between atoms: C_3  and  N_4
REMARK    3  A    between atoms: N_15  and  C_16
REMARK                            x       y       z     vdW  Elec       q    Type
REMARK                         _______ _______ _______ _____ _____    ______ ____
ROOT
ATOM      1  O   UNL     1       4.200   7.644  17.703  0.00  0.00    +0.000 OA
ATOM      2  C   UNL     1       2.973   7.548  17.752  0.00  0.00    +0.000 C 
ATOM      3  N   UNL     1       2.264   6.361  17.834  0.00  0.00    +0.000 N 
ATOM      4  H   UNL     1       1.251   6.374  17.716  0.00  0.00    +0.000 HD
ENDROOT
BRANCH   3   5
ATOM      5  C   UNL     1       2.820   5.049  17.922  0.00  0.00    +0.000 A 
ATOM      6  C   UNL     1       3.778   4.581  17.012  0.00  0.00    +0.000 A 
ATOM      7  C   UNL     1       4.270   3.282  17.097  0.00  0.00    +0.000 A 
ATOM      8  C   UNL     1       3.812   2.437  18.100  0.00  0.00    +0.000 A 
ATOM      9  C   UNL     1       2.888   2.903  19.047  0.00  0.00    +0.000 A 
ATOM     10  C   UNL     1       2.451   2.065  20.079  0.00  0.00    +0.000 A 
ATOM     11  C   UNL     1       1.558   2.545  21.025  0.00  0.00    +0.000 A 
ATOM     12  C   UNL     1       1.127   3.854  20.899  0.00  0.00    +0.000 A 
ATOM     13  N   UNL     1       1.506   4.686  19.900  0.00  0.00    +0.000 NA
ATOM     14  C   UNL     1       2.386   4.228  18.981  0.00  0.00    +0.000 A 
ENDBRANCH   3   5
BRANCH   2  15
ATOM     15  C   UNL     1       2.125   8.816  17.814  0.00  0.00    +0.000 C 
BRANCH  15  16
ATOM     16  N   UNL     1       1.517   9.035  19.114  0.00  0.00    +0.000 N 
ATOM     17  N   UNL     1       1.800   8.107  20.076  0.00  0.00    +0.000 NA
ATOM     18  N   UNL     1       1.303   8.180  21.222  0.00  0.00    +0.000 NA
ATOM     19  C   UNL     1       0.459   9.245  21.550  0.00  0.00    +0.000 A 
ATOM     20  C   UNL     1      -0.032   9.347  22.858  0.00  0.00    +0.000 A 
ATOM     21  C   UNL     1      -0.866  10.409  23.228  0.00  0.00    +0.000 A 
ATOM     22  C   UNL     1      -1.235  11.368  22.287  0.00  0.00    +0.000 A 
ATOM     23  C   UNL     1      -0.761  11.274  20.981  0.00  0.00    +0.000 A 
ATOM     24  C   UNL     1       0.091  10.220  20.635  0.00  0.00    +0.000 A 
ATOM     25  C   UNL     1       0.671  10.107  19.302  0.00  0.00    +0.000 A 
ATOM     26  O   UNL     1       0.422  10.942  18.439  0.00  0.00    +0.000 OA
ENDBRANCH  15  16
ENDBRANCH   2  15
TORSDOF 3
ENDMDL
MODEL 2
REMARK VINA RESULT:      -7.9      2.564      7.552
REMARK  Name = 
REMARK  3 active torsions:
REMARK  status: ('A' for Active; 'I' for Inactive)
REMARK    1  A    between atoms: C_2  and  C_3
REMARK    2  A    between atoms: C_3  and  N_4
REMARK    3  A    between atoms: N_15  and  C_16
REMARK                            x       y       z     vdW  Elec       q    Type
REMARK                         _______ _______ _______ _____ _____    ______ ____
ROOT
ATOM      1  O   UNL     1       0.739   4.374  20.302  0.00  0.00    +0.000 OA
ATOM      2  C   UNL     1       1.928   4.677  20.202  0.00  0.00    +0.000 C 
ATOM      3  N   UNL     1       2.436   5.964  20.261  0.00  0.00    +0.000 N 
ATOM      4  H   UNL     1       3.413   6.128  20.018  0.00  0.00    +0.000 HD
ENDROOT
BRANCH   3   5
ATOM      5  C   UNL     1       1.689   7.158  20.492  0.00  0.00    +0.000 A 
ATOM      6  C   UNL     1       0.906   7.339  21.641  0.00  0.00    +0.000 A 
ATOM      7  C   UNL     1       0.154   8.496  21.819  0.00  0.00    +0.000 A 
ATOM      8  C   UNL     1       0.181   9.489  20.848  0.00  0.00    +0.000 A 
ATOM      9  C   UNL     1       0.993   9.346  19.714  0.00  0.00    +0.000 A 
ATOM     10  C   UNL     1       1.049  10.360  18.751  0.00  0.00    +0.000 A 
ATOM     11  C   UNL     1       1.876  10.218  17.648  0.00  0.00    +0.000 A 
ATOM     12  C   UNL     1       2.619   9.055  17.544  0.00  0.00    +0.000 A 
ATOM     13  N   UNL     1       2.571   8.041  18.439  0.00  0.00    +0.000 NA
ATOM     14  C   UNL     1       1.775   8.177  19.524  0.00  0.00    +0.000 A 
ENDBRANCH   3   5
BRANCH   2  15
ATOM     15  C   UNL     1       2.974   3.570  20.087  0.00  0.00    +0.000 C 
BRANCH  15  16
ATOM     16  N   UNL     1       4.046   3.890  19.162  0.00  0.00    +0.000 N 
ATOM     17  N   UNL     1       5.217   4.318  19.721  0.00  0.00    +0.000 NA
ATOM     18  N   UNL     1       6.196   4.652  19.017  0.00  0.00    +0.000 NA
ATOM     19  C   UNL     1       6.115   4.564  17.624  0.00  0.00    +0.000 A 
ATOM     20  C   UNL     1       7.243   4.875  16.855  0.00  0.00    +0.000 A 
ATOM     21  C   UNL     1       7.206   4.782  15.459  0.00  0.00    +0.000 A 
ATOM     22  C   UNL     1       6.031   4.397  14.816  0.00  0.00    +0.000 A 
ATOM     23  C   UNL     1       4.899   4.092  15.567  0.00  0.00    +0.000 A 
ATOM     24  C   UNL     1       4.962   4.168  16.963  0.00  0.00    +0.000 A 
ATOM     25  C   UNL     1       3.831   3.797  17.805  0.00  0.00    +0.000 A 
ATOM     26  O   UNL     1       2.780   3.407  17.303  0.00  0.00    +0.000 OA
ENDBRANCH  15  16
ENDBRANCH   2  15
TORSDOF 3
ENDMDL
MODEL 3
REMARK VINA RESULT:      -7.8      3.771      8.009
REMARK  Name = 
REMARK  3 active torsions:
REMARK  status: ('A' for Active; 'I' for Inactive)
REMARK    1  A    between atoms: C_2  and  C_3
REMARK    2  A    between atoms: C_3  and  N_4
REMARK    3  A    between atoms: N_15  and  C_16
REMARK                            x       y       z     vdW  Elec       q    Type
REMARK                         _______ _______ _______ _____ _____    ______ ____
ROOT
ATOM      1  O   UNL     1       4.887   6.825  17.288  0.00  0.00    +0.000 OA
ATOM      2  C   UNL     1       5.461   5.895  17.856  0.00  0.00    +0.000 C 
ATOM      3  N   UNL     1       4.917   5.108  18.857  0.00  0.00    +0.000 N 
ATOM      4  H   UNL     1       5.519   4.464  19.370  0.00  0.00    +0.000 HD
ENDROOT
BRANCH   3   5
ATOM      5  C   UNL     1       3.590   5.199  19.377  0.00  0.00    +0.000 A 
ATOM      6  C   UNL     1       3.098   6.372  19.967  0.00  0.00    +0.000 A 
ATOM      7  C   UNL     1       1.814   6.417  20.504  0.00  0.00    +0.000 A 
ATOM      8  C   UNL     1       1.007   5.289  20.451  0.00  0.00    +0.000 A 
ATOM      9  C   UNL     1       1.465   4.121  19.824  0.00  0.00    +0.000 A 
ATOM     10  C   UNL     1       0.640   2.994  19.739  0.00  0.00    +0.000 A 
ATOM     11  C   UNL     1       1.096   1.854  19.092  0.00  0.00    +0.000 A 
ATOM     12  C   UNL     1       2.371   1.883  18.556  0.00  0.00    +0.000 A 
ATOM     13  N   UNL     1       3.208   2.943  18.642  0.00  0.00    +0.000 NA
ATOM     14  C   UNL     1       2.766   4.062  19.261  0.00  0.00    +0.000 A 
ENDBRANCH   3   5
BRANCH   2  15
ATOM     15  C   UNL     1       6.858   5.486  17.395  0.00  0.00    +0.000 C 
BRANCH  15  16
ATOM     16  N   UNL     1       6.919   5.151  15.984  0.00  0.00    +0.000 N 
ATOM     17  N   UNL     1       7.902   5.764  15.260  0.00  0.00    +0.000 NA
ATOM     18  N   UNL     1       8.026   5.572  14.030  0.00  0.00    +0.000 NA
ATOM     19  C   UNL     1       7.164   4.690  13.371  0.00  0.00    +0.000 A 
ATOM     20  C   UNL     1       7.361   4.435  12.008  0.00  0.00    +0.000 A 
ATOM     21  C   UNL     1       6.529   3.546  11.319  0.00  0.00    +0.000 A 
ATOM     22  C   UNL     1       5.476   2.918  11.981  0.00  0.00    +0.000 A 
ATOM     23  C   UNL     1       5.263   3.169  13.334  0.00  0.00    +0.000 A 
ATOM     24  C   UNL     1       6.120   4.042  14.013  0.00  0.00    +0.000 A 
ATOM     25  C   UNL     1       5.987   4.292  15.444  0.00  0.00    +0.000 A 
ATOM     26  O   UNL     1       5.107   3.737  16.095  0.00  0.00    +0.000 OA
ENDBRANCH  15  16
ENDBRANCH   2  15
TORSDOF 3
ENDMDL
MODEL 4
REMARK VINA RESULT:      -7.7      2.365      7.722
REMARK  Name = 
REMARK  3 active torsions:
REMARK  status: ('A' for Active; 'I' for Inactive)
REMARK    1  A    between atoms: C_2  and  C_3
REMARK    2  A    between atoms: C_3  and  N_4
REMARK    3  A    between atoms: N_15  and  C_16
REMARK                            x       y       z     vdW  Elec       q    Type
REMARK                         _______ _______ _______ _____ _____    ______ ____
ROOT
ATOM      1  O   UNL     1       0.888   4.799  20.547  0.00  0.00    +0.000 OA
ATOM      2  C   UNL     1       2.035   5.238  20.450  0.00  0.00    +0.000 C 
ATOM      3  N   UNL     1       2.388   6.576  20.500  0.00  0.00    +0.000 N 
ATOM      4  H   UNL     1       3.341   6.851  20.259  0.00  0.00    +0.000 HD
ENDROOT
BRANCH   3   5
ATOM      5  C   UNL     1       1.505   7.676  20.716  0.00  0.00    +0.000 A 
ATOM      6  C   UNL     1       0.726   7.792  21.876  0.00  0.00    +0.000 A 
ATOM      7  C   UNL     1      -0.159   8.854  22.040  0.00  0.00    +0.000 A 
ATOM      8  C   UNL     1      -0.270   9.816  21.045  0.00  0.00    +0.000 A 
ATOM      9  C   UNL     1       0.534   9.742  19.899  0.00  0.00    +0.000 A 
ATOM     10  C   UNL     1       0.449  10.729  18.910  0.00  0.00    +0.000 A 
ATOM     11  C   UNL     1       1.268  10.658  17.794  0.00  0.00    +0.000 A 
ATOM     12  C   UNL     1       2.145   9.592  17.703  0.00  0.00    +0.000 A 
ATOM     13  N   UNL     1       2.237   8.604  18.624  0.00  0.00    +0.000 NA
ATOM     14  C   UNL     1       1.449   8.672  19.722  0.00  0.00    +0.000 A 
ENDBRANCH   3   5
BRANCH   2  15
ATOM     15  C   UNL     1       3.203   4.260  20.350  0.00  0.00    +0.000 C 
BRANCH  15  16
ATOM     16  N   UNL     1       3.830   4.250  19.040  0.00  0.00    +0.000 N 
ATOM     17  N   UNL     1       3.033   3.881  17.993  0.00  0.00    +0.000 NA
ATOM     18  N   UNL     1       3.478   3.807  16.826  0.00  0.00    +0.000 NA
ATOM     19  C   UNL     1       4.813   4.134  16.566  0.00  0.00    +0.000 A 
ATOM     20  C   UNL     1       5.274   4.112  15.244  0.00  0.00    +0.000 A 
ATOM     21  C   UNL     1       6.598   4.449  14.943  0.00  0.00    +0.000 A 
ATOM     22  C   UNL     1       7.482   4.792  15.965  0.00  0.00    +0.000 A 
ATOM     23  C   UNL     1       7.038   4.810  17.285  0.00  0.00    +0.000 A 
ATOM     24  C   UNL     1       5.705   4.493  17.564  0.00  0.00    +0.000 A 
ATOM     25  C   UNL     1       5.167   4.559  18.918  0.00  0.00    +0.000 A 
ATOM     26  O   UNL     1       5.881   4.897  19.858  0.00  0.00    +0.000 OA
ENDBRANCH  15  16
ENDBRANCH   2  15
TORSDOF 3
ENDMDL
MODEL 5
REMARK VINA RESULT:      -7.6      3.786      7.903
REMARK  Name = 
REMARK  3 active torsions:
REMARK  status: ('A' for Active; 'I' for Inactive)
REMARK    1  A    between atoms: C_2  and  C_3
REMARK    2  A    between atoms: C_3  and  N_4
REMARK    3  A    between atoms: N_15  and  C_16
REMARK                            x       y       z     vdW  Elec       q    Type
REMARK                         _______ _______ _______ _____ _____    ______ ____
ROOT
ATOM      1  O   UNL     1       6.109   4.804  19.892  0.00  0.00    +0.000 OA
ATOM      2  C   UNL     1       5.843   5.255  18.777  0.00  0.00    +0.000 C 
ATOM      3  N   UNL     1       4.576   5.589  18.329  0.00  0.00    +0.000 N 
ATOM      4  H   UNL     1       4.437   5.811  17.343  0.00  0.00    +0.000 HD
ENDROOT
BRANCH   3   5
ATOM      5  C   UNL     1       3.366   5.517  19.082  0.00  0.00    +0.000 A 
ATOM      6  C   UNL     1       2.887   6.601  19.832  0.00  0.00    +0.000 A 
ATOM      7  C   UNL     1       1.727   6.487  20.592  0.00  0.00    +0.000 A 
ATOM      8  C   UNL     1       1.029   5.287  20.606  0.00  0.00    +0.000 A 
ATOM      9  C   UNL     1       1.467   4.206  19.826  0.00  0.00    +0.000 A 
ATOM     10  C   UNL     1       0.747   3.007  19.812  0.00  0.00    +0.000 A 
ATOM     11  C   UNL     1       1.176   1.955  19.016  0.00  0.00    +0.000 A 
ATOM     12  C   UNL     1       2.322   2.141  18.264  0.00  0.00    +0.000 A 
ATOM     13  N   UNL     1       3.061   3.276  18.273  0.00  0.00    +0.000 NA
ATOM     14  C   UNL     1       2.642   4.310  19.037  0.00  0.00    +0.000 A 
ENDBRANCH   3   5
BRANCH   2  15
ATOM     15  C   UNL     1       6.980   5.567  17.806  0.00  0.00    +0.000 C 
BRANCH  15  16
ATOM     16  N   UNL     1       6.773   5.002  16.484  0.00  0.00    +0.000 N 
ATOM     17  N   UNL     1       5.967   3.901  16.418  0.00  0.00    +0.000 NA
ATOM     18  N   UNL     1       5.747   3.315  15.335  0.00  0.00    +0.000 NA
ATOM     19  C   UNL     1       6.309   3.802  14.151  0.00  0.00    +0.000 A 
ATOM     20  C   UNL     1       5.996   3.174  12.939  0.00  0.00    +0.000 A 
ATOM     21  C   UNL     1       6.526   3.644  11.732  0.00  0.00    +0.000 A 
ATOM     22  C   UNL     1       7.394   4.735  11.727  0.00  0.00    +0.000 A 
ATOM     23  C   UNL     1       7.720   5.363  12.926  0.00  0.00    +0.000 A 
ATOM     24  C   UNL     1       7.162   4.895  14.120  0.00  0.00    +0.000 A 
ATOM     25  C   UNL     1       7.414   5.554  15.397  0.00  0.00    +0.000 A 
ATOM     26  O   UNL     1       8.134   6.546  15.456  0.00  0.00    +0.000 OA
ENDBRANCH  15  16
ENDBRANCH   2  15
TORSDOF 3
ENDMDL
MODEL 6
REMARK VINA RESULT:      -7.5      1.913      3.393
REMARK  Name = 
REMARK  3 active torsions:
REMARK  status: ('A' for Active; 'I' for Inactive)
REMARK    1  A    between atoms: C_2  and  C_3
REMARK    2  A    between atoms: C_3  and  N_4
REMARK    3  A    between atoms: N_15  and  C_16
REMARK                            x       y       z     vdW  Elec       q    Type
REMARK                         _______ _______ _______ _____ _____    ______ ____
ROOT
ATOM      1  O   UNL     1       0.045   7.442  20.982  0.00  0.00    +0.000 OA
ATOM      2  C   UNL     1       1.253   7.680  21.017  0.00  0.00    +0.000 C 
ATOM      3  N   UNL     1       2.254   6.811  20.615  0.00  0.00    +0.000 N 
ATOM      4  H   UNL     1       3.227   7.037  20.823  0.00  0.00    +0.000 HD
ENDROOT
BRANCH   3   5
ATOM      5  C   UNL     1       2.070   5.513  20.050  0.00  0.00    +0.000 A 
ATOM      6  C   UNL     1       1.157   4.590  20.581  0.00  0.00    +0.000 A 
ATOM      7  C   UNL     1       1.030   3.316  20.035  0.00  0.00    +0.000 A 
ATOM      8  C   UNL     1       1.813   2.952  18.948  0.00  0.00    +0.000 A 
ATOM      9  C   UNL     1       2.698   3.878  18.375  0.00  0.00    +0.000 A 
ATOM     10  C   UNL     1       3.463   3.525  17.257  0.00  0.00    +0.000 A 
ATOM     11  C   UNL     1       4.314   4.457  16.684  0.00  0.00    +0.000 A 
ATOM     12  C   UNL     1       4.375   5.715  17.257  0.00  0.00    +0.000 A 
ATOM     13  N   UNL     1       3.672   6.084  18.354  0.00  0.00    +0.000 NA
ATOM     14  C   UNL     1       2.830   5.184  18.912  0.00  0.00    +0.000 A 
ENDBRANCH   3   5
BRANCH   2  15
ATOM     15  C   UNL     1       1.731   9.064  21.453  0.00  0.00    +0.000 C 
BRANCH  15  16
ATOM     16  N   UNL     1       0.643   9.960  21.802  0.00  0.00    +0.000 N 
ATOM     17  N   UNL     1       0.257   9.957  23.113  0.00  0.00    +0.000 NA
ATOM     18  N   UNL     1      -0.691  10.666  23.518  0.00  0.00    +0.000 NA
ATOM     19  C   UNL     1      -1.362  11.509  22.626  0.00  0.00    +0.000 A 
ATOM     20  C   UNL     1      -2.374  12.347  23.111  0.00  0.00    +0.000 A 
ATOM     21  C   UNL     1      -3.056  13.216  22.252  0.00  0.00    +0.000 A 
ATOM     22  C   UNL     1      -2.747  13.241  20.893  0.00  0.00    +0.000 A 
ATOM     23  C   UNL     1      -1.749  12.407  20.396  0.00  0.00    +0.000 A 
ATOM     24  C   UNL     1      -1.062  11.562  21.274  0.00  0.00    +0.000 A 
ATOM     25  C   UNL     1       0.038  10.716  20.823  0.00  0.00    +0.000 A 
ATOM     26  O   UNL     1       0.389  10.723  19.647  0.00  0.00    +0.000 OA
ENDBRANCH  15  16
ENDBRANCH   2  15
TORSDOF 3
ENDMDL
MODEL 7
REMARK VINA RESULT:      -7.5      2.171      3.213
REMARK  Name = 
REMARK  3 active torsions:
REMARK  status: ('A' for Active; 'I' for Inactive)
REMARK    1  A    between atoms: C_2  and  C_3
REMARK    2  A    between atoms: C_3  and  N_4
REMARK    3  A    between atoms: N_15  and  C_16
REMARK                            x       y       z     vdW  Elec       q    Type
REMARK                         _______ _______ _______ _____ _____    ______ ____
ROOT
ATOM      1  O   UNL     1       0.982   8.877  19.750  0.00  0.00    +0.000 OA
ATOM      2  C   UNL     1       1.452   8.327  20.746  0.00  0.00    +0.000 C 
ATOM      3  N   UNL     1       2.167   7.141  20.745  0.00  0.00    +0.000 N 
ATOM      4  H   UNL     1       2.384   6.686  21.633  0.00  0.00    +0.000 HD
ENDROOT
BRANCH   3   5
ATOM      5  C   UNL     1       2.527   6.371  19.598  0.00  0.00    +0.000 A 
ATOM      6  C   UNL     1       3.385   6.868  18.605  0.00  0.00    +0.000 A 
ATOM      7  C   UNL     1       3.684   6.111  17.476  0.00  0.00    +0.000 A 
ATOM      8  C   UNL     1       3.131   4.845  17.330  0.00  0.00    +0.000 A 
ATOM      9  C   UNL     1       2.308   4.315  18.334  0.00  0.00    +0.000 A 
ATOM     10  C   UNL     1       1.777   3.026  18.205  0.00  0.00    +0.000 A 
ATOM     11  C   UNL     1       0.986   2.502  19.216  0.00  0.00    +0.000 A 
ATOM     12  C   UNL     1       0.749   3.295  20.325  0.00  0.00    +0.000 A 
ATOM     13  N   UNL     1       1.221   4.555  20.474  0.00  0.00    +0.000 NA
ATOM     14  C   UNL     1       2.003   5.068  19.497  0.00  0.00    +0.000 A 
ENDBRANCH   3   5
BRANCH   2  15
ATOM     15  C   UNL     1       1.333   9.013  22.105  0.00  0.00    +0.000 C 
BRANCH  15  16
ATOM     16  N   UNL     1       0.645  10.290  22.043  0.00  0.00    +0.000 N 
ATOM     17  N   UNL     1       1.285  11.287  21.363  0.00  0.00    +0.000 NA
ATOM     18  N   UNL     1       0.799  12.436  21.274  0.00  0.00    +0.000 NA
ATOM     19  C   UNL     1      -0.443  12.715  21.855  0.00  0.00    +0.000 A 
ATOM     20  C   UNL     1      -1.003  13.987  21.687  0.00  0.00    +0.000 A 
ATOM     21  C   UNL     1      -2.251  14.298  22.239  0.00  0.00    +0.000 A 
ATOM     22  C   UNL     1      -2.942  13.344  22.985  0.00  0.00    +0.000 A 
ATOM     23  C   UNL     1      -2.392  12.078  23.167  0.00  0.00    +0.000 A 
ATOM     24  C   UNL     1      -1.155  11.778  22.588  0.00  0.00    +0.000 A 
ATOM     25  C   UNL     1      -0.561  10.450  22.689  0.00  0.00    +0.000 A 
ATOM     26  O   UNL     1      -1.138   9.552  23.295  0.00  0.00    +0.000 OA
ENDBRANCH  15  16
ENDBRANCH   2  15
TORSDOF 3
ENDMDL
MODEL 8
REMARK VINA RESULT:      -7.5      2.936      4.488
REMARK  Name = 
REMARK  3 active torsions:
REMARK  status: ('A' for Active; 'I' for Inactive)
REMARK    1  A    between atoms: C_2  and  C_3
REMARK    2  A    between atoms: C_3  and  N_4
REMARK    3  A    between atoms: N_15  and  C_16
REMARK                            x       y       z     vdW  Elec       q    Type
REMARK                         _______ _______ _______ _____ _____    ______ ____
ROOT
ATOM      1  O   UNL     1       0.329   8.488  21.341  0.00  0.00    +0.000 OA
ATOM      2  C   UNL     1       1.025   8.993  20.459  0.00  0.00    +0.000 C 
ATOM      3  N   UNL     1       1.940   8.314  19.672  0.00  0.00    +0.000 N 
ATOM      4  H   UNL     1       2.577   8.843  19.075  0.00  0.00    +0.000 HD
ENDROOT
BRANCH   3   5
ATOM      5  C   UNL     1       2.209   6.913  19.706  0.00  0.00    +0.000 A 
ATOM      6  C   UNL     1       1.617   6.062  20.650  0.00  0.00    +0.000 A 
ATOM      7  C   UNL     1       1.931   4.706  20.687  0.00  0.00    +0.000 A 
ATOM      8  C   UNL     1       2.840   4.186  19.774  0.00  0.00    +0.000 A 
ATOM      9  C   UNL     1       3.407   5.013  18.794  0.00  0.00    +0.000 A 
ATOM     10  C   UNL     1       4.296   4.484  17.851  0.00  0.00    +0.000 A 
ATOM     11  C   UNL     1       4.829   5.306  16.870  0.00  0.00    +0.000 A 
ATOM     12  C   UNL     1       4.456   6.639  16.872  0.00  0.00    +0.000 A 
ATOM     13  N   UNL     1       3.621   7.193  17.783  0.00  0.00    +0.000 NA
ATOM     14  C   UNL     1       3.088   6.394  18.735  0.00  0.00    +0.000 A 
ENDBRANCH   3   5
BRANCH   2  15
ATOM     15  C   UNL     1       0.838  10.469  20.112  0.00  0.00    +0.000 C 
BRANCH  15  16
ATOM     16  N   UNL     1      -0.417  10.742  19.435  0.00  0.00    +0.000 N 
ATOM     17  N   UNL     1      -1.316  11.510  20.119  0.00  0.00    +0.000 NA
ATOM     18  N   UNL     1      -2.441  11.781  19.643  0.00  0.00    +0.000 NA
ATOM     19  C   UNL     1      -2.791  11.318  18.370  0.00  0.00    +0.000 A 
ATOM     20  C   UNL     1      -4.027  11.689  17.826  0.00  0.00    +0.000 A 
ATOM     21  C   UNL     1      -4.404  11.259  16.549  0.00  0.00    +0.000 A 
ATOM     22  C   UNL     1      -3.557  10.435  15.811  0.00  0.00    +0.000 A 
ATOM     23  C   UNL     1      -2.328  10.052  16.343  0.00  0.00    +0.000 A 
ATOM     24  C   UNL     1      -1.958  10.510  17.612  0.00  0.00    +0.000 A 
ATOM     25  C   UNL     1      -0.657  10.197  18.192  0.00  0.00    +0.000 A 
ATOM     26  O   UNL     1       0.153   9.512  17.576  0.00  0.00    +0.000 OA
ENDBRANCH  15  16
ENDBRANCH   2  15
TORSDOF 3
ENDMDL
MODEL 9
REMARK VINA RESULT:      -7.5      1.442      7.185
REMARK  Name = 
REMARK  3 active torsions:
REMARK  status: ('A' for Active; 'I' for Inactive)
REMARK    1  A    between atoms: C_2  and  C_3
REMARK    2  A    between atoms: C_3  and  N_4
REMARK    3  A    between atoms: N_15  and  C_16
REMARK                            x       y       z     vdW  Elec       q    Type
REMARK                         _______ _______ _______ _____ _____    ______ ____
ROOT
ATOM      1  O   UNL     1       0.398   9.186  17.482  0.00  0.00    +0.000 OA
ATOM      2  C   UNL     1       1.439   9.403  18.105  0.00  0.00    +0.000 C 
ATOM      3  N   UNL     1       1.621  10.413  19.035  0.00  0.00    +0.000 N 
ATOM      4  H   UNL     1       2.559  10.608  19.385  0.00  0.00    +0.000 HD
ENDROOT
BRANCH   3   5
ATOM      5  C   UNL     1       0.635  11.347  19.473  0.00  0.00    +0.000 A 
ATOM      6  C   UNL     1       0.250  12.448  18.694  0.00  0.00    +0.000 A 
ATOM      7  C   UNL     1      -0.683  13.366  19.166  0.00  0.00    +0.000 A 
ATOM      8  C   UNL     1      -1.247  13.190  20.423  0.00  0.00    +0.000 A 
ATOM      9  C   UNL     1      -0.909  12.070  21.197  0.00  0.00    +0.000 A 
ATOM     10  C   UNL     1      -1.501  11.872  22.450  0.00  0.00    +0.000 A 
ATOM     11  C   UNL     1      -1.179  10.747  23.194  0.00  0.00    +0.000 A 
ATOM     12  C   UNL     1      -0.264   9.859  22.657  0.00  0.00    +0.000 A 
ATOM     13  N   UNL     1       0.350  10.030  21.462  0.00  0.00    +0.000 NA
ATOM     14  C   UNL     1       0.032  11.118  20.726  0.00  0.00    +0.000 A 
ENDBRANCH   3   5
BRANCH   2  15
ATOM     15  C   UNL     1       2.625   8.458  17.931  0.00  0.00    +0.000 C 
BRANCH  15  16
ATOM     16  N   UNL     1       2.533   7.267  18.756  0.00  0.00    +0.000 N 
ATOM     17  N   UNL     1       1.847   7.398  19.930  0.00  0.00    +0.000 NA
ATOM     18  N   UNL     1       1.734   6.445  20.732  0.00  0.00    +0.000 NA
ATOM     19  C   UNL     1       2.292   5.200  20.421  0.00  0.00    +0.000 A 
ATOM     20  C   UNL     1       2.095   4.127  21.298  0.00  0.00    +0.000 A 
ATOM     21  C   UNL     1       2.624   2.863  21.012  0.00  0.00    +0.000 A 
ATOM     22  C   UNL     1       3.374   2.665  19.854  0.00  0.00    +0.000 A 
ATOM     23  C   UNL     1       3.584   3.726  18.977  0.00  0.00    +0.000 A 
ATOM     24  C   UNL     1       3.028   4.976  19.268  0.00  0.00    +0.000 A 
ATOM     25  C   UNL     1       3.158   6.106  18.355  0.00  0.00    +0.000 A 
ATOM     26  O   UNL     1       3.769   5.987  17.297  0.00  0.00    +0.000 OA
ENDBRANCH  15  16
ENDBRANCH   2  15
TORSDOF 3
ENDMDL
