MODEL 1
REMARK VINA RESULT:      -8.6      0.000      0.000
REMARK  Name = 
REMARK  3 active torsions:
REMARK  status: ('A' for Active; 'I' for Inactive)
REMARK    1  A    between atoms: C_2  and  C_19
REMARK    2  A    between atoms: N_3  and  C_4
REMARK    3  A    between atoms: C_7  and  C_8
REMARK                            x       y       z     vdW  Elec       q    Type
REMARK                         _______ _______ _______ _____ _____    ______ ____
ROOT
ATOM      1  C   UNL     1       0.791   9.237  20.054  0.00  0.00    +0.000 A 
ATOM      2  C   UNL     1       1.387   8.109  20.623  0.00  0.00    +0.000 A 
ATOM      3  C   UNL     1       2.266   7.297  19.892  0.00  0.00    +0.000 A 
ATOM      4  C   UNL     1       2.570   7.582  18.558  0.00  0.00    +0.000 A 
ATOM      5  C   UNL     1       1.953   8.703  17.978  0.00  0.00    +0.000 A 
ATOM      6  C   UNL     1       1.066   9.515  18.712  0.00  0.00    +0.000 A 
ENDROOT
BRANCH   4   7
ATOM      7  C   UNL     1       3.509   6.713  17.828  0.00  0.00    +0.000 A 
ATOM      8  N   UNL     1       3.352   5.426  17.556  0.00  0.00    +0.000 NA
ATOM      9  C   UNL     1       4.488   5.027  16.884  0.00  0.00    +0.000 A 
ATOM     10  C   UNL     1       4.851   3.775  16.366  0.00  0.00    +0.000 A 
ATOM     11  C   UNL     1       6.099   3.643  15.735  0.00  0.00    +0.000 A 
ATOM     12  C   UNL     1       6.964   4.733  15.622  0.00  0.00    +0.000 A 
ATOM     13  C   UNL     1       6.613   5.991  16.122  0.00  0.00    +0.000 A 
ATOM     14  C   UNL     1       5.367   6.091  16.742  0.00  0.00    +0.000 A 
ATOM     15  N   UNL     1       4.716   7.144  17.327  0.00  0.00    +0.000 N 
ATOM     16  H   UNL     1       5.075   8.082  17.388  0.00  0.00    +0.000 HD
ENDBRANCH   4   7
BRANCH   1  19
ATOM     17  O   UNL     1       1.476  11.740  21.389  0.00  0.00    +0.000 OA
ATOM     18  C   UNL     1       0.341  11.273  21.407  0.00  0.00    +0.000 C 
ATOM     19  N   UNL     1      -0.072  10.107  20.776  0.00  0.00    +0.000 N 
ATOM     20  H   UNL     1      -1.069   9.938  20.697  0.00  0.00    +0.000 HD
BRANCH  18  21
ATOM     21  C   UNL     1      -0.688  12.080  22.113  0.00  0.00    +0.000 A 
ATOM     22  C   UNL     1      -0.401  13.456  22.291  0.00  0.00    +0.000 A 
ATOM     23  C   UNL     1      -1.251  14.284  23.027  0.00  0.00    +0.000 A 
ATOM     24  C   UNL     1      -2.375  13.707  23.568  0.00  0.00    +0.000 A 
ATOM     25  C   UNL     1      -2.661  12.369  23.403  0.00  0.00    +0.000 A 
ATOM     26  C   UNL     1      -1.838  11.520  22.682  0.00  0.00    +0.000 A 
ATOM     27  O   UNL     1      -3.809  12.012  24.043  0.00  0.00    +0.000 OA
ATOM     28  C   UNL     1      -4.246  13.289  24.562  0.00  0.00    +0.000 C 
ATOM     29  O   UNL     1      -3.304  14.353  24.320  0.00  0.00    +0.000 OA
ENDBRANCH  18  21
ENDBRANCH   1  19
TORSDOF 3
ENDMDL
MODEL 2
REMARK VINA RESULT:      -8.5      0.197      1.121
REMARK  Name = 
REMARK  3 active torsions:
REMARK  status: ('A' for Active; 'I' for Inactive)
REMARK    1  A    between atoms: C_2  and  C_19
REMARK    2  A    between atoms: N_3  and  C_4
REMARK    3  A    between atoms: C_7  and  C_8
REMARK                            x       y       z     vdW  Elec       q    Type
REMARK                         _______ _______ _______ _____ _____    ______ ____
ROOT
ATOM      1  C   UNL     1       0.782   9.273  20.091  0.00  0.00    +0.000 A 
ATOM      2  C   UNL     1       1.363   8.121  20.627  0.00  0.00    +0.000 A 
ATOM      3  C   UNL     1       2.247   7.331  19.878  0.00  0.00    +0.000 A 
ATOM      4  C   UNL     1       2.570   7.661  18.559  0.00  0.00    +0.000 A 
ATOM      5  C   UNL     1       1.968   8.807  18.012  0.00  0.00    +0.000 A 
ATOM      6  C   UNL     1       1.076   9.597  18.764  0.00  0.00    +0.000 A 
ENDROOT
BRANCH   4   7
ATOM      7  C   UNL     1       3.513   6.812  17.811  0.00  0.00    +0.000 A 
ATOM      8  N   UNL     1       4.559   7.217  17.105  0.00  0.00    +0.000 NA
ATOM      9  C   UNL     1       5.127   6.084  16.564  0.00  0.00    +0.000 A 
ATOM     10  C   UNL     1       6.249   5.931  15.736  0.00  0.00    +0.000 A 
ATOM     11  C   UNL     1       6.599   4.640  15.306  0.00  0.00    +0.000 A 
ATOM     12  C   UNL     1       5.849   3.528  15.694  0.00  0.00    +0.000 A 
ATOM     13  C   UNL     1       4.735   3.661  16.530  0.00  0.00    +0.000 A 
ATOM     14  C   UNL     1       4.413   4.955  16.940  0.00  0.00    +0.000 A 
ATOM     15  N   UNL     1       3.415   5.441  17.741  0.00  0.00    +0.000 N 
ATOM     16  H   UNL     1       2.716   4.879  18.196  0.00  0.00    +0.000 HD
ENDBRANCH   4   7
BRANCH   1  19
ATOM     17  O   UNL     1       1.399  11.865  21.283  0.00  0.00    +0.000 OA
ATOM     18  C   UNL     1       0.297  11.335  21.391  0.00  0.00    +0.000 C 
ATOM     19  N   UNL     1      -0.085  10.123  20.833  0.00  0.00    +0.000 N 
ATOM     20  H   UNL     1      -1.073   9.894  20.824  0.00  0.00    +0.000 HD
BRANCH  18  21
ATOM     21  C   UNL     1      -0.733  12.112  22.130  0.00  0.00    +0.000 A 
ATOM     22  C   UNL     1      -0.444  13.478  22.371  0.00  0.00    +0.000 A 
ATOM     23  C   UNL     1      -1.295  14.273  23.140  0.00  0.00    +0.000 A 
ATOM     24  C   UNL     1      -2.421  13.675  23.653  0.00  0.00    +0.000 A 
ATOM     25  C   UNL     1      -2.709  12.346  23.427  0.00  0.00    +0.000 A 
ATOM     26  C   UNL     1      -1.885  11.529  22.671  0.00  0.00    +0.000 A 
ATOM     27  O   UNL     1      -3.859  11.963  24.048  0.00  0.00    +0.000 OA
ATOM     28  C   UNL     1      -4.295  13.216  24.622  0.00  0.00    +0.000 C 
ATOM     29  O   UNL     1      -3.352  14.289  24.430  0.00  0.00    +0.000 OA
ENDBRANCH  18  21
ENDBRANCH   1  19
TORSDOF 3
ENDMDL
MODEL 3
REMARK VINA RESULT:      -8.3      0.571      1.083
REMARK  Name = 
REMARK  3 active torsions:
REMARK  status: ('A' for Active; 'I' for Inactive)
REMARK    1  A    between atoms: C_2  and  C_19
REMARK    2  A    between atoms: N_3  and  C_4
REMARK    3  A    between atoms: C_7  and  C_8
REMARK                            x       y       z     vdW  Elec       q    Type
REMARK                         _______ _______ _______ _____ _____    ______ ____
ROOT
ATOM      1  C   UNL     1       0.527   9.555  20.117  0.00  0.00    +0.000 A 
ATOM      2  C   UNL     1       0.854   9.734  18.770  0.00  0.00    +0.000 A 
ATOM      3  C   UNL     1       1.713   8.850  18.101  0.00  0.00    +0.000 A 
ATOM      4  C   UNL     1       2.285   7.761  18.764  0.00  0.00    +0.000 A 
ATOM      5  C   UNL     1       1.976   7.594  20.124  0.00  0.00    +0.000 A 
ATOM      6  C   UNL     1       1.117   8.485  20.796  0.00  0.00    +0.000 A 
ENDROOT
BRANCH   4   7
ATOM      7  C   UNL     1       3.172   6.848  18.022  0.00  0.00    +0.000 A 
ATOM      8  N   UNL     1       3.052   5.533  17.919  0.00  0.00    +0.000 NA
ATOM      9  C   UNL     1       4.116   5.102  17.155  0.00  0.00    +0.000 A 
ATOM     10  C   UNL     1       4.478   3.812  16.739  0.00  0.00    +0.000 A 
ATOM     11  C   UNL     1       5.644   3.654  15.972  0.00  0.00    +0.000 A 
ATOM     12  C   UNL     1       6.429   4.756  15.627  0.00  0.00    +0.000 A 
ATOM     13  C   UNL     1       6.076   6.050  16.022  0.00  0.00    +0.000 A 
ATOM     14  C   UNL     1       4.913   6.174  16.783  0.00  0.00    +0.000 A 
ATOM     15  N   UNL     1       4.284   7.264  17.324  0.00  0.00    +0.000 N 
ATOM     16  H   UNL     1       4.597   8.215  17.232  0.00  0.00    +0.000 HD
ENDBRANCH   4   7
BRANCH   1  19
ATOM     17  O   UNL     1       1.123  12.075  21.464  0.00  0.00    +0.000 OA
ATOM     18  C   UNL     1      -0.001  11.581  21.457  0.00  0.00    +0.000 C 
ATOM     19  N   UNL     1      -0.373  10.406  20.818  0.00  0.00    +0.000 N 
ATOM     20  H   UNL     1      -1.363  10.213  20.715  0.00  0.00    +0.000 HD
BRANCH  18  21
ATOM     21  C   UNL     1      -1.066  12.364  22.137  0.00  0.00    +0.000 A 
ATOM     22  C   UNL     1      -0.657  13.556  22.787  0.00  0.00    +0.000 A 
ATOM     23  C   UNL     1      -1.555  14.314  23.540  0.00  0.00    +0.000 A 
ATOM     24  C   UNL     1      -2.849  13.856  23.623  0.00  0.00    +0.000 A 
ATOM     25  C   UNL     1      -3.254  12.696  22.997  0.00  0.00    +0.000 A 
ATOM     26  C   UNL     1      -2.389  11.920  22.246  0.00  0.00    +0.000 A 
ATOM     27  O   UNL     1      -4.567  12.424  23.235  0.00  0.00    +0.000 OA
ATOM     28  C   UNL     1      -4.953  13.580  24.014  0.00  0.00    +0.000 C 
ATOM     29  O   UNL     1      -3.851  14.455  24.319  0.00  0.00    +0.000 OA
ENDBRANCH  18  21
ENDBRANCH   1  19
TORSDOF 3
ENDMDL
MODEL 4
REMARK VINA RESULT:      -8.3      0.748      1.608
REMARK  Name = 
REMARK  3 active torsions:
REMARK  status: ('A' for Active; 'I' for Inactive)
REMARK    1  A    between atoms: C_2  and  C_19
REMARK    2  A    between atoms: N_3  and  C_4
REMARK    3  A    between atoms: C_7  and  C_8
REMARK                            x       y       z     vdW  Elec       q    Type
REMARK                         _______ _______ _______ _____ _____    ______ ____
ROOT
ATOM      1  C   UNL     1       0.475   9.651  20.161  0.00  0.00    +0.000 A 
ATOM      2  C   UNL     1       0.832   9.872  18.829  0.00  0.00    +0.000 A 
ATOM      3  C   UNL     1       1.707   9.010  18.152  0.00  0.00    +0.000 A 
ATOM      4  C   UNL     1       2.266   7.901  18.793  0.00  0.00    +0.000 A 
ATOM      5  C   UNL     1       1.926   7.691  20.140  0.00  0.00    +0.000 A 
ATOM      6  C   UNL     1       1.050   8.560  20.820  0.00  0.00    +0.000 A 
ENDROOT
BRANCH   4   7
ATOM      7  C   UNL     1       3.170   7.012  18.043  0.00  0.00    +0.000 A 
ATOM      8  N   UNL     1       4.144   7.378  17.223  0.00  0.00    +0.000 NA
ATOM      9  C   UNL     1       4.700   6.216  16.733  0.00  0.00    +0.000 A 
ATOM     10  C   UNL     1       5.757   6.018  15.832  0.00  0.00    +0.000 A 
ATOM     11  C   UNL     1       6.109   4.704  15.484  0.00  0.00    +0.000 A 
ATOM     12  C   UNL     1       5.425   3.612  16.024  0.00  0.00    +0.000 A 
ATOM     13  C   UNL     1       4.379   3.791  16.934  0.00  0.00    +0.000 A 
ATOM     14  C   UNL     1       4.053   5.108  17.259  0.00  0.00    +0.000 A 
ATOM     15  N   UNL     1       3.108   5.638  18.097  0.00  0.00    +0.000 N 
ATOM     16  H   UNL     1       2.464   5.102  18.652  0.00  0.00    +0.000 HD
ENDBRANCH   4   7
BRANCH   1  19
ATOM     17  O   UNL     1       1.008  12.200  21.478  0.00  0.00    +0.000 OA
ATOM     18  C   UNL     1      -0.099  11.670  21.491  0.00  0.00    +0.000 C 
ATOM     19  N   UNL     1      -0.442  10.478  20.868  0.00  0.00    +0.000 N 
ATOM     20  H   UNL     1      -1.427  10.253  20.781  0.00  0.00    +0.000 HD
BRANCH  18  21
ATOM     21  C   UNL     1      -1.178  12.425  22.181  0.00  0.00    +0.000 A 
ATOM     22  C   UNL     1      -0.773  13.527  22.974  0.00  0.00    +0.000 A 
ATOM     23  C   UNL     1      -1.692  14.243  23.743  0.00  0.00    +0.000 A 
ATOM     24  C   UNL     1      -3.003  13.834  23.697  0.00  0.00    +0.000 A 
ATOM     25  C   UNL     1      -3.406  12.761  22.930  0.00  0.00    +0.000 A 
ATOM     26  C   UNL     1      -2.521  12.028  22.159  0.00  0.00    +0.000 A 
ATOM     27  O   UNL     1      -4.742  12.522  23.055  0.00  0.00    +0.000 OA
ATOM     28  C   UNL     1      -5.138  13.608  23.923  0.00  0.00    +0.000 C 
ATOM     29  O   UNL     1      -4.028  14.401  24.386  0.00  0.00    +0.000 OA
ENDBRANCH  18  21
ENDBRANCH   1  19
TORSDOF 3
ENDMDL
MODEL 5
REMARK VINA RESULT:      -8.3      0.928      1.772
REMARK  Name = 
REMARK  3 active torsions:
REMARK  status: ('A' for Active; 'I' for Inactive)
REMARK    1  A    between atoms: C_2  and  C_19
REMARK    2  A    between atoms: N_3  and  C_4
REMARK    3  A    between atoms: C_7  and  C_8
REMARK                            x       y       z     vdW  Elec       q    Type
REMARK                         _______ _______ _______ _____ _____    ______ ____
ROOT
ATOM      1  C   UNL     1       0.476   9.619  20.502  0.00  0.00    +0.000 A 
ATOM      2  C   UNL     1       0.814   9.872  19.171  0.00  0.00    +0.000 A 
ATOM      3  C   UNL     1       1.626   8.992  18.441  0.00  0.00    +0.000 A 
ATOM      4  C   UNL     1       2.138   7.830  19.025  0.00  0.00    +0.000 A 
ATOM      5  C   UNL     1       1.817   7.586  20.371  0.00  0.00    +0.000 A 
ATOM      6  C   UNL     1       1.006   8.474  21.105  0.00  0.00    +0.000 A 
ENDROOT
BRANCH   4   7
ATOM      7  C   UNL     1       2.976   6.924  18.221  0.00  0.00    +0.000 A 
ATOM      8  N   UNL     1       2.939   5.600  18.218  0.00  0.00    +0.000 NA
ATOM      9  C   UNL     1       3.913   5.183  17.337  0.00  0.00    +0.000 A 
ATOM     10  C   UNL     1       4.306   3.893  16.953  0.00  0.00    +0.000 A 
ATOM     11  C   UNL     1       5.361   3.754  16.036  0.00  0.00    +0.000 A 
ATOM     12  C   UNL     1       6.008   4.876  15.512  0.00  0.00    +0.000 A 
ATOM     13  C   UNL     1       5.620   6.170  15.874  0.00  0.00    +0.000 A 
ATOM     14  C   UNL     1       4.569   6.275  16.786  0.00  0.00    +0.000 A 
ATOM     15  N   UNL     1       3.945   7.358  17.344  0.00  0.00    +0.000 N 
ATOM     16  H   UNL     1       4.172   8.318  17.149  0.00  0.00    +0.000 HD
ENDBRANCH   4   7
BRANCH   1  19
ATOM     17  O   UNL     1       1.082  12.253  21.604  0.00  0.00    +0.000 OA
ATOM     18  C   UNL     1      -0.002  11.700  21.774  0.00  0.00    +0.000 C 
ATOM     19  N   UNL     1      -0.378  10.466  21.262  0.00  0.00    +0.000 N 
ATOM     20  H   UNL     1      -1.360  10.214  21.302  0.00  0.00    +0.000 HD
BRANCH  18  21
ATOM     21  C   UNL     1      -1.017  12.471  22.539  0.00  0.00    +0.000 A 
ATOM     22  C   UNL     1      -2.157  11.752  22.980  0.00  0.00    +0.000 A 
ATOM     23  C   UNL     1      -3.216  12.398  23.619  0.00  0.00    +0.000 A 
ATOM     24  C   UNL     1      -3.107  13.756  23.801  0.00  0.00    +0.000 A 
ATOM     25  C   UNL     1      -2.004  14.463  23.372  0.00  0.00    +0.000 A 
ATOM     26  C   UNL     1      -0.937  13.855  22.733  0.00  0.00    +0.000 A 
ATOM     27  O   UNL     1      -2.120  15.794  23.637  0.00  0.00    +0.000 OA
ATOM     28  C   UNL     1      -3.382  15.827  24.343  0.00  0.00    +0.000 C 
ATOM     29  O   UNL     1      -4.042  14.547  24.389  0.00  0.00    +0.000 OA
ENDBRANCH  18  21
ENDBRANCH   1  19
TORSDOF 3
ENDMDL
MODEL 6
REMARK VINA RESULT:      -8.3      1.033      1.943
REMARK  Name = 
REMARK  3 active torsions:
REMARK  status: ('A' for Active; 'I' for Inactive)
REMARK    1  A    between atoms: C_2  and  C_19
REMARK    2  A    between atoms: N_3  and  C_4
REMARK    3  A    between atoms: C_7  and  C_8
REMARK                            x       y       z     vdW  Elec       q    Type
REMARK                         _______ _______ _______ _____ _____    ______ ____
ROOT
ATOM      1  C   UNL     1       0.309   9.621  20.704  0.00  0.00    +0.000 A 
ATOM      2  C   UNL     1       0.919   8.474  21.216  0.00  0.00    +0.000 A 
ATOM      3  C   UNL     1       1.758   7.675  20.426  0.00  0.00    +0.000 A 
ATOM      4  C   UNL     1       2.005   7.993  19.088  0.00  0.00    +0.000 A 
ATOM      5  C   UNL     1       1.373   9.134  18.565  0.00  0.00    +0.000 A 
ATOM      6  C   UNL     1       0.527   9.933  19.359  0.00  0.00    +0.000 A 
ENDROOT
BRANCH   4   7
ATOM      7  C   UNL     1       2.903   7.136  18.295  0.00  0.00    +0.000 A 
ATOM      8  N   UNL     1       3.810   7.534  17.414  0.00  0.00    +0.000 NA
ATOM      9  C   UNL     1       4.388   6.391  16.905  0.00  0.00    +0.000 A 
ATOM     10  C   UNL     1       5.397   6.228  15.944  0.00  0.00    +0.000 A 
ATOM     11  C   UNL     1       5.787   4.926  15.590  0.00  0.00    +0.000 A 
ATOM     12  C   UNL     1       5.187   3.812  16.181  0.00  0.00    +0.000 A 
ATOM     13  C   UNL     1       4.189   3.956  17.150  0.00  0.00    +0.000 A 
ATOM     14  C   UNL     1       3.823   5.262  17.480  0.00  0.00    +0.000 A 
ATOM     15  N   UNL     1       2.906   5.761  18.367  0.00  0.00    +0.000 N 
ATOM     16  H   UNL     1       2.321   5.203  18.965  0.00  0.00    +0.000 HD
ENDBRANCH   4   7
BRANCH   1  19
ATOM     17  O   UNL     1       0.889  12.339  21.595  0.00  0.00    +0.000 OA
ATOM     18  C   UNL     1      -0.150  11.756  21.891  0.00  0.00    +0.000 C 
ATOM     19  N   UNL     1      -0.514  10.479  21.486  0.00  0.00    +0.000 N 
ATOM     20  H   UNL     1      -1.477  10.192  21.626  0.00  0.00    +0.000 HD
BRANCH  18  21
ATOM     21  C   UNL     1      -1.130  12.531  22.697  0.00  0.00    +0.000 A 
ATOM     22  C   UNL     1      -2.352  11.883  23.002  0.00  0.00    +0.000 A 
ATOM     23  C   UNL     1      -3.381  12.553  23.667  0.00  0.00    +0.000 A 
ATOM     24  C   UNL     1      -3.156  13.865  24.011  0.00  0.00    +0.000 A 
ATOM     25  C   UNL     1      -1.971  14.504  23.715  0.00  0.00    +0.000 A 
ATOM     26  C   UNL     1      -0.933  13.870  23.055  0.00  0.00    +0.000 A 
ATOM     27  O   UNL     1      -1.978  15.803  24.129  0.00  0.00    +0.000 OA
ATOM     28  C   UNL     1      -3.267  15.879  24.780  0.00  0.00    +0.000 C 
ATOM     29  O   UNL     1      -4.044  14.673  24.648  0.00  0.00    +0.000 OA
ENDBRANCH  18  21
ENDBRANCH   1  19
TORSDOF 3
ENDMDL
MODEL 7
REMARK VINA RESULT:      -8.1      1.033      2.020
REMARK  Name = 
REMARK  3 active torsions:
REMARK  status: ('A' for Active; 'I' for Inactive)
REMARK    1  A    between atoms: C_2  and  C_19
REMARK    2  A    between atoms: N_3  and  C_4
REMARK    3  A    between atoms: C_7  and  C_8
REMARK                            x       y       z     vdW  Elec       q    Type
REMARK                         _______ _______ _______ _____ _____    ______ ____
ROOT
ATOM      1  C   UNL     1       0.513   9.566  19.860  0.00  0.00    +0.000 A 
ATOM      2  C   UNL     1       0.872   9.739  18.521  0.00  0.00    +0.000 A 
ATOM      3  C   UNL     1       1.785   8.881  17.890  0.00  0.00    +0.000 A 
ATOM      4  C   UNL     1       2.380   7.825  18.585  0.00  0.00    +0.000 A 
ATOM      5  C   UNL     1       2.038   7.664  19.938  0.00  0.00    +0.000 A 
ATOM      6  C   UNL     1       1.124   8.530  20.572  0.00  0.00    +0.000 A 
ENDROOT
BRANCH   4   7
ATOM      7  C   UNL     1       3.323   6.938  17.882  0.00  0.00    +0.000 A 
ATOM      8  N   UNL     1       4.339   7.306  17.115  0.00  0.00    +0.000 NA
ATOM      9  C   UNL     1       4.921   6.145  16.653  0.00  0.00    +0.000 A 
ATOM     10  C   UNL     1       6.023   5.949  15.809  0.00  0.00    +0.000 A 
ATOM     11  C   UNL     1       6.394   4.636  15.478  0.00  0.00    +0.000 A 
ATOM     12  C   UNL     1       5.684   3.542  15.979  0.00  0.00    +0.000 A 
ATOM     13  C   UNL     1       4.590   3.719  16.833  0.00  0.00    +0.000 A 
ATOM     14  C   UNL     1       4.247   5.036  17.143  0.00  0.00    +0.000 A 
ATOM     15  N   UNL     1       3.259   5.564  17.930  0.00  0.00    +0.000 N 
ATOM     16  H   UNL     1       2.587   5.026  18.450  0.00  0.00    +0.000 HD
ENDBRANCH   4   7
BRANCH   1  19
ATOM     17  O   UNL     1       1.017  11.920  21.510  0.00  0.00    +0.000 OA
ATOM     18  C   UNL     1      -0.113  11.482  21.314  0.00  0.00    +0.000 C 
ATOM     19  N   UNL     1      -0.440  10.389  20.522  0.00  0.00    +0.000 N 
ATOM     20  H   UNL     1      -1.415  10.253  20.278  0.00  0.00    +0.000 HD
BRANCH  18  21
ATOM     21  C   UNL     1      -1.229  12.248  21.929  0.00  0.00    +0.000 A 
ATOM     22  C   UNL     1      -1.890  11.636  23.023  0.00  0.00    +0.000 A 
ATOM     23  C   UNL     1      -3.013  12.222  23.610  0.00  0.00    +0.000 A 
ATOM     24  C   UNL     1      -3.448  13.414  23.082  0.00  0.00    +0.000 A 
ATOM     25  C   UNL     1      -2.812  14.015  22.017  0.00  0.00    +0.000 A 
ATOM     26  C   UNL     1      -1.699  13.460  21.410  0.00  0.00    +0.000 A 
ATOM     27  O   UNL     1      -3.427  15.174  21.648  0.00  0.00    +0.000 OA
ATOM     28  C   UNL     1      -4.468  15.266  22.647  0.00  0.00    +0.000 C 
ATOM     29  O   UNL     1      -4.526  14.118  23.516  0.00  0.00    +0.000 OA
ENDBRANCH  18  21
ENDBRANCH   1  19
TORSDOF 3
ENDMDL
MODEL 8
REMARK VINA RESULT:      -8.1      0.742      1.374
REMARK  Name = 
REMARK  3 active torsions:
REMARK  status: ('A' for Active; 'I' for Inactive)
REMARK    1  A    between atoms: C_2  and  C_19
REMARK    2  A    between atoms: N_3  and  C_4
REMARK    3  A    between atoms: C_7  and  C_8
REMARK                            x       y       z     vdW  Elec       q    Type
REMARK                         _______ _______ _______ _____ _____    ______ ____
ROOT
ATOM      1  C   UNL     1       0.676   9.370  20.014  0.00  0.00    +0.000 A 
ATOM      2  C   UNL     1       1.274   8.262  20.621  0.00  0.00    +0.000 A 
ATOM      3  C   UNL     1       2.156   7.429  19.917  0.00  0.00    +0.000 A 
ATOM      4  C   UNL     1       2.460   7.670  18.574  0.00  0.00    +0.000 A 
ATOM      5  C   UNL     1       1.840   8.769  17.957  0.00  0.00    +0.000 A 
ATOM      6  C   UNL     1       0.951   9.603  18.663  0.00  0.00    +0.000 A 
ENDROOT
BRANCH   4   7
ATOM      7  C   UNL     1       3.401   6.779  17.874  0.00  0.00    +0.000 A 
ATOM      8  N   UNL     1       3.242   5.486  17.635  0.00  0.00    +0.000 NA
ATOM      9  C   UNL     1       4.382   5.066  16.982  0.00  0.00    +0.000 A 
ATOM     10  C   UNL     1       4.744   3.800  16.499  0.00  0.00    +0.000 A 
ATOM     11  C   UNL     1       5.996   3.647  15.882  0.00  0.00    +0.000 A 
ATOM     12  C   UNL     1       6.865   4.731  15.746  0.00  0.00    +0.000 A 
ATOM     13  C   UNL     1       6.514   6.004  16.209  0.00  0.00    +0.000 A 
ATOM     14  C   UNL     1       5.265   6.123  16.818  0.00  0.00    +0.000 A 
ATOM     15  N   UNL     1       4.613   7.194  17.370  0.00  0.00    +0.000 N 
ATOM     16  H   UNL     1       4.975   8.131  17.409  0.00  0.00    +0.000 HD
ENDBRANCH   4   7
BRANCH   1  19
ATOM     17  O   UNL     1       1.392  11.800  21.462  0.00  0.00    +0.000 OA
ATOM     18  C   UNL     1       0.237  11.388  21.396  0.00  0.00    +0.000 C 
ATOM     19  N   UNL     1      -0.189  10.262  20.706  0.00  0.00    +0.000 N 
ATOM     20  H   UNL     1      -1.186  10.144  20.560  0.00  0.00    +0.000 HD
BRANCH  18  21
ATOM     21  C   UNL     1      -0.796  12.226  22.060  0.00  0.00    +0.000 A 
ATOM     22  C   UNL     1      -1.730  11.546  22.880  0.00  0.00    +0.000 A 
ATOM     23  C   UNL     1      -2.801  12.221  23.470  0.00  0.00    +0.000 A 
ATOM     24  C   UNL     1      -2.908  13.568  23.221  0.00  0.00    +0.000 A 
ATOM     25  C   UNL     1      -2.005  14.237  22.422  0.00  0.00    +0.000 A 
ATOM     26  C   UNL     1      -0.935  13.598  21.820  0.00  0.00    +0.000 A 
ATOM     27  O   UNL     1      -2.319  15.557  22.297  0.00  0.00    +0.000 OA
ATOM     28  C   UNL     1      -3.471  15.651  23.165  0.00  0.00    +0.000 C 
ATOM     29  O   UNL     1      -3.888  14.380  23.699  0.00  0.00    +0.000 OA
ENDBRANCH  18  21
ENDBRANCH   1  19
TORSDOF 3
ENDMDL
MODEL 9
REMARK VINA RESULT:      -8.1      3.280     10.906
REMARK  Name = 
REMARK  3 active torsions:
REMARK  status: ('A' for Active; 'I' for Inactive)
REMARK    1  A    between atoms: C_2  and  C_19
REMARK    2  A    between atoms: N_3  and  C_4
REMARK    3  A    between atoms: C_7  and  C_8
REMARK                            x       y       z     vdW  Elec       q    Type
REMARK                         _______ _______ _______ _____ _____    ______ ____
ROOT
ATOM      1  C   UNL     1       1.577   8.943  19.328  0.00  0.00    +0.000 A 
ATOM      2  C   UNL     1       0.948  10.089  18.837  0.00  0.00    +0.000 A 
ATOM      3  C   UNL     1       0.228  10.948  19.680  0.00  0.00    +0.000 A 
ATOM      4  C   UNL     1       0.103  10.679  21.046  0.00  0.00    +0.000 A 
ATOM      5  C   UNL     1       0.716   9.514  21.536  0.00  0.00    +0.000 A 
ATOM      6  C   UNL     1       1.435   8.650  20.687  0.00  0.00    +0.000 A 
ENDROOT
BRANCH   4   7
ATOM      7  C   UNL     1      -0.651  11.613  21.901  0.00  0.00    +0.000 A 
ATOM      8  N   UNL     1      -0.218  12.763  22.396  0.00  0.00    +0.000 NA
ATOM      9  C   UNL     1      -1.250  13.276  23.152  0.00  0.00    +0.000 A 
ATOM     10  C   UNL     1      -1.335  14.462  23.896  0.00  0.00    +0.000 A 
ATOM     11  C   UNL     1      -2.519  14.732  24.601  0.00  0.00    +0.000 A 
ATOM     12  C   UNL     1      -3.595  13.842  24.563  0.00  0.00    +0.000 A 
ATOM     13  C   UNL     1      -3.532  12.661  23.816  0.00  0.00    +0.000 A 
ATOM     14  C   UNL     1      -2.342  12.422  23.127  0.00  0.00    +0.000 A 
ATOM     15  N   UNL     1      -1.945  11.393  22.315  0.00  0.00    +0.000 N 
ATOM     16  H   UNL     1      -2.511  10.598  22.073  0.00  0.00    +0.000 HD
ENDBRANCH   4   7
BRANCH   1  19
ATOM     17  O   UNL     1       2.258   6.150  19.830  0.00  0.00    +0.000 OA
ATOM     18  C   UNL     1       2.652   6.756  18.837  0.00  0.00    +0.000 C 
ATOM     19  N   UNL     1       2.351   8.071  18.511  0.00  0.00    +0.000 N 
ATOM     20  H   UNL     1       2.567   8.390  17.573  0.00  0.00    +0.000 HD
BRANCH  18  21
ATOM     21  C   UNL     1       3.465   5.972  17.871  0.00  0.00    +0.000 A 
ATOM     22  C   UNL     1       3.185   4.586  17.786  0.00  0.00    +0.000 A 
ATOM     23  C   UNL     1       3.954   3.739  16.985  0.00  0.00    +0.000 A 
ATOM     24  C   UNL     1       4.990   4.308  16.285  0.00  0.00    +0.000 A 
ATOM     25  C   UNL     1       5.272   5.655  16.363  0.00  0.00    +0.000 A 
ATOM     26  C   UNL     1       4.532   6.521  17.150  0.00  0.00    +0.000 A 
ATOM     27  O   UNL     1       6.353   5.993  15.606  0.00  0.00    +0.000 OA
ATOM     28  C   UNL     1       6.667   4.723  14.989  0.00  0.00    +0.000 C 
ATOM     29  O   UNL     1       5.847   3.639  15.469  0.00  0.00    +0.000 OA
ENDBRANCH  18  21
ENDBRANCH   1  19
TORSDOF 3
ENDMDL
