MODEL 1
REMARK VINA RESULT:      -8.9      0.000      0.000
REMARK  Name = 
REMARK  4 active torsions:
REMARK  status: ('A' for Active; 'I' for Inactive)
REMARK    1  A    between atoms: C_1  and  C_2
REMARK    2  A    between atoms: C_6  and  N_7
REMARK    3  A    between atoms: C_8  and  C_10
REMARK    4  A    between atoms: C_13  and  N_14
REMARK                            x       y       z     vdW  Elec       q    Type
REMARK                         _______ _______ _______ _____ _____    ______ ____
ROOT
ATOM      1  C   UNL     1       3.696   6.542  18.261  0.00  0.00    +0.000 A 
ATOM      2  C   UNL     1       4.330   6.019  19.393  0.00  0.00    +0.000 A 
ATOM      3  C   UNL     1       4.945   4.771  19.336  0.00  0.00    +0.000 A 
ATOM      4  C   UNL     1       4.785   3.972  18.193  0.00  0.00    +0.000 A 
ATOM      5  C   UNL     1       4.372   4.583  17.000  0.00  0.00    +0.000 A 
ATOM      6  C   UNL     1       3.807   5.860  17.043  0.00  0.00    +0.000 A 
ENDROOT
BRANCH   4   7
ATOM      7  N   UNL     1       4.686   2.519  18.366  0.00  0.00    +0.000 N 
ATOM      8  C   UNL     1       3.806   1.902  17.502  0.00  0.00    +0.000 A 
ATOM      9  N   UNL     1       2.532   1.782  17.736  0.00  0.00    +0.000 NA
ATOM     10  C   UNL     1       2.093   2.321  18.965  0.00  0.00    +0.000 A 
ATOM     11  C   UNL     1       0.822   2.870  19.098  0.00  0.00    +0.000 A 
ATOM     12  C   UNL     1       0.457   3.514  20.287  0.00  0.00    +0.000 A 
ATOM     13  C   UNL     1       1.344   3.572  21.369  0.00  0.00    +0.000 A 
ATOM     14  C   UNL     1       2.617   3.014  21.256  0.00  0.00    +0.000 A 
ATOM     15  C   UNL     1       2.979   2.427  20.042  0.00  0.00    +0.000 A 
ATOM     16  C   UNL     1       4.398   2.173  19.689  0.00  0.00    +0.000 A 
ATOM     17  O   UNL     1       5.205   1.777  20.519  0.00  0.00    +0.000 OA
ENDBRANCH   4   7
BRANCH   1  19
ATOM     18  N   UNL     1       2.167   7.917  19.560  0.00  0.00    +0.000 N 
ATOM     19  C   UNL     1       2.777   7.720  18.337  0.00  0.00    +0.000 C 
ATOM     20  O   UNL     1       2.613   8.389  17.322  0.00  0.00    +0.000 OA
ATOM     21  H   UNL     1       2.483   7.355  20.335  0.00  0.00    +0.000 HD
BRANCH  18  27
ATOM     22  C   UNL     1      -0.542   9.932  23.110  0.00  0.00    +0.000 C 
ATOM     23  C   UNL     1      -0.139   9.889  21.668  0.00  0.00    +0.000 A 
ATOM     24  C   UNL     1      -0.682  10.780  20.739  0.00  0.00    +0.000 A 
ATOM     25  C   UNL     1      -0.320  10.700  19.395  0.00  0.00    +0.000 A 
ATOM     26  C   UNL     1       0.608   9.746  18.969  0.00  0.00    +0.000 A 
ATOM     27  C   UNL     1       1.189   8.873  19.888  0.00  0.00    +0.000 A 
ATOM     28  C   UNL     1       0.796   8.940  21.232  0.00  0.00    +0.000 A 
ENDBRANCH  18  27
ENDBRANCH   1  19
TORSDOF 3
ENDMDL
MODEL 2
REMARK VINA RESULT:      -8.7      2.630      4.649
REMARK  Name = 
REMARK  4 active torsions:
REMARK  status: ('A' for Active; 'I' for Inactive)
REMARK    1  A    between atoms: C_1  and  C_2
REMARK    2  A    between atoms: C_6  and  N_7
REMARK    3  A    between atoms: C_8  and  C_10
REMARK    4  A    between atoms: C_13  and  N_14
REMARK                            x       y       z     vdW  Elec       q    Type
REMARK                         _______ _______ _______ _____ _____    ______ ____
ROOT
ATOM      1  C   UNL     1       1.841   8.541  18.715  0.00  0.00    +0.000 A 
ATOM      2  C   UNL     1       1.855   7.873  19.944  0.00  0.00    +0.000 A 
ATOM      3  C   UNL     1       2.556   6.678  20.081  0.00  0.00    +0.000 A 
ATOM      4  C   UNL     1       3.108   6.065  18.945  0.00  0.00    +0.000 A 
ATOM      5  C   UNL     1       3.302   6.839  17.792  0.00  0.00    +0.000 A 
ATOM      6  C   UNL     1       2.647   8.067  17.672  0.00  0.00    +0.000 A 
ENDROOT
BRANCH   4   7
ATOM      7  N   UNL     1       3.109   4.600  18.875  0.00  0.00    +0.000 N 
ATOM      8  C   UNL     1       4.029   3.991  19.702  0.00  0.00    +0.000 A 
ATOM      9  N   UNL     1       5.267   3.776  19.367  0.00  0.00    +0.000 NA
ATOM     10  C   UNL     1       5.620   4.198  18.066  0.00  0.00    +0.000 A 
ATOM     11  C   UNL     1       6.902   4.656  17.781  0.00  0.00    +0.000 A 
ATOM     12  C   UNL     1       7.191   5.191  16.518  0.00  0.00    +0.000 A 
ATOM     13  C   UNL     1       6.212   5.227  15.518  0.00  0.00    +0.000 A 
ATOM     14  C   UNL     1       4.926   4.760  15.785  0.00  0.00    +0.000 A 
ATOM     15  C   UNL     1       4.646   4.283  17.066  0.00  0.00    +0.000 A 
ATOM     16  C   UNL     1       3.253   4.144  17.562  0.00  0.00    +0.000 A 
ATOM     17  O   UNL     1       2.352   3.741  16.839  0.00  0.00    +0.000 OA
ENDBRANCH   4   7
BRANCH   1  19
ATOM     18  N   UNL     1      -0.433   9.265  18.241  0.00  0.00    +0.000 N 
ATOM     19  C   UNL     1       0.881   9.652  18.424  0.00  0.00    +0.000 C 
ATOM     20  O   UNL     1       1.326  10.791  18.341  0.00  0.00    +0.000 OA
ATOM     21  H   UNL     1      -0.671   8.309  18.451  0.00  0.00    +0.000 HD
BRANCH  18  27
ATOM     22  C   UNL     1      -3.690  10.335  14.742  0.00  0.00    +0.000 C 
ATOM     23  C   UNL     1      -3.155  10.581  16.119  0.00  0.00    +0.000 A 
ATOM     24  C   UNL     1      -3.744  11.525  16.964  0.00  0.00    +0.000 A 
ATOM     25  C   UNL     1      -3.209  11.765  18.229  0.00  0.00    +0.000 A 
ATOM     26  C   UNL     1      -2.097  11.045  18.673  0.00  0.00    +0.000 A 
ATOM     27  C   UNL     1      -1.519  10.073  17.860  0.00  0.00    +0.000 A 
ATOM     28  C   UNL     1      -2.044   9.860  16.577  0.00  0.00    +0.000 A 
ENDBRANCH  18  27
ENDBRANCH   1  19
TORSDOF 3
ENDMDL
MODEL 3
REMARK VINA RESULT:      -8.7      1.661      1.858
REMARK  Name = 
REMARK  4 active torsions:
REMARK  status: ('A' for Active; 'I' for Inactive)
REMARK    1  A    between atoms: C_1  and  C_2
REMARK    2  A    between atoms: C_6  and  N_7
REMARK    3  A    between atoms: C_8  and  C_10
REMARK    4  A    between atoms: C_13  and  N_14
REMARK                            x       y       z     vdW  Elec       q    Type
REMARK                         _______ _______ _______ _____ _____    ______ ____
ROOT
ATOM      1  C   UNL     1       3.214   6.686  18.774  0.00  0.00    +0.000 A 
ATOM      2  C   UNL     1       4.133   6.160  19.689  0.00  0.00    +0.000 A 
ATOM      3  C   UNL     1       4.839   5.000  19.381  0.00  0.00    +0.000 A 
ATOM      4  C   UNL     1       4.506   4.273  18.227  0.00  0.00    +0.000 A 
ATOM      5  C   UNL     1       3.780   4.916  17.215  0.00  0.00    +0.000 A 
ATOM      6  C   UNL     1       3.116   6.112  17.500  0.00  0.00    +0.000 A 
ENDROOT
BRANCH   4   7
ATOM      7  N   UNL     1       4.591   2.810  18.277  0.00  0.00    +0.000 N 
ATOM      8  C   UNL     1       3.779   2.162  17.370  0.00  0.00    +0.000 A 
ATOM      9  N   UNL     1       2.535   1.864  17.601  0.00  0.00    +0.000 NA
ATOM     10  C   UNL     1       2.054   2.240  18.875  0.00  0.00    +0.000 A 
ATOM     11  C   UNL     1       0.727   2.612  19.064  0.00  0.00    +0.000 A 
ATOM     12  C   UNL     1       0.307   3.104  20.306  0.00  0.00    +0.000 A 
ATOM     13  C   UNL     1       1.199   3.181  21.382  0.00  0.00    +0.000 A 
ATOM     14  C   UNL     1       2.529   2.799  21.213  0.00  0.00    +0.000 A 
ATOM     15  C   UNL     1       2.939   2.365  19.951  0.00  0.00    +0.000 A 
ATOM     16  C   UNL     1       4.373   2.321  19.567  0.00  0.00    +0.000 A 
ATOM     17  O   UNL     1       5.237   1.961  20.355  0.00  0.00    +0.000 OA
ENDBRANCH   4   7
BRANCH   1  19
ATOM     18  N   UNL     1       1.887   8.628  18.155  0.00  0.00    +0.000 N 
ATOM     19  C   UNL     1       2.224   7.741  19.158  0.00  0.00    +0.000 C 
ATOM     20  O   UNL     1       1.819   7.757  20.315  0.00  0.00    +0.000 OA
ATOM     21  H   UNL     1       2.212   8.425  17.223  0.00  0.00    +0.000 HD
BRANCH  18  27
ATOM     22  C   UNL     1      -2.635  10.459  17.700  0.00  0.00    +0.000 C 
ATOM     23  C   UNL     1      -1.193  10.665  18.052  0.00  0.00    +0.000 A 
ATOM     24  C   UNL     1      -0.729  11.907  18.493  0.00  0.00    +0.000 A 
ATOM     25  C   UNL     1       0.623  12.088  18.780  0.00  0.00    +0.000 A 
ATOM     26  C   UNL     1       1.520  11.023  18.658  0.00  0.00    +0.000 A 
ATOM     27  C   UNL     1       1.069   9.768  18.257  0.00  0.00    +0.000 A 
ATOM     28  C   UNL     1      -0.287   9.602  17.939  0.00  0.00    +0.000 A 
ENDBRANCH  18  27
ENDBRANCH   1  19
TORSDOF 3
ENDMDL
MODEL 4
REMARK VINA RESULT:      -8.6      1.225      1.905
REMARK  Name = 
REMARK  4 active torsions:
REMARK  status: ('A' for Active; 'I' for Inactive)
REMARK    1  A    between atoms: C_1  and  C_2
REMARK    2  A    between atoms: C_6  and  N_7
REMARK    3  A    between atoms: C_8  and  C_10
REMARK    4  A    between atoms: C_13  and  N_14
REMARK                            x       y       z     vdW  Elec       q    Type
REMARK                         _______ _______ _______ _____ _____    ______ ____
ROOT
ATOM      1  C   UNL     1       3.120   7.445  18.491  0.00  0.00    +0.000 A 
ATOM      2  C   UNL     1       2.931   6.546  19.546  0.00  0.00    +0.000 A 
ATOM      3  C   UNL     1       3.661   5.361  19.593  0.00  0.00    +0.000 A 
ATOM      4  C   UNL     1       4.461   4.997  18.499  0.00  0.00    +0.000 A 
ATOM      5  C   UNL     1       4.833   5.989  17.580  0.00  0.00    +0.000 A 
ATOM      6  C   UNL     1       4.143   7.204  17.565  0.00  0.00    +0.000 A 
ENDROOT
BRANCH   4   7
ATOM      7  N   UNL     1       4.563   3.576  18.152  0.00  0.00    +0.000 N 
ATOM      8  C   UNL     1       3.750   3.185  17.110  0.00  0.00    +0.000 A 
ATOM      9  N   UNL     1       2.511   2.818  17.261  0.00  0.00    +0.000 NA
ATOM     10  C   UNL     1       2.039   2.830  18.592  0.00  0.00    +0.000 A 
ATOM     11  C   UNL     1       0.710   3.120  18.883  0.00  0.00    +0.000 A 
ATOM     12  C   UNL     1       0.297   3.254  20.215  0.00  0.00    +0.000 A 
ATOM     13  C   UNL     1       1.199   3.051  21.266  0.00  0.00    +0.000 A 
ATOM     14  C   UNL     1       2.531   2.747  20.991  0.00  0.00    +0.000 A 
ATOM     15  C   UNL     1       2.934   2.674  19.656  0.00  0.00    +0.000 A 
ATOM     16  C   UNL     1       4.363   2.755  19.265  0.00  0.00    +0.000 A 
ATOM     17  O   UNL     1       5.240   2.208  19.920  0.00  0.00    +0.000 OA
ENDBRANCH   4   7
BRANCH   1  19
ATOM     18  N   UNL     1       1.372   8.935  19.293  0.00  0.00    +0.000 N 
ATOM     19  C   UNL     1       2.172   8.573  18.227  0.00  0.00    +0.000 C 
ATOM     20  O   UNL     1       2.154   9.059  17.102  0.00  0.00    +0.000 OA
ATOM     21  H   UNL     1       1.575   8.523  20.189  0.00  0.00    +0.000 HD
BRANCH  18  27
ATOM     22  C   UNL     1      -2.882  10.342  17.312  0.00  0.00    +0.000 C 
ATOM     23  C   UNL     1      -1.801  10.560  18.326  0.00  0.00    +0.000 A 
ATOM     24  C   UNL     1      -1.870  11.616  19.238  0.00  0.00    +0.000 A 
ATOM     25  C   UNL     1      -0.836  11.824  20.150  0.00  0.00    +0.000 A 
ATOM     26  C   UNL     1       0.264  10.963  20.178  0.00  0.00    +0.000 A 
ATOM     27  C   UNL     1       0.332   9.881  19.302  0.00  0.00    +0.000 A 
ATOM     28  C   UNL     1      -0.697   9.698  18.367  0.00  0.00    +0.000 A 
ENDBRANCH  18  27
ENDBRANCH   1  19
TORSDOF 3
ENDMDL
MODEL 5
REMARK VINA RESULT:      -8.6      1.093      1.267
REMARK  Name = 
REMARK  4 active torsions:
REMARK  status: ('A' for Active; 'I' for Inactive)
REMARK    1  A    between atoms: C_1  and  C_2
REMARK    2  A    between atoms: C_6  and  N_7
REMARK    3  A    between atoms: C_8  and  C_10
REMARK    4  A    between atoms: C_13  and  N_14
REMARK                            x       y       z     vdW  Elec       q    Type
REMARK                         _______ _______ _______ _____ _____    ______ ____
ROOT
ATOM      1  C   UNL     1       3.067   7.459  18.482  0.00  0.00    +0.000 A 
ATOM      2  C   UNL     1       3.004   6.575  19.565  0.00  0.00    +0.000 A 
ATOM      3  C   UNL     1       3.751   5.400  19.552  0.00  0.00    +0.000 A 
ATOM      4  C   UNL     1       4.435   5.027  18.385  0.00  0.00    +0.000 A 
ATOM      5  C   UNL     1       4.692   6.007  17.416  0.00  0.00    +0.000 A 
ATOM      6  C   UNL     1       3.988   7.214  17.456  0.00  0.00    +0.000 A 
ENDROOT
BRANCH   4   7
ATOM      7  N   UNL     1       4.519   3.601  18.051  0.00  0.00    +0.000 N 
ATOM      8  C   UNL     1       3.661   3.200  17.049  0.00  0.00    +0.000 A 
ATOM      9  N   UNL     1       2.429   2.839  17.257  0.00  0.00    +0.000 NA
ATOM     10  C   UNL     1       2.014   2.869  18.606  0.00  0.00    +0.000 A 
ATOM     11  C   UNL     1       0.699   3.166  18.948  0.00  0.00    +0.000 A 
ATOM     12  C   UNL     1       0.342   3.317  20.295  0.00  0.00    +0.000 A 
ATOM     13  C   UNL     1       1.287   3.124  21.310  0.00  0.00    +0.000 A 
ATOM     14  C   UNL     1       2.606   2.813  20.983  0.00  0.00    +0.000 A 
ATOM     15  C   UNL     1       2.951   2.722  19.633  0.00  0.00    +0.000 A 
ATOM     16  C   UNL     1       4.364   2.795  19.181  0.00  0.00    +0.000 A 
ATOM     17  O   UNL     1       5.266   2.253  19.806  0.00  0.00    +0.000 OA
ENDBRANCH   4   7
BRANCH   1  19
ATOM     18  N   UNL     1       1.383   8.930  19.439  0.00  0.00    +0.000 N 
ATOM     19  C   UNL     1       2.081   8.570  18.303  0.00  0.00    +0.000 C 
ATOM     20  O   UNL     1       1.947   9.046  17.181  0.00  0.00    +0.000 OA
ATOM     21  H   UNL     1       1.678   8.529  20.315  0.00  0.00    +0.000 HD
BRANCH  18  27
ATOM     22  C   UNL     1      -0.846  12.268  22.247  0.00  0.00    +0.000 C 
ATOM     23  C   UNL     1      -0.755  11.542  20.941  0.00  0.00    +0.000 A 
ATOM     24  C   UNL     1      -1.638  11.823  19.896  0.00  0.00    +0.000 A 
ATOM     25  C   UNL     1      -1.559  11.110  18.700  0.00  0.00    +0.000 A 
ATOM     26  C   UNL     1      -0.580  10.128  18.526  0.00  0.00    +0.000 A 
ATOM     27  C   UNL     1       0.334   9.861  19.543  0.00  0.00    +0.000 A 
ATOM     28  C   UNL     1       0.228  10.560  20.754  0.00  0.00    +0.000 A 
ENDBRANCH  18  27
ENDBRANCH   1  19
TORSDOF 3
ENDMDL
MODEL 6
REMARK VINA RESULT:      -8.4      2.935      4.948
REMARK  Name = 
REMARK  4 active torsions:
REMARK  status: ('A' for Active; 'I' for Inactive)
REMARK    1  A    between atoms: C_1  and  C_2
REMARK    2  A    between atoms: C_6  and  N_7
REMARK    3  A    between atoms: C_8  and  C_10
REMARK    4  A    between atoms: C_13  and  N_14
REMARK                            x       y       z     vdW  Elec       q    Type
REMARK                         _______ _______ _______ _____ _____    ______ ____
ROOT
ATOM      1  C   UNL     1       1.516   8.686  19.382  0.00  0.00    +0.000 A 
ATOM      2  C   UNL     1       1.975   7.502  19.969  0.00  0.00    +0.000 A 
ATOM      3  C   UNL     1       2.968   6.752  19.345  0.00  0.00    +0.000 A 
ATOM      4  C   UNL     1       3.387   7.099  18.051  0.00  0.00    +0.000 A 
ATOM      5  C   UNL     1       3.115   8.392  17.582  0.00  0.00    +0.000 A 
ATOM      6  C   UNL     1       2.161   9.174  18.238  0.00  0.00    +0.000 A 
ENDROOT
BRANCH   4   7
ATOM      7  N   UNL     1       3.744   6.023  17.121  0.00  0.00    +0.000 N 
ATOM      8  C   UNL     1       3.789   4.769  17.692  0.00  0.00    +0.000 A 
ATOM      9  N   UNL     1       4.840   4.286  18.287  0.00  0.00    +0.000 NA
ATOM     10  C   UNL     1       5.967   5.137  18.301  0.00  0.00    +0.000 A 
ATOM     11  C   UNL     1       6.868   5.122  19.360  0.00  0.00    +0.000 A 
ATOM     12  C   UNL     1       7.903   6.064  19.414  0.00  0.00    +0.000 A 
ATOM     13  C   UNL     1       8.074   6.996  18.383  0.00  0.00    +0.000 A 
ATOM     14  C   UNL     1       7.187   7.015  17.308  0.00  0.00    +0.000 A 
ATOM     15  C   UNL     1       6.130   6.104  17.303  0.00  0.00    +0.000 A 
ATOM     16  C   UNL     1       4.935   6.297  16.444  0.00  0.00    +0.000 A 
ATOM     17  O   UNL     1       5.029   6.722  15.300  0.00  0.00    +0.000 OA
ENDBRANCH   4   7
BRANCH   1  19
ATOM     18  N   UNL     1      -0.394  10.104  18.875  0.00  0.00    +0.000 N 
ATOM     19  C   UNL     1       0.266   9.369  19.841  0.00  0.00    +0.000 C 
ATOM     20  O   UNL     1      -0.054   9.255  21.018  0.00  0.00    +0.000 OA
ATOM     21  H   UNL     1      -0.076  10.016  17.924  0.00  0.00    +0.000 HD
BRANCH  18  27
ATOM     22  C   UNL     1      -4.876  11.256  17.268  0.00  0.00    +0.000 C 
ATOM     23  C   UNL     1      -3.768  11.473  18.252  0.00  0.00    +0.000 A 
ATOM     24  C   UNL     1      -3.895  12.402  19.287  0.00  0.00    +0.000 A 
ATOM     25  C   UNL     1      -2.838  12.615  20.172  0.00  0.00    +0.000 A 
ATOM     26  C   UNL     1      -1.655  11.882  20.048  0.00  0.00    +0.000 A 
ATOM     27  C   UNL     1      -1.525  10.923  19.045  0.00  0.00    +0.000 A 
ATOM     28  C   UNL     1      -2.580  10.738  18.141  0.00  0.00    +0.000 A 
ENDBRANCH  18  27
ENDBRANCH   1  19
TORSDOF 3
ENDMDL
MODEL 7
REMARK VINA RESULT:      -8.3      0.559      1.450
REMARK  Name = 
REMARK  4 active torsions:
REMARK  status: ('A' for Active; 'I' for Inactive)
REMARK    1  A    between atoms: C_1  and  C_2
REMARK    2  A    between atoms: C_6  and  N_7
REMARK    3  A    between atoms: C_8  and  C_10
REMARK    4  A    between atoms: C_13  and  N_14
REMARK                            x       y       z     vdW  Elec       q    Type
REMARK                         _______ _______ _______ _____ _____    ______ ____
ROOT
ATOM      1  C   UNL     1       3.749   6.585  18.187  0.00  0.00    +0.000 A 
ATOM      2  C   UNL     1       4.284   6.048  19.362  0.00  0.00    +0.000 A 
ATOM      3  C   UNL     1       4.880   4.790  19.347  0.00  0.00    +0.000 A 
ATOM      4  C   UNL     1       4.795   3.997  18.192  0.00  0.00    +0.000 A 
ATOM      5  C   UNL     1       4.487   4.618  16.973  0.00  0.00    +0.000 A 
ATOM      6  C   UNL     1       3.942   5.905  16.977  0.00  0.00    +0.000 A 
ENDROOT
BRANCH   4   7
ATOM      7  N   UNL     1       4.658   2.546  18.351  0.00  0.00    +0.000 N 
ATOM      8  C   UNL     1       3.758   1.961  17.485  0.00  0.00    +0.000 A 
ATOM      9  N   UNL     1       2.483   1.872  17.724  0.00  0.00    +0.000 NA
ATOM     10  C   UNL     1       2.064   2.410  18.961  0.00  0.00    +0.000 A 
ATOM     11  C   UNL     1       0.809   2.991  19.106  0.00  0.00    +0.000 A 
ATOM     12  C   UNL     1       0.467   3.633  20.304  0.00  0.00    +0.000 A 
ATOM     13  C   UNL     1       1.361   3.655  21.381  0.00  0.00    +0.000 A 
ATOM     14  C   UNL     1       2.618   3.066  21.256  0.00  0.00    +0.000 A 
ATOM     15  C   UNL     1       2.958   2.481  20.034  0.00  0.00    +0.000 A 
ATOM     16  C   UNL     1       4.368   2.194  19.671  0.00  0.00    +0.000 A 
ATOM     17  O   UNL     1       5.168   1.767  20.493  0.00  0.00    +0.000 OA
ENDBRANCH   4   7
BRANCH   1  19
ATOM     18  N   UNL     1       2.142   7.979  19.367  0.00  0.00    +0.000 N 
ATOM     19  C   UNL     1       2.847   7.779  18.196  0.00  0.00    +0.000 C 
ATOM     20  O   UNL     1       2.778   8.457  17.177  0.00  0.00    +0.000 OA
ATOM     21  H   UNL     1       2.383   7.407  20.160  0.00  0.00    +0.000 HD
BRANCH  18  27
ATOM     22  C   UNL     1      -1.580  10.588  17.539  0.00  0.00    +0.000 C 
ATOM     23  C   UNL     1      -0.714  10.227  18.707  0.00  0.00    +0.000 A 
ATOM     24  C   UNL     1      -0.922  10.800  19.964  0.00  0.00    +0.000 A 
ATOM     25  C   UNL     1      -0.083  10.478  21.030  0.00  0.00    +0.000 A 
ATOM     26  C   UNL     1       0.957   9.560  20.857  0.00  0.00    +0.000 A 
ATOM     27  C   UNL     1       1.156   8.950  19.620  0.00  0.00    +0.000 A 
ATOM     28  C   UNL     1       0.327   9.303  18.546  0.00  0.00    +0.000 A 
ENDBRANCH  18  27
ENDBRANCH   1  19
TORSDOF 3
ENDMDL
MODEL 8
REMARK VINA RESULT:      -8.3      1.596      1.938
REMARK  Name = 
REMARK  4 active torsions:
REMARK  status: ('A' for Active; 'I' for Inactive)
REMARK    1  A    between atoms: C_1  and  C_2
REMARK    2  A    between atoms: C_6  and  N_7
REMARK    3  A    between atoms: C_8  and  C_10
REMARK    4  A    between atoms: C_13  and  N_14
REMARK                            x       y       z     vdW  Elec       q    Type
REMARK                         _______ _______ _______ _____ _____    ______ ____
ROOT
ATOM      1  C   UNL     1       3.229   6.692  18.717  0.00  0.00    +0.000 A 
ATOM      2  C   UNL     1       4.196   6.189  19.594  0.00  0.00    +0.000 A 
ATOM      3  C   UNL     1       4.880   5.016  19.284  0.00  0.00    +0.000 A 
ATOM      4  C   UNL     1       4.481   4.256  18.173  0.00  0.00    +0.000 A 
ATOM      5  C   UNL     1       3.701   4.871  17.184  0.00  0.00    +0.000 A 
ATOM      6  C   UNL     1       3.058   6.079  17.468  0.00  0.00    +0.000 A 
ENDROOT
BRANCH   4   7
ATOM      7  N   UNL     1       4.563   2.795  18.263  0.00  0.00    +0.000 N 
ATOM      8  C   UNL     1       3.746   2.123  17.378  0.00  0.00    +0.000 A 
ATOM      9  N   UNL     1       2.502   1.834  17.624  0.00  0.00    +0.000 NA
ATOM     10  C   UNL     1       2.028   2.246  18.889  0.00  0.00    +0.000 A 
ATOM     11  C   UNL     1       0.703   2.626  19.074  0.00  0.00    +0.000 A 
ATOM     12  C   UNL     1       0.290   3.154  20.304  0.00  0.00    +0.000 A 
ATOM     13  C   UNL     1       1.187   3.259  21.374  0.00  0.00    +0.000 A 
ATOM     14  C   UNL     1       2.516   2.869  21.209  0.00  0.00    +0.000 A 
ATOM     15  C   UNL     1       2.918   2.399  19.957  0.00  0.00    +0.000 A 
ATOM     16  C   UNL     1       4.350   2.343  19.567  0.00  0.00    +0.000 A 
ATOM     17  O   UNL     1       5.218   2.002  20.360  0.00  0.00    +0.000 OA
ENDBRANCH   4   7
BRANCH   1  19
ATOM     18  N   UNL     1       2.042   8.745  18.178  0.00  0.00    +0.000 N 
ATOM     19  C   UNL     1       2.266   7.762  19.122  0.00  0.00    +0.000 C 
ATOM     20  O   UNL     1       1.783   7.706  20.247  0.00  0.00    +0.000 OA
ATOM     21  H   UNL     1       2.421   8.601  17.256  0.00  0.00    +0.000 HD
BRANCH  18  27
ATOM     22  C   UNL     1       2.083  13.617  18.686  0.00  0.00    +0.000 C 
ATOM     23  C   UNL     1       1.303  12.345  18.550  0.00  0.00    +0.000 A 
ATOM     24  C   UNL     1      -0.093  12.354  18.525  0.00  0.00    +0.000 A 
ATOM     25  C   UNL     1      -0.801  11.156  18.433  0.00  0.00    +0.000 A 
ATOM     26  C   UNL     1      -0.120   9.939  18.338  0.00  0.00    +0.000 A 
ATOM     27  C   UNL     1       1.273   9.914  18.322  0.00  0.00    +0.000 A 
ATOM     28  C   UNL     1       1.977  11.121  18.447  0.00  0.00    +0.000 A 
ENDBRANCH  18  27
ENDBRANCH   1  19
TORSDOF 3
ENDMDL
MODEL 9
REMARK VINA RESULT:      -8.3      1.160      1.904
REMARK  Name = 
REMARK  4 active torsions:
REMARK  status: ('A' for Active; 'I' for Inactive)
REMARK    1  A    between atoms: C_1  and  C_2
REMARK    2  A    between atoms: C_6  and  N_7
REMARK    3  A    between atoms: C_8  and  C_10
REMARK    4  A    between atoms: C_13  and  N_14
REMARK                            x       y       z     vdW  Elec       q    Type
REMARK                         _______ _______ _______ _____ _____    ______ ____
ROOT
ATOM      1  C   UNL     1       2.493   7.392  18.055  0.00  0.00    +0.000 A 
ATOM      2  C   UNL     1       3.820   7.384  17.613  0.00  0.00    +0.000 A 
ATOM      3  C   UNL     1       4.409   6.195  17.191  0.00  0.00    +0.000 A 
ATOM      4  C   UNL     1       3.724   4.983  17.368  0.00  0.00    +0.000 A 
ATOM      5  C   UNL     1       2.337   5.019  17.574  0.00  0.00    +0.000 A 
ATOM      6  C   UNL     1       1.729   6.223  17.940  0.00  0.00    +0.000 A 
ENDROOT
BRANCH   4   7
ATOM      7  N   UNL     1       4.501   3.785  17.701  0.00  0.00    +0.000 N 
ATOM      8  C   UNL     1       3.965   2.608  17.224  0.00  0.00    +0.000 A 
ATOM      9  N   UNL     1       3.065   1.916  17.860  0.00  0.00    +0.000 NA
ATOM     10  C   UNL     1       2.670   2.447  19.108  0.00  0.00    +0.000 A 
ATOM     11  C   UNL     1       1.374   2.280  19.584  0.00  0.00    +0.000 A 
ATOM     12  C   UNL     1       0.971   2.926  20.760  0.00  0.00    +0.000 A 
ATOM     13  C   UNL     1       1.875   3.703  21.494  0.00  0.00    +0.000 A 
ATOM     14  C   UNL     1       3.181   3.869  21.037  0.00  0.00    +0.000 A 
ATOM     15  C   UNL     1       3.545   3.263  19.833  0.00  0.00    +0.000 A 
ATOM     16  C   UNL     1       4.746   3.692  19.073  0.00  0.00    +0.000 A 
ATOM     17  O   UNL     1       5.790   3.992  19.638  0.00  0.00    +0.000 OA
ENDBRANCH   4   7
BRANCH   1  19
ATOM     18  N   UNL     1       1.418   8.276  20.050  0.00  0.00    +0.000 N 
ATOM     19  C   UNL     1       1.905   8.556  18.788  0.00  0.00    +0.000 C 
ATOM     20  O   UNL     1       1.871   9.640  18.216  0.00  0.00    +0.000 OA
ATOM     21  H   UNL     1       1.615   7.366  20.435  0.00  0.00    +0.000 HD
BRANCH  18  27
ATOM     22  C   UNL     1      -1.426  12.247  20.433  0.00  0.00    +0.000 C 
ATOM     23  C   UNL     1      -0.711  11.109  21.094  0.00  0.00    +0.000 A 
ATOM     24  C   UNL     1      -0.779  10.921  22.477  0.00  0.00    +0.000 A 
ATOM     25  C   UNL     1      -0.076   9.877  23.078  0.00  0.00    +0.000 A 
ATOM     26  C   UNL     1       0.679   8.994  22.301  0.00  0.00    +0.000 A 
ATOM     27  C   UNL     1       0.728   9.144  20.916  0.00  0.00    +0.000 A 
ATOM     28  C   UNL     1       0.044  10.215  20.323  0.00  0.00    +0.000 A 
ENDBRANCH  18  27
ENDBRANCH   1  19
TORSDOF 3
ENDMDL
