MODEL 1
REMARK VINA RESULT:      -8.9      0.000      0.000
REMARK  Name = 
REMARK  4 active torsions:
REMARK  status: ('A' for Active; 'I' for Inactive)
REMARK    1  A    between atoms: C_2  and  C_3
REMARK    2  A    between atoms: C_3  and  C_4
REMARK    3  A    between atoms: N_12  and  C_13
REMARK    4  A    between atoms: C_16  and  N_17
REMARK                            x       y       z     vdW  Elec       q    Type
REMARK                         _______ _______ _______ _____ _____    ______ ____
ROOT
ATOM      1  C   UNL     1       2.478   6.991  19.094  0.00  0.00    +0.000 A 
ATOM      2  C   UNL     1       2.303   8.061  18.217  0.00  0.00    +0.000 A 
ATOM      3  C   UNL     1       1.605   9.211  18.611  0.00  0.00    +0.000 A 
ATOM      4  C   UNL     1       1.069   9.310  19.901  0.00  0.00    +0.000 A 
ATOM      5  C   UNL     1       1.227   8.227  20.775  0.00  0.00    +0.000 A 
ATOM      6  C   UNL     1       1.926   7.082  20.375  0.00  0.00    +0.000 A 
ENDROOT
BRANCH   4   7
ATOM      7  N   UNL     1       0.382  10.499  20.290  0.00  0.00    +0.000 N 
ATOM      8  N   UNL     1       0.846  11.258  21.335  0.00  0.00    +0.000 NA
ATOM      9  C   UNL     1       0.004  12.292  21.416  0.00  0.00    +0.000 A 
ATOM     10  C   UNL     1      -1.008  12.217  20.465  0.00  0.00    +0.000 A 
ATOM     11  C   UNL     1      -2.143  13.028  20.129  0.00  0.00    +0.000 A 
ATOM     12  O   UNL     1      -2.428  14.084  20.683  0.00  0.00    +0.000 OA
ATOM     13  N   UNL     1      -2.895  12.495  19.102  0.00  0.00    +0.000 N 
ATOM     14  C   UNL     1      -2.570  11.319  18.461  0.00  0.00    +0.000 A 
ATOM     15  N   UNL     1      -1.542  10.581  18.736  0.00  0.00    +0.000 NA
ATOM     16  C   UNL     1      -0.774  11.061  19.753  0.00  0.00    +0.000 A 
ATOM     17  H   UNL     1      -3.713  13.020  18.829  0.00  0.00    +0.000 HD
ENDBRANCH   4   7
BRANCH   1  20
ATOM     18  O   UNL     1       1.553   4.561  17.663  0.00  0.00    +0.000 OA
ATOM     19  C   UNL     1       2.692   4.703  18.102  0.00  0.00    +0.000 C 
ATOM     20  N   UNL     1       3.183   5.809  18.775  0.00  0.00    +0.000 N 
ATOM     21  H   UNL     1       4.148   5.770  19.083  0.00  0.00    +0.000 HD
BRANCH  19  22
ATOM     22  C   UNL     1       3.715   3.594  17.927  0.00  0.00    +0.000 C 
BRANCH  22  23
ATOM     23  C   UNL     1       4.945   4.035  17.178  0.00  0.00    +0.000 A 
ATOM     24  C   UNL     1       4.978   4.021  15.776  0.00  0.00    +0.000 A 
ATOM     25  C   UNL     1       6.116   4.459  15.102  0.00  0.00    +0.000 A 
ATOM     26  F   UNL     1       6.128   4.466  13.763  0.00  0.00    +0.000 F 
ATOM     27  C   UNL     1       7.238   4.902  15.796  0.00  0.00    +0.000 A 
ATOM     28  C   UNL     1       7.222   4.903  17.190  0.00  0.00    +0.000 A 
ATOM     29  C   UNL     1       6.083   4.467  17.867  0.00  0.00    +0.000 A 
ATOM     30  F   UNL     1       6.079   4.478  19.208  0.00  0.00    +0.000 F 
ENDBRANCH  22  23
ENDBRANCH  19  22
ENDBRANCH   1  20
TORSDOF 4
ENDMDL
MODEL 2
REMARK VINA RESULT:      -8.8      0.466      1.020
REMARK  Name = 
REMARK  4 active torsions:
REMARK  status: ('A' for Active; 'I' for Inactive)
REMARK    1  A    between atoms: C_2  and  C_3
REMARK    2  A    between atoms: C_3  and  C_4
REMARK    3  A    between atoms: N_12  and  C_13
REMARK    4  A    between atoms: C_16  and  N_17
REMARK                            x       y       z     vdW  Elec       q    Type
REMARK                         _______ _______ _______ _____ _____    ______ ____
ROOT
ATOM      1  C   UNL     1       2.478   6.904  18.785  0.00  0.00    +0.000 A 
ATOM      2  C   UNL     1       2.024   7.058  20.095  0.00  0.00    +0.000 A 
ATOM      3  C   UNL     1       1.398   8.242  20.508  0.00  0.00    +0.000 A 
ATOM      4  C   UNL     1       1.212   9.299  19.609  0.00  0.00    +0.000 A 
ATOM      5  C   UNL     1       1.686   9.153  18.299  0.00  0.00    +0.000 A 
ATOM      6  C   UNL     1       2.309   7.967  17.893  0.00  0.00    +0.000 A 
ENDROOT
BRANCH   4   7
ATOM      7  N   UNL     1       0.551  10.487  20.044  0.00  0.00    +0.000 N 
ATOM      8  N   UNL     1       1.090  11.252  21.049  0.00  0.00    +0.000 NA
ATOM      9  C   UNL     1       0.252  12.283  21.189  0.00  0.00    +0.000 A 
ATOM     10  C   UNL     1      -0.830  12.199  20.319  0.00  0.00    +0.000 A 
ATOM     11  C   UNL     1      -1.990  13.004  20.067  0.00  0.00    +0.000 A 
ATOM     12  O   UNL     1      -2.237  14.061  20.638  0.00  0.00    +0.000 OA
ATOM     13  N   UNL     1      -2.816  12.464  19.103  0.00  0.00    +0.000 N 
ATOM     14  C   UNL     1      -2.535  11.287  18.444  0.00  0.00    +0.000 A 
ATOM     15  N   UNL     1      -1.486  10.555  18.641  0.00  0.00    +0.000 NA
ATOM     16  C   UNL     1      -0.645  11.042  19.595  0.00  0.00    +0.000 A 
ATOM     17  H   UNL     1      -3.655  12.985  18.892  0.00  0.00    +0.000 HD
ENDBRANCH   4   7
BRANCH   1  20
ATOM     18  O   UNL     1       1.263   4.427  17.693  0.00  0.00    +0.000 OA
ATOM     19  C   UNL     1       2.474   4.607  17.792  0.00  0.00    +0.000 C 
ATOM     20  N   UNL     1       3.101   5.737  18.291  0.00  0.00    +0.000 N 
ATOM     21  H   UNL     1       4.113   5.729  18.314  0.00  0.00    +0.000 HD
BRANCH  19  22
ATOM     22  C   UNL     1       3.441   3.523  17.346  0.00  0.00    +0.000 C 
BRANCH  22  23
ATOM     23  C   UNL     1       4.822   4.045  17.053  0.00  0.00    +0.000 A 
ATOM     24  C   UNL     1       5.207   4.367  15.744  0.00  0.00    +0.000 A 
ATOM     25  C   UNL     1       6.481   4.874  15.497  0.00  0.00    +0.000 A 
ATOM     26  F   UNL     1       6.829   5.204  14.247  0.00  0.00    +0.000 F 
ATOM     27  C   UNL     1       7.395   5.057  16.530  0.00  0.00    +0.000 A 
ATOM     28  C   UNL     1       7.029   4.723  17.833  0.00  0.00    +0.000 A 
ATOM     29  C   UNL     1       5.753   4.218  18.082  0.00  0.00    +0.000 A 
ATOM     30  F   UNL     1       5.412   3.905  19.341  0.00  0.00    +0.000 F 
ENDBRANCH  22  23
ENDBRANCH  19  22
ENDBRANCH   1  20
TORSDOF 4
ENDMDL
MODEL 3
REMARK VINA RESULT:      -8.8      3.931      9.778
REMARK  Name = 
REMARK  4 active torsions:
REMARK  status: ('A' for Active; 'I' for Inactive)
REMARK    1  A    between atoms: C_2  and  C_3
REMARK    2  A    between atoms: C_3  and  C_4
REMARK    3  A    between atoms: N_12  and  C_13
REMARK    4  A    between atoms: C_16  and  N_17
REMARK                            x       y       z     vdW  Elec       q    Type
REMARK                         _______ _______ _______ _____ _____    ______ ____
ROOT
ATOM      1  C   UNL     1       1.368   9.230  19.354  0.00  0.00    +0.000 A 
ATOM      2  C   UNL     1       1.930   8.825  18.143  0.00  0.00    +0.000 A 
ATOM      3  C   UNL     1       2.520   7.560  18.008  0.00  0.00    +0.000 A 
ATOM      4  C   UNL     1       2.556   6.673  19.091  0.00  0.00    +0.000 A 
ATOM      5  C   UNL     1       2.010   7.088  20.312  0.00  0.00    +0.000 A 
ATOM      6  C   UNL     1       1.421   8.351  20.440  0.00  0.00    +0.000 A 
ENDROOT
BRANCH   4   7
ATOM      7  N   UNL     1       3.140   5.382  18.925  0.00  0.00    +0.000 N 
ATOM      8  N   UNL     1       4.502   5.246  18.814  0.00  0.00    +0.000 NA
ATOM      9  C   UNL     1       4.713   3.932  18.699  0.00  0.00    +0.000 A 
ATOM     10  C   UNL     1       3.524   3.209  18.711  0.00  0.00    +0.000 A 
ATOM     11  C   UNL     1       3.185   1.819  18.610  0.00  0.00    +0.000 A 
ATOM     12  O   UNL     1       4.003   0.911  18.513  0.00  0.00    +0.000 OA
ATOM     13  N   UNL     1       1.823   1.598  18.633  0.00  0.00    +0.000 N 
ATOM     14  C   UNL     1       0.898   2.612  18.761  0.00  0.00    +0.000 A 
ATOM     15  N   UNL     1       1.182   3.870  18.871  0.00  0.00    +0.000 NA
ATOM     16  C   UNL     1       2.516   4.139  18.842  0.00  0.00    +0.000 A 
ATOM     17  H   UNL     1       1.525   0.637  18.555  0.00  0.00    +0.000 HD
ENDBRANCH   4   7
BRANCH   1  20
ATOM     18  O   UNL     1      -1.421  10.067  18.786  0.00  0.00    +0.000 OA
ATOM     19  C   UNL     1      -0.571  10.809  19.273  0.00  0.00    +0.000 C 
ATOM     20  N   UNL     1       0.742  10.479  19.562  0.00  0.00    +0.000 N 
ATOM     21  H   UNL     1       1.324  11.208  19.956  0.00  0.00    +0.000 HD
BRANCH  19  22
ATOM     22  C   UNL     1      -0.926  12.246  19.615  0.00  0.00    +0.000 C 
BRANCH  22  23
ATOM     23  C   UNL     1      -1.896  12.360  20.761  0.00  0.00    +0.000 A 
ATOM     24  C   UNL     1      -3.235  12.712  20.539  0.00  0.00    +0.000 A 
ATOM     25  C   UNL     1      -4.123  12.786  21.610  0.00  0.00    +0.000 A 
ATOM     26  F   UNL     1      -5.405  13.097  21.384  0.00  0.00    +0.000 F 
ATOM     27  C   UNL     1      -3.703  12.528  22.912  0.00  0.00    +0.000 A 
ATOM     28  C   UNL     1      -2.370  12.195  23.146  0.00  0.00    +0.000 A 
ATOM     29  C   UNL     1      -1.480  12.118  22.074  0.00  0.00    +0.000 A 
ATOM     30  F   UNL     1      -0.202  11.792  22.313  0.00  0.00    +0.000 F 
ENDBRANCH  22  23
ENDBRANCH  19  22
ENDBRANCH   1  20
TORSDOF 4
ENDMDL
MODEL 4
REMARK VINA RESULT:      -8.7      1.151      1.532
REMARK  Name = 
REMARK  4 active torsions:
REMARK  status: ('A' for Active; 'I' for Inactive)
REMARK    1  A    between atoms: C_2  and  C_3
REMARK    2  A    between atoms: C_3  and  C_4
REMARK    3  A    between atoms: N_12  and  C_13
REMARK    4  A    between atoms: C_16  and  N_17
REMARK                            x       y       z     vdW  Elec       q    Type
REMARK                         _______ _______ _______ _____ _____    ______ ____
ROOT
ATOM      1  C   UNL     1       2.624   6.794  18.948  0.00  0.00    +0.000 A 
ATOM      2  C   UNL     1       2.113   6.924  20.240  0.00  0.00    +0.000 A 
ATOM      3  C   UNL     1       1.430   8.084  20.632  0.00  0.00    +0.000 A 
ATOM      4  C   UNL     1       1.244   9.139  19.730  0.00  0.00    +0.000 A 
ATOM      5  C   UNL     1       1.775   9.016  18.440  0.00  0.00    +0.000 A 
ATOM      6  C   UNL     1       2.454   7.855  18.054  0.00  0.00    +0.000 A 
ENDROOT
BRANCH   4   7
ATOM      7  N   UNL     1       0.525  10.301  20.143  0.00  0.00    +0.000 N 
ATOM      8  N   UNL     1       0.932  11.014  21.243  0.00  0.00    +0.000 NA
ATOM      9  C   UNL     1       0.075  12.034  21.335  0.00  0.00    +0.000 A 
ATOM     10  C   UNL     1      -0.893  11.994  20.336  0.00  0.00    +0.000 A 
ATOM     11  C   UNL     1      -2.021  12.808  19.988  0.00  0.00    +0.000 A 
ATOM     12  O   UNL     1      -2.344  13.834  20.579  0.00  0.00    +0.000 OA
ATOM     13  N   UNL     1      -2.720  12.318  18.904  0.00  0.00    +0.000 N 
ATOM     14  C   UNL     1      -2.352  11.178  18.224  0.00  0.00    +0.000 A 
ATOM     15  N   UNL     1      -1.328  10.438  18.509  0.00  0.00    +0.000 NA
ATOM     16  C   UNL     1      -0.612  10.876  19.581  0.00  0.00    +0.000 A 
ATOM     17  H   UNL     1      -3.531  12.847  18.620  0.00  0.00    +0.000 HD
ENDBRANCH   4   7
BRANCH   1  20
ATOM     18  O   UNL     1       5.292   5.735  19.699  0.00  0.00    +0.000 OA
ATOM     19  C   UNL     1       4.558   5.208  18.867  0.00  0.00    +0.000 C 
ATOM     20  N   UNL     1       3.306   5.651  18.475  0.00  0.00    +0.000 N 
ATOM     21  H   UNL     1       2.826   5.107  17.768  0.00  0.00    +0.000 HD
BRANCH  19  22
ATOM     22  C   UNL     1       5.005   3.942  18.156  0.00  0.00    +0.000 C 
BRANCH  22  23
ATOM     23  C   UNL     1       5.645   4.208  16.820  0.00  0.00    +0.000 A 
ATOM     24  C   UNL     1       4.938   3.995  15.627  0.00  0.00    +0.000 A 
ATOM     25  C   UNL     1       5.539   4.273  14.402  0.00  0.00    +0.000 A 
ATOM     26  F   UNL     1       4.846   4.092  13.270  0.00  0.00    +0.000 F 
ATOM     27  C   UNL     1       6.845   4.750  14.332  0.00  0.00    +0.000 A 
ATOM     28  C   UNL     1       7.563   4.948  15.511  0.00  0.00    +0.000 A 
ATOM     29  C   UNL     1       6.962   4.673  16.739  0.00  0.00    +0.000 A 
ATOM     30  F   UNL     1       7.662   4.872  17.865  0.00  0.00    +0.000 F 
ENDBRANCH  22  23
ENDBRANCH  19  22
ENDBRANCH   1  20
TORSDOF 4
ENDMDL
MODEL 5
REMARK VINA RESULT:      -8.7      1.812      2.383
REMARK  Name = 
REMARK  4 active torsions:
REMARK  status: ('A' for Active; 'I' for Inactive)
REMARK    1  A    between atoms: C_2  and  C_3
REMARK    2  A    between atoms: C_3  and  C_4
REMARK    3  A    between atoms: N_12  and  C_13
REMARK    4  A    between atoms: C_16  and  N_17
REMARK                            x       y       z     vdW  Elec       q    Type
REMARK                         _______ _______ _______ _____ _____    ______ ____
ROOT
ATOM      1  C   UNL     1       2.440   7.479  18.974  0.00  0.00    +0.000 A 
ATOM      2  C   UNL     1       1.728   7.939  20.083  0.00  0.00    +0.000 A 
ATOM      3  C   UNL     1       1.085   9.185  20.062  0.00  0.00    +0.000 A 
ATOM      4  C   UNL     1       1.143   9.996  18.922  0.00  0.00    +0.000 A 
ATOM      5  C   UNL     1       1.875   9.543  17.817  0.00  0.00    +0.000 A 
ATOM      6  C   UNL     1       2.513   8.298  17.844  0.00  0.00    +0.000 A 
ENDROOT
BRANCH   4   7
ATOM      7  N   UNL     1       0.462  11.250  18.915  0.00  0.00    +0.000 N 
ATOM      8  N   UNL     1      -0.909  11.296  18.951  0.00  0.00    +0.000 NA
ATOM      9  C   UNL     1      -1.215  12.596  18.958  0.00  0.00    +0.000 A 
ATOM     10  C   UNL     1      -0.081  13.399  18.907  0.00  0.00    +0.000 A 
ATOM     11  C   UNL     1       0.156  14.814  18.879  0.00  0.00    +0.000 A 
ATOM     12  O   UNL     1      -0.725  15.665  18.934  0.00  0.00    +0.000 OA
ATOM     13  N   UNL     1       1.496  15.130  18.783  0.00  0.00    +0.000 N 
ATOM     14  C   UNL     1       2.493  14.179  18.740  0.00  0.00    +0.000 A 
ATOM     15  N   UNL     1       2.303  12.899  18.782  0.00  0.00    +0.000 NA
ATOM     16  C   UNL     1       0.993  12.537  18.865  0.00  0.00    +0.000 A 
ATOM     17  H   UNL     1       1.721  16.113  18.750  0.00  0.00    +0.000 HD
ENDBRANCH   4   7
BRANCH   1  20
ATOM     18  O   UNL     1       1.565   4.938  17.717  0.00  0.00    +0.000 OA
ATOM     19  C   UNL     1       2.633   5.075  18.308  0.00  0.00    +0.000 C 
ATOM     20  N   UNL     1       3.097   6.230  18.913  0.00  0.00    +0.000 N 
ATOM     21  H   UNL     1       4.000   6.180  19.370  0.00  0.00    +0.000 HD
BRANCH  19  22
ATOM     22  C   UNL     1       3.588   3.899  18.430  0.00  0.00    +0.000 C 
BRANCH  22  23
ATOM     23  C   UNL     1       4.858   4.085  17.644  0.00  0.00    +0.000 A 
ATOM     24  C   UNL     1       4.907   3.791  16.274  0.00  0.00    +0.000 A 
ATOM     25  C   UNL     1       6.086   3.995  15.559  0.00  0.00    +0.000 A 
ATOM     26  F   UNL     1       6.114   3.735  14.246  0.00  0.00    +0.000 F 
ATOM     27  C   UNL     1       7.232   4.476  16.184  0.00  0.00    +0.000 A 
ATOM     28  C   UNL     1       7.200   4.755  17.549  0.00  0.00    +0.000 A 
ATOM     29  C   UNL     1       6.020   4.554  18.266  0.00  0.00    +0.000 A 
ATOM     30  F   UNL     1       6.001   4.831  19.578  0.00  0.00    +0.000 F 
ENDBRANCH  22  23
ENDBRANCH  19  22
ENDBRANCH   1  20
TORSDOF 4
ENDMDL
MODEL 6
REMARK VINA RESULT:      -8.6      0.625      1.907
REMARK  Name = 
REMARK  4 active torsions:
REMARK  status: ('A' for Active; 'I' for Inactive)
REMARK    1  A    between atoms: C_2  and  C_3
REMARK    2  A    between atoms: C_3  and  C_4
REMARK    3  A    between atoms: N_12  and  C_13
REMARK    4  A    between atoms: C_16  and  N_17
REMARK                            x       y       z     vdW  Elec       q    Type
REMARK                         _______ _______ _______ _____ _____    ______ ____
ROOT
ATOM      1  C   UNL     1       2.520   6.867  18.798  0.00  0.00    +0.000 A 
ATOM      2  C   UNL     1       2.065   6.995  20.111  0.00  0.00    +0.000 A 
ATOM      3  C   UNL     1       1.410   8.159  20.538  0.00  0.00    +0.000 A 
ATOM      4  C   UNL     1       1.195   9.220  19.650  0.00  0.00    +0.000 A 
ATOM      5  C   UNL     1       1.670   9.099  18.338  0.00  0.00    +0.000 A 
ATOM      6  C   UNL     1       2.322   7.934  17.918  0.00  0.00    +0.000 A 
ENDROOT
BRANCH   4   7
ATOM      7  N   UNL     1       0.506  10.386  20.099  0.00  0.00    +0.000 N 
ATOM      8  N   UNL     1       0.987  11.110  21.161  0.00  0.00    +0.000 NA
ATOM      9  C   UNL     1       0.136  12.131  21.300  0.00  0.00    +0.000 A 
ATOM     10  C   UNL     1      -0.898  12.080  20.371  0.00  0.00    +0.000 A 
ATOM     11  C   UNL     1      -2.048  12.890  20.093  0.00  0.00    +0.000 A 
ATOM     12  O   UNL     1      -2.331  13.922  20.693  0.00  0.00    +0.000 OA
ATOM     13  N   UNL     1      -2.819  12.388  19.064  0.00  0.00    +0.000 N 
ATOM     14  C   UNL     1      -2.497  11.241  18.372  0.00  0.00    +0.000 A 
ATOM     15  N   UNL     1      -1.455  10.505  18.594  0.00  0.00    +0.000 NA
ATOM     16  C   UNL     1      -0.668  10.955  19.611  0.00  0.00    +0.000 A 
ATOM     17  H   UNL     1      -3.648  12.914  18.831  0.00  0.00    +0.000 HD
ENDBRANCH   4   7
BRANCH   1  20
ATOM     18  O   UNL     1       1.374   4.452  17.510  0.00  0.00    +0.000 OA
ATOM     19  C   UNL     1       2.576   4.620  17.698  0.00  0.00    +0.000 C 
ATOM     20  N   UNL     1       3.171   5.720  18.291  0.00  0.00    +0.000 N 
ATOM     21  H   UNL     1       4.180   5.706  18.381  0.00  0.00    +0.000 HD
BRANCH  19  22
ATOM     22  C   UNL     1       3.567   3.552  17.266  0.00  0.00    +0.000 C 
BRANCH  22  23
ATOM     23  C   UNL     1       4.955   4.090  17.040  0.00  0.00    +0.000 A 
ATOM     24  C   UNL     1       5.805   4.367  18.122  0.00  0.00    +0.000 A 
ATOM     25  C   UNL     1       7.095   4.838  17.891  0.00  0.00    +0.000 A 
ATOM     26  F   UNL     1       7.907   5.074  18.929  0.00  0.00    +0.000 F 
ATOM     27  C   UNL     1       7.561   5.056  16.598  0.00  0.00    +0.000 A 
ATOM     28  C   UNL     1       6.719   4.802  15.517  0.00  0.00    +0.000 A 
ATOM     29  C   UNL     1       5.427   4.327  15.746  0.00  0.00    +0.000 A 
ATOM     30  F   UNL     1       4.629   4.082  14.696  0.00  0.00    +0.000 F 
ENDBRANCH  22  23
ENDBRANCH  19  22
ENDBRANCH   1  20
TORSDOF 4
ENDMDL
MODEL 7
REMARK VINA RESULT:      -8.5      1.253      2.107
REMARK  Name = 
REMARK  4 active torsions:
REMARK  status: ('A' for Active; 'I' for Inactive)
REMARK    1  A    between atoms: C_2  and  C_3
REMARK    2  A    between atoms: C_3  and  C_4
REMARK    3  A    between atoms: N_12  and  C_13
REMARK    4  A    between atoms: C_16  and  N_17
REMARK                            x       y       z     vdW  Elec       q    Type
REMARK                         _______ _______ _______ _____ _____    ______ ____
ROOT
ATOM      1  C   UNL     1       2.325   7.733  18.945  0.00  0.00    +0.000 A 
ATOM      2  C   UNL     1       1.938   8.804  18.138  0.00  0.00    +0.000 A 
ATOM      3  C   UNL     1       1.110   9.820  18.636  0.00  0.00    +0.000 A 
ATOM      4  C   UNL     1       0.655   9.783  19.960  0.00  0.00    +0.000 A 
ATOM      5  C   UNL     1       1.027   8.697  20.763  0.00  0.00    +0.000 A 
ATOM      6  C   UNL     1       1.855   7.687  20.260  0.00  0.00    +0.000 A 
ENDROOT
BRANCH   4   7
ATOM      7  N   UNL     1      -0.167  10.840  20.453  0.00  0.00    +0.000 N 
ATOM      8  N   UNL     1       0.163  11.492  21.614  0.00  0.00    +0.000 NA
ATOM      9  C   UNL     1      -0.782  12.422  21.772  0.00  0.00    +0.000 A 
ATOM     10  C   UNL     1      -1.732  12.380  20.757  0.00  0.00    +0.000 A 
ATOM     11  C   UNL     1      -2.924  13.119  20.455  0.00  0.00    +0.000 A 
ATOM     12  O   UNL     1      -3.342  14.060  21.121  0.00  0.00    +0.000 OA
ATOM     13  N   UNL     1      -3.565  12.661  19.323  0.00  0.00    +0.000 N 
ATOM     14  C   UNL     1      -3.089  11.617  18.558  0.00  0.00    +0.000 A 
ATOM     15  N   UNL     1      -2.008  10.949  18.801  0.00  0.00    +0.000 NA
ATOM     16  C   UNL     1      -1.345  11.358  19.919  0.00  0.00    +0.000 A 
ATOM     17  H   UNL     1      -4.416  13.139  19.067  0.00  0.00    +0.000 HD
ENDBRANCH   4   7
BRANCH   1  20
ATOM     18  O   UNL     1       1.627   5.093  17.786  0.00  0.00    +0.000 OA
ATOM     19  C   UNL     1       2.780   5.468  17.985  0.00  0.00    +0.000 C 
ATOM     20  N   UNL     1       3.170   6.683  18.521  0.00  0.00    +0.000 N 
ATOM     21  H   UNL     1       4.164   6.841  18.631  0.00  0.00    +0.000 HD
BRANCH  19  22
ATOM     22  C   UNL     1       3.944   4.556  17.637  0.00  0.00    +0.000 C 
BRANCH  22  23
ATOM     23  C   UNL     1       5.287   5.204  17.846  0.00  0.00    +0.000 A 
ATOM     24  C   UNL     1       5.975   5.060  19.059  0.00  0.00    +0.000 A 
ATOM     25  C   UNL     1       7.229   5.646  19.223  0.00  0.00    +0.000 A 
ATOM     26  F   UNL     1       7.889   5.480  20.376  0.00  0.00    +0.000 F 
ATOM     27  C   UNL     1       7.814   6.390  18.203  0.00  0.00    +0.000 A 
ATOM     28  C   UNL     1       7.130   6.555  16.999  0.00  0.00    +0.000 A 
ATOM     29  C   UNL     1       5.876   5.967  16.833  0.00  0.00    +0.000 A 
ATOM     30  F   UNL     1       5.232   6.129  15.668  0.00  0.00    +0.000 F 
ENDBRANCH  22  23
ENDBRANCH  19  22
ENDBRANCH   1  20
TORSDOF 4
ENDMDL
MODEL 8
REMARK VINA RESULT:      -8.5      4.031      9.569
REMARK  Name = 
REMARK  4 active torsions:
REMARK  status: ('A' for Active; 'I' for Inactive)
REMARK    1  A    between atoms: C_2  and  C_3
REMARK    2  A    between atoms: C_3  and  C_4
REMARK    3  A    between atoms: N_12  and  C_13
REMARK    4  A    between atoms: C_16  and  N_17
REMARK                            x       y       z     vdW  Elec       q    Type
REMARK                         _______ _______ _______ _____ _____    ______ ____
ROOT
ATOM      1  C   UNL     1       1.503   9.309  19.057  0.00  0.00    +0.000 A 
ATOM      2  C   UNL     1       2.150   8.852  17.908  0.00  0.00    +0.000 A 
ATOM      3  C   UNL     1       2.724   7.574  17.863  0.00  0.00    +0.000 A 
ATOM      4  C   UNL     1       2.658   6.725  18.975  0.00  0.00    +0.000 A 
ATOM      5  C   UNL     1       2.026   7.192  20.135  0.00  0.00    +0.000 A 
ATOM      6  C   UNL     1       1.454   8.468  20.172  0.00  0.00    +0.000 A 
ENDROOT
BRANCH   4   7
ATOM      7  N   UNL     1       3.229   5.419  18.899  0.00  0.00    +0.000 N 
ATOM      8  N   UNL     1       4.592   5.257  18.899  0.00  0.00    +0.000 NA
ATOM      9  C   UNL     1       4.785   3.936  18.846  0.00  0.00    +0.000 A 
ATOM     10  C   UNL     1       3.586   3.234  18.791  0.00  0.00    +0.000 A 
ATOM     11  C   UNL     1       3.229   1.847  18.712  0.00  0.00    +0.000 A 
ATOM     12  O   UNL     1       4.035   0.923  18.711  0.00  0.00    +0.000 OA
ATOM     13  N   UNL     1       1.865   1.650  18.637  0.00  0.00    +0.000 N 
ATOM     14  C   UNL     1       0.952   2.682  18.658  0.00  0.00    +0.000 A 
ATOM     15  N   UNL     1       1.251   3.939  18.747  0.00  0.00    +0.000 NA
ATOM     16  C   UNL     1       2.589   4.184  18.811  0.00  0.00    +0.000 A 
ATOM     17  H   UNL     1       1.556   0.691  18.570  0.00  0.00    +0.000 HD
ENDBRANCH   4   7
BRANCH   1  20
ATOM     18  O   UNL     1      -1.315  10.094  18.561  0.00  0.00    +0.000 OA
ATOM     19  C   UNL     1      -0.441  10.878  18.924  0.00  0.00    +0.000 C 
ATOM     20  N   UNL     1       0.886  10.574  19.172  0.00  0.00    +0.000 N 
ATOM     21  H   UNL     1       1.488  11.338  19.458  0.00  0.00    +0.000 HD
BRANCH  19  22
ATOM     22  C   UNL     1      -0.780  12.344  19.139  0.00  0.00    +0.000 C 
BRANCH  22  23
ATOM     23  C   UNL     1      -0.947  12.707  20.590  0.00  0.00    +0.000 A 
ATOM     24  C   UNL     1      -1.766  11.943  21.434  0.00  0.00    +0.000 A 
ATOM     25  C   UNL     1      -1.886  12.280  22.781  0.00  0.00    +0.000 A 
ATOM     26  F   UNL     1      -2.650  11.528  23.584  0.00  0.00    +0.000 F 
ATOM     27  C   UNL     1      -1.214  13.377  23.310  0.00  0.00    +0.000 A 
ATOM     28  C   UNL     1      -0.411  14.154  22.477  0.00  0.00    +0.000 A 
ATOM     29  C   UNL     1      -0.288  13.817  21.129  0.00  0.00    +0.000 A 
ATOM     30  F   UNL     1       0.491  14.569  20.339  0.00  0.00    +0.000 F 
ENDBRANCH  22  23
ENDBRANCH  19  22
ENDBRANCH   1  20
TORSDOF 4
ENDMDL
MODEL 9
REMARK VINA RESULT:      -8.5      1.115      2.073
REMARK  Name = 
REMARK  4 active torsions:
REMARK  status: ('A' for Active; 'I' for Inactive)
REMARK    1  A    between atoms: C_2  and  C_3
REMARK    2  A    between atoms: C_3  and  C_4
REMARK    3  A    between atoms: N_12  and  C_13
REMARK    4  A    between atoms: C_16  and  N_17
REMARK                            x       y       z     vdW  Elec       q    Type
REMARK                         _______ _______ _______ _____ _____    ______ ____
ROOT
ATOM      1  C   UNL     1       2.286   7.360  19.680  0.00  0.00    +0.000 A 
ATOM      2  C   UNL     1       1.568   7.721  20.822  0.00  0.00    +0.000 A 
ATOM      3  C   UNL     1       0.773   8.875  20.840  0.00  0.00    +0.000 A 
ATOM      4  C   UNL     1       0.681   9.693  19.707  0.00  0.00    +0.000 A 
ATOM      5  C   UNL     1       1.417   9.342  18.568  0.00  0.00    +0.000 A 
ATOM      6  C   UNL     1       2.207   8.187  18.556  0.00  0.00    +0.000 A 
ENDROOT
BRANCH   4   7
ATOM      7  N   UNL     1      -0.153  10.851  19.739  0.00  0.00    +0.000 N 
ATOM      8  N   UNL     1      -1.389  10.833  19.141  0.00  0.00    +0.000 NA
ATOM      9  C   UNL     1      -1.906  12.042  19.375  0.00  0.00    +0.000 A 
ATOM     10  C   UNL     1      -1.032  12.855  20.091  0.00  0.00    +0.000 A 
ATOM     11  C   UNL     1      -1.076  14.202  20.581  0.00  0.00    +0.000 A 
ATOM     12  O   UNL     1      -2.039  14.953  20.458  0.00  0.00    +0.000 OA
ATOM     13  N   UNL     1       0.089  14.578  21.216  0.00  0.00    +0.000 N 
ATOM     14  C   UNL     1       1.166  13.734  21.376  0.00  0.00    +0.000 A 
ATOM     15  N   UNL     1       1.221  12.510  20.958  0.00  0.00    +0.000 NA
ATOM     16  C   UNL     1       0.096  12.096  20.312  0.00  0.00    +0.000 A 
ATOM     17  H   UNL     1       0.118  15.521  21.574  0.00  0.00    +0.000 HD
ENDBRANCH   4   7
BRANCH   1  20
ATOM     18  O   UNL     1       1.791   4.826  18.218  0.00  0.00    +0.000 OA
ATOM     19  C   UNL     1       2.804   5.047  18.879  0.00  0.00    +0.000 C 
ATOM     20  N   UNL     1       3.092   6.205  19.581  0.00  0.00    +0.000 N 
ATOM     21  H   UNL     1       3.970   6.231  20.086  0.00  0.00    +0.000 HD
BRANCH  19  22
ATOM     22  C   UNL     1       3.887   3.987  18.982  0.00  0.00    +0.000 C 
BRANCH  22  23
ATOM     23  C   UNL     1       5.014   4.195  18.006  0.00  0.00    +0.000 A 
ATOM     24  C   UNL     1       4.887   3.805  16.665  0.00  0.00    +0.000 A 
ATOM     25  C   UNL     1       5.932   4.031  15.772  0.00  0.00    +0.000 A 
ATOM     26  F   UNL     1       5.790   3.679  14.488  0.00  0.00    +0.000 F 
ATOM     27  C   UNL     1       7.117   4.629  16.187  0.00  0.00    +0.000 A 
ATOM     28  C   UNL     1       7.262   5.003  17.522  0.00  0.00    +0.000 A 
ATOM     29  C   UNL     1       6.216   4.781  18.418  0.00  0.00    +0.000 A 
ATOM     30  F   UNL     1       6.366   5.151  19.698  0.00  0.00    +0.000 F 
ENDBRANCH  22  23
ENDBRANCH  19  22
ENDBRANCH   1  20
TORSDOF 4
ENDMDL
