MODEL 1
REMARK VINA RESULT:      -8.8      0.000      0.000
REMARK  Name = 
REMARK  5 active torsions:
REMARK  status: ('A' for Active; 'I' for Inactive)
REMARK    1  A    between atoms: C_1  and  N_2
REMARK    2  A    between atoms: C_6  and  C_7
REMARK    3  A    between atoms: C_7  and  C_8
REMARK    4  A    between atoms: C_8  and  C_9
REMARK    5  A    between atoms: C_13  and  N_14
REMARK                            x       y       z     vdW  Elec       q    Type
REMARK                         _______ _______ _______ _____ _____    ______ ____
ROOT
ATOM      1  C   UNL     1       4.448   5.304  17.292  0.00  0.00    +0.000 A 
ATOM      2  C   UNL     1       3.478   4.283  17.302  0.00  0.00    +0.000 A 
ATOM      3  C   UNL     1       2.188   4.491  17.782  0.00  0.00    +0.000 A 
ATOM      4  C   UNL     1       1.837   5.735  18.286  0.00  0.00    +0.000 A 
ATOM      5  C   UNL     1       2.757   6.785  18.303  0.00  0.00    +0.000 A 
ATOM      6  C   UNL     1       4.037   6.561  17.786  0.00  0.00    +0.000 A 
ENDROOT
BRANCH   5   7
ATOM      7  N   UNL     1       2.375   8.078  18.753  0.00  0.00    +0.000 N 
ATOM      8  C   UNL     1       2.099   9.131  17.728  0.00  0.00    +0.000 C 
ATOM      9  C   UNL     1       0.898   9.745  18.342  0.00  0.00    +0.000 C 
ATOM     10  C   UNL     1      -0.203  10.511  18.455  0.00  0.00    +0.000 C 
ATOM     11  C   UNL     1      -0.473   9.893  19.752  0.00  0.00    +0.000 C 
ATOM     12  C   UNL     1       0.667   9.241  19.618  0.00  0.00    +0.000 C 
ATOM     13  C   UNL     1       1.654   8.248  19.980  0.00  0.00    +0.000 C 
ATOM     14  O   UNL     1       1.784   7.633  21.026  0.00  0.00    +0.000 OA
ENDBRANCH   5   7
BRANCH   1  15
ATOM     15  C   UNL     1       5.970   5.046  16.834  0.00  0.00    +0.000 C 
ATOM     16  C   UNL     1       6.913   6.287  16.790  0.00  0.00    +0.000 C 
ATOM     17  O   UNL     1       7.770   5.759  17.824  0.00  0.00    +0.000 OA
ATOM     18  C   UNL     1       6.922   4.609  17.996  0.00  0.00    +0.000 C 
BRANCH  15  19
ATOM     19  C   UNL     1       6.058   4.107  15.586  0.00  0.00    +0.000 C 
BRANCH  19  25
ATOM     20  C   UNL     1       5.766   3.301  12.423  0.00  0.00    +0.000 C 
ATOM     21  N   UNL     1       6.656   4.239  13.061  0.00  0.00    +0.000 N 
ATOM     22  C   UNL     1       7.589   4.944  12.356  0.00  0.00    +0.000 A 
ATOM     23  N   UNL     1       8.273   5.702  13.175  0.00  0.00    +0.000 NA
ATOM     24  N   UNL     1       7.796   5.490  14.441  0.00  0.00    +0.000 NA
ATOM     25  C   UNL     1       6.802   4.621  14.386  0.00  0.00    +0.000 A 
ENDBRANCH  19  25
ENDBRANCH  15  19
ENDBRANCH   1  15
TORSDOF 4
ENDMDL
MODEL 2
REMARK VINA RESULT:      -8.5      2.884      4.820
REMARK  Name = 
REMARK  5 active torsions:
REMARK  status: ('A' for Active; 'I' for Inactive)
REMARK    1  A    between atoms: C_1  and  N_2
REMARK    2  A    between atoms: C_6  and  C_7
REMARK    3  A    between atoms: C_7  and  C_8
REMARK    4  A    between atoms: C_8  and  C_9
REMARK    5  A    between atoms: C_13  and  N_14
REMARK                            x       y       z     vdW  Elec       q    Type
REMARK                         _______ _______ _______ _____ _____    ______ ____
ROOT
ATOM      1  C   UNL     1       4.708   5.787  16.653  0.00  0.00    +0.000 A 
ATOM      2  C   UNL     1       4.530   7.184  16.620  0.00  0.00    +0.000 A 
ATOM      3  C   UNL     1       3.506   7.818  17.319  0.00  0.00    +0.000 A 
ATOM      4  C   UNL     1       2.616   7.060  18.066  0.00  0.00    +0.000 A 
ATOM      5  C   UNL     1       2.742   5.672  18.136  0.00  0.00    +0.000 A 
ATOM      6  C   UNL     1       3.797   5.060  17.450  0.00  0.00    +0.000 A 
ENDROOT
BRANCH   5   7
ATOM      7  N   UNL     1       1.873   4.904  18.957  0.00  0.00    +0.000 N 
ATOM      8  C   UNL     1       1.689   3.455  18.633  0.00  0.00    +0.000 C 
ATOM      9  C   UNL     1       1.717   2.903  20.008  0.00  0.00    +0.000 C 
ATOM     10  C   UNL     1       1.775   1.988  20.994  0.00  0.00    +0.000 C 
ATOM     11  C   UNL     1       1.863   3.075  21.968  0.00  0.00    +0.000 C 
ATOM     12  C   UNL     1       1.710   3.917  20.961  0.00  0.00    +0.000 C 
ATOM     13  C   UNL     1       1.694   5.224  20.342  0.00  0.00    +0.000 C 
ATOM     14  O   UNL     1       1.644   6.326  20.866  0.00  0.00    +0.000 OA
ENDBRANCH   5   7
BRANCH   1  15
ATOM     15  C   UNL     1       5.824   5.036  15.769  0.00  0.00    +0.000 C 
ATOM     16  C   UNL     1       5.649   3.500  15.569  0.00  0.00    +0.000 C 
ATOM     17  O   UNL     1       5.475   3.635  14.143  0.00  0.00    +0.000 OA
ATOM     18  C   UNL     1       5.547   5.070  14.229  0.00  0.00    +0.000 C 
BRANCH  15  19
ATOM     19  C   UNL     1       7.274   5.492  16.139  0.00  0.00    +0.000 C 
BRANCH  19  25
ATOM     20  C   UNL     1       7.941   8.204  17.853  0.00  0.00    +0.000 C 
ATOM     21  N   UNL     1       7.885   6.829  18.281  0.00  0.00    +0.000 N 
ATOM     22  C   UNL     1       8.161   6.461  19.567  0.00  0.00    +0.000 A 
ATOM     23  N   UNL     1       8.059   5.161  19.680  0.00  0.00    +0.000 NA
ATOM     24  N   UNL     1       7.722   4.658  18.452  0.00  0.00    +0.000 NA
ATOM     25  C   UNL     1       7.593   5.659  17.598  0.00  0.00    +0.000 A 
ENDBRANCH  19  25
ENDBRANCH  15  19
ENDBRANCH   1  15
TORSDOF 4
ENDMDL
MODEL 3
REMARK VINA RESULT:      -8.4      3.192      8.100
REMARK  Name = 
REMARK  5 active torsions:
REMARK  status: ('A' for Active; 'I' for Inactive)
REMARK    1  A    between atoms: C_1  and  N_2
REMARK    2  A    between atoms: C_6  and  C_7
REMARK    3  A    between atoms: C_7  and  C_8
REMARK    4  A    between atoms: C_8  and  C_9
REMARK    5  A    between atoms: C_13  and  N_14
REMARK                            x       y       z     vdW  Elec       q    Type
REMARK                         _______ _______ _______ _____ _____    ______ ____
ROOT
ATOM      1  C   UNL     1       1.670   7.100  20.388  0.00  0.00    +0.000 A 
ATOM      2  C   UNL     1       1.099   5.883  20.811  0.00  0.00    +0.000 A 
ATOM      3  C   UNL     1       1.597   4.649  20.401  0.00  0.00    +0.000 A 
ATOM      4  C   UNL     1       2.681   4.601  19.536  0.00  0.00    +0.000 A 
ATOM      5  C   UNL     1       3.287   5.774  19.083  0.00  0.00    +0.000 A 
ATOM      6  C   UNL     1       2.789   7.001  19.533  0.00  0.00    +0.000 A 
ENDROOT
BRANCH   5   7
ATOM      7  N   UNL     1       4.440   5.722  18.253  0.00  0.00    +0.000 N 
ATOM      8  C   UNL     1       4.645   6.820  17.258  0.00  0.00    +0.000 C 
ATOM      9  C   UNL     1       6.103   7.020  17.430  0.00  0.00    +0.000 C 
ATOM     10  C   UNL     1       7.315   7.596  17.315  0.00  0.00    +0.000 C 
ATOM     11  C   UNL     1       7.848   6.609  18.253  0.00  0.00    +0.000 C 
ATOM     12  C   UNL     1       6.657   6.039  18.247  0.00  0.00    +0.000 C 
ATOM     13  C   UNL     1       5.651   5.110  18.713  0.00  0.00    +0.000 C 
ATOM     14  O   UNL     1       5.781   4.114  19.405  0.00  0.00    +0.000 OA
ENDBRANCH   5   7
BRANCH   1  15
ATOM     15  C   UNL     1       1.040   8.530  20.775  0.00  0.00    +0.000 C 
ATOM     16  C   UNL     1      -0.321   8.520  21.535  0.00  0.00    +0.000 C 
ATOM     17  O   UNL     1       0.252   9.129  22.711  0.00  0.00    +0.000 OA
ATOM     18  C   UNL     1       1.567   9.115  22.128  0.00  0.00    +0.000 C 
BRANCH  15  19
ATOM     19  C   UNL     1       1.127   9.551  19.592  0.00  0.00    +0.000 C 
BRANCH  19  25
ATOM     20  C   UNL     1       0.243  12.348  21.051  0.00  0.00    +0.000 C 
ATOM     21  N   UNL     1      -0.411  11.604  20.005  0.00  0.00    +0.000 N 
ATOM     22  C   UNL     1      -1.604  12.001  19.472  0.00  0.00    +0.000 A 
ATOM     23  N   UNL     1      -1.983  11.140  18.562  0.00  0.00    +0.000 NA
ATOM     24  N   UNL     1      -1.036  10.153  18.496  0.00  0.00    +0.000 NA
ATOM     25  C   UNL     1      -0.066  10.431  19.351  0.00  0.00    +0.000 A 
ENDBRANCH  19  25
ENDBRANCH  15  19
ENDBRANCH   1  15
TORSDOF 4
ENDMDL
MODEL 4
REMARK VINA RESULT:      -8.3      2.425      3.947
REMARK  Name = 
REMARK  5 active torsions:
REMARK  status: ('A' for Active; 'I' for Inactive)
REMARK    1  A    between atoms: C_1  and  N_2
REMARK    2  A    between atoms: C_6  and  C_7
REMARK    3  A    between atoms: C_7  and  C_8
REMARK    4  A    between atoms: C_8  and  C_9
REMARK    5  A    between atoms: C_13  and  N_14
REMARK                            x       y       z     vdW  Elec       q    Type
REMARK                         _______ _______ _______ _____ _____    ______ ____
ROOT
ATOM      1  C   UNL     1       2.297   7.432  19.160  0.00  0.00    +0.000 A 
ATOM      2  C   UNL     1       1.895   7.249  20.498  0.00  0.00    +0.000 A 
ATOM      3  C   UNL     1       1.154   8.205  21.187  0.00  0.00    +0.000 A 
ATOM      4  C   UNL     1       0.805   9.389  20.553  0.00  0.00    +0.000 A 
ATOM      5  C   UNL     1       1.176   9.627  19.228  0.00  0.00    +0.000 A 
ATOM      6  C   UNL     1       1.894   8.639  18.547  0.00  0.00    +0.000 A 
ENDROOT
BRANCH   5   7
ATOM      7  N   UNL     1       0.758  10.809  18.559  0.00  0.00    +0.000 N 
ATOM      8  C   UNL     1      -0.656  11.263  18.741  0.00  0.00    +0.000 C 
ATOM      9  C   UNL     1      -0.416  12.719  18.879  0.00  0.00    +0.000 C 
ATOM     10  C   UNL     1      -0.670  14.015  19.141  0.00  0.00    +0.000 C 
ATOM     11  C   UNL     1       0.749  14.310  18.944  0.00  0.00    +0.000 C 
ATOM     12  C   UNL     1       0.909  13.043  18.607  0.00  0.00    +0.000 C 
ATOM     13  C   UNL     1       1.685  11.866  18.283  0.00  0.00    +0.000 C 
ATOM     14  O   UNL     1       2.858  11.779  17.956  0.00  0.00    +0.000 OA
ENDBRANCH   5   7
BRANCH   1  15
ATOM     15  C   UNL     1       3.239   6.379  18.388  0.00  0.00    +0.000 C 
ATOM     16  C   UNL     1       4.186   5.505  19.265  0.00  0.00    +0.000 C 
ATOM     17  O   UNL     1       3.526   4.281  18.880  0.00  0.00    +0.000 OA
ATOM     18  C   UNL     1       2.554   5.002  18.101  0.00  0.00    +0.000 C 
BRANCH  15  19
ATOM     19  C   UNL     1       3.906   7.006  17.120  0.00  0.00    +0.000 C 
BRANCH  19  25
ATOM     20  C   UNL     1       5.049   4.271  15.723  0.00  0.00    +0.000 C 
ATOM     21  N   UNL     1       5.759   5.419  16.228  0.00  0.00    +0.000 N 
ATOM     22  C   UNL     1       7.123   5.491  16.210  0.00  0.00    +0.000 A 
ATOM     23  N   UNL     1       7.508   6.622  16.745  0.00  0.00    +0.000 NA
ATOM     24  N   UNL     1       6.387   7.305  17.134  0.00  0.00    +0.000 NA
ATOM     25  C   UNL     1       5.318   6.598  16.810  0.00  0.00    +0.000 A 
ENDBRANCH  19  25
ENDBRANCH  15  19
ENDBRANCH   1  15
TORSDOF 4
ENDMDL
MODEL 5
REMARK VINA RESULT:      -8.3      3.187      7.943
REMARK  Name = 
REMARK  5 active torsions:
REMARK  status: ('A' for Active; 'I' for Inactive)
REMARK    1  A    between atoms: C_1  and  N_2
REMARK    2  A    between atoms: C_6  and  C_7
REMARK    3  A    between atoms: C_7  and  C_8
REMARK    4  A    between atoms: C_8  and  C_9
REMARK    5  A    between atoms: C_13  and  N_14
REMARK                            x       y       z     vdW  Elec       q    Type
REMARK                         _______ _______ _______ _____ _____    ______ ____
ROOT
ATOM      1  C   UNL     1       1.683   7.086  20.351  0.00  0.00    +0.000 A 
ATOM      2  C   UNL     1       1.107   5.873  20.777  0.00  0.00    +0.000 A 
ATOM      3  C   UNL     1       1.608   4.636  20.381  0.00  0.00    +0.000 A 
ATOM      4  C   UNL     1       2.700   4.580  19.527  0.00  0.00    +0.000 A 
ATOM      5  C   UNL     1       3.312   5.750  19.072  0.00  0.00    +0.000 A 
ATOM      6  C   UNL     1       2.810   6.981  19.508  0.00  0.00    +0.000 A 
ENDROOT
BRANCH   5   7
ATOM      7  N   UNL     1       4.473   5.691  18.255  0.00  0.00    +0.000 N 
ATOM      8  C   UNL     1       4.689   6.781  17.253  0.00  0.00    +0.000 C 
ATOM      9  C   UNL     1       6.145   6.981  17.438  0.00  0.00    +0.000 C 
ATOM     10  C   UNL     1       7.358   7.556  17.331  0.00  0.00    +0.000 C 
ATOM     11  C   UNL     1       7.882   6.576  18.282  0.00  0.00    +0.000 C 
ATOM     12  C   UNL     1       6.690   6.007  18.268  0.00  0.00    +0.000 C 
ATOM     13  C   UNL     1       5.679   5.082  18.731  0.00  0.00    +0.000 C 
ATOM     14  O   UNL     1       5.802   4.091  19.433  0.00  0.00    +0.000 OA
ENDBRANCH   5   7
BRANCH   1  15
ATOM     15  C   UNL     1       1.051   8.520  20.721  0.00  0.00    +0.000 C 
ATOM     16  C   UNL     1      -0.336   8.517  21.434  0.00  0.00    +0.000 C 
ATOM     17  O   UNL     1       0.200   9.118  22.631  0.00  0.00    +0.000 OA
ATOM     18  C   UNL     1       1.535   9.096  22.093  0.00  0.00    +0.000 C 
BRANCH  15  19
ATOM     19  C   UNL     1       1.186   9.544  19.546  0.00  0.00    +0.000 C 
BRANCH  19  25
ATOM     20  C   UNL     1      -1.489  10.064  17.728  0.00  0.00    +0.000 C 
ATOM     21  N   UNL     1      -0.878  10.896  18.733  0.00  0.00    +0.000 N 
ATOM     22  C   UNL     1      -1.374  12.128  19.052  0.00  0.00    +0.000 A 
ATOM     23  N   UNL     1      -0.623  12.676  19.973  0.00  0.00    +0.000 NA
ATOM     24  N   UNL     1       0.391  11.802  20.263  0.00  0.00    +0.000 NA
ATOM     25  C   UNL     1       0.239  10.710  19.534  0.00  0.00    +0.000 A 
ENDBRANCH  19  25
ENDBRANCH  15  19
ENDBRANCH   1  15
TORSDOF 4
ENDMDL
MODEL 6
REMARK VINA RESULT:      -8.3      3.480      4.442
REMARK  Name = 
REMARK  5 active torsions:
REMARK  status: ('A' for Active; 'I' for Inactive)
REMARK    1  A    between atoms: C_1  and  N_2
REMARK    2  A    between atoms: C_6  and  C_7
REMARK    3  A    between atoms: C_7  and  C_8
REMARK    4  A    between atoms: C_8  and  C_9
REMARK    5  A    between atoms: C_13  and  N_14
REMARK                            x       y       z     vdW  Elec       q    Type
REMARK                         _______ _______ _______ _____ _____    ______ ____
ROOT
ATOM      1  C   UNL     1       3.000   6.389  19.011  0.00  0.00    +0.000 A 
ATOM      2  C   UNL     1       2.515   5.763  20.176  0.00  0.00    +0.000 A 
ATOM      3  C   UNL     1       1.611   6.388  21.032  0.00  0.00    +0.000 A 
ATOM      4  C   UNL     1       1.176   7.674  20.748  0.00  0.00    +0.000 A 
ATOM      5  C   UNL     1       1.623   8.345  19.608  0.00  0.00    +0.000 A 
ATOM      6  C   UNL     1       2.507   7.685  18.747  0.00  0.00    +0.000 A 
ENDROOT
BRANCH   5   7
ATOM      7  N   UNL     1       1.123   9.634  19.281  0.00  0.00    +0.000 N 
ATOM      8  C   UNL     1       0.377   9.799  17.995  0.00  0.00    +0.000 C 
ATOM      9  C   UNL     1      -0.715  10.681  18.471  0.00  0.00    +0.000 C 
ATOM     10  C   UNL     1      -1.877  11.361  18.458  0.00  0.00    +0.000 C 
ATOM     11  C   UNL     1      -1.661  11.713  19.861  0.00  0.00    +0.000 C 
ATOM     12  C   UNL     1      -0.490  11.107  19.776  0.00  0.00    +0.000 C 
ATOM     13  C   UNL     1       0.737  10.556  20.308  0.00  0.00    +0.000 C 
ATOM     14  O   UNL     1       1.262  10.745  21.393  0.00  0.00    +0.000 OA
ENDBRANCH   5   7
BRANCH   1  15
ATOM     15  C   UNL     1       4.121   5.717  18.071  0.00  0.00    +0.000 C 
ATOM     16  C   UNL     1       5.056   6.686  17.285  0.00  0.00    +0.000 C 
ATOM     17  O   UNL     1       6.232   6.230  17.986  0.00  0.00    +0.000 OA
ATOM     18  C   UNL     1       5.448   5.356  18.818  0.00  0.00    +0.000 C 
BRANCH  15  19
ATOM     19  C   UNL     1       3.549   4.527  17.232  0.00  0.00    +0.000 C 
BRANCH  19  25
ATOM     20  C   UNL     1       4.090   2.174  19.447  0.00  0.00    +0.000 C 
ATOM     21  N   UNL     1       2.857   2.607  18.840  0.00  0.00    +0.000 N 
ATOM     22  C   UNL     1       1.662   2.008  19.122  0.00  0.00    +0.000 A 
ATOM     23  N   UNL     1       0.713   2.577  18.423  0.00  0.00    +0.000 NA
ATOM     24  N   UNL     1       1.284   3.558  17.659  0.00  0.00    +0.000 NA
ATOM     25  C   UNL     1       2.581   3.603  17.915  0.00  0.00    +0.000 A 
ENDBRANCH  19  25
ENDBRANCH  15  19
ENDBRANCH   1  15
TORSDOF 4
ENDMDL
MODEL 7
REMARK VINA RESULT:      -8.3      4.467      8.486
REMARK  Name = 
REMARK  5 active torsions:
REMARK  status: ('A' for Active; 'I' for Inactive)
REMARK    1  A    between atoms: C_1  and  N_2
REMARK    2  A    between atoms: C_6  and  C_7
REMARK    3  A    between atoms: C_7  and  C_8
REMARK    4  A    between atoms: C_8  and  C_9
REMARK    5  A    between atoms: C_13  and  N_14
REMARK                            x       y       z     vdW  Elec       q    Type
REMARK                         _______ _______ _______ _____ _____    ______ ____
ROOT
ATOM      1  C   UNL     1       1.249   9.321  19.188  0.00  0.00    +0.000 A 
ATOM      2  C   UNL     1       1.832   9.428  17.911  0.00  0.00    +0.000 A 
ATOM      3  C   UNL     1       2.638   8.425  17.377  0.00  0.00    +0.000 A 
ATOM      4  C   UNL     1       2.896   7.284  18.123  0.00  0.00    +0.000 A 
ATOM      5  C   UNL     1       2.346   7.123  19.397  0.00  0.00    +0.000 A 
ATOM      6  C   UNL     1       1.515   8.130  19.899  0.00  0.00    +0.000 A 
ENDROOT
BRANCH   5   7
ATOM      7  N   UNL     1       2.554   5.925  20.131  0.00  0.00    +0.000 N 
ATOM      8  C   UNL     1       1.360   5.230  20.705  0.00  0.00    +0.000 C 
ATOM      9  C   UNL     1       1.733   3.830  20.394  0.00  0.00    +0.000 C 
ATOM     10  C   UNL     1       1.604   2.498  20.247  0.00  0.00    +0.000 C 
ATOM     11  C   UNL     1       2.938   2.457  19.649  0.00  0.00    +0.000 C 
ATOM     12  C   UNL     1       3.034   3.748  19.908  0.00  0.00    +0.000 C 
ATOM     13  C   UNL     1       3.650   5.054  19.825  0.00  0.00    +0.000 C 
ATOM     14  O   UNL     1       4.784   5.354  19.485  0.00  0.00    +0.000 OA
ENDBRANCH   5   7
BRANCH   1  15
ATOM     15  C   UNL     1       0.401  10.517  19.854  0.00  0.00    +0.000 C 
ATOM     16  C   UNL     1      -0.493  10.150  21.078  0.00  0.00    +0.000 C 
ATOM     17  O   UNL     1       0.261  10.996  21.971  0.00  0.00    +0.000 OA
ATOM     18  C   UNL     1       1.190  11.339  20.927  0.00  0.00    +0.000 C 
BRANCH  15  19
ATOM     19  C   UNL     1      -0.290  11.419  18.779  0.00  0.00    +0.000 C 
BRANCH  19  25
ATOM     20  C   UNL     1      -3.350  12.310  19.540  0.00  0.00    +0.000 C 
ATOM     21  N   UNL     1      -2.879  11.340  18.583  0.00  0.00    +0.000 N 
ATOM     22  C   UNL     1      -3.738  10.586  17.835  0.00  0.00    +0.000 A 
ATOM     23  N   UNL     1      -3.054   9.776  17.068  0.00  0.00    +0.000 NA
ATOM     24  N   UNL     1      -1.724   9.984  17.318  0.00  0.00    +0.000 NA
ATOM     25  C   UNL     1      -1.601  10.944  18.219  0.00  0.00    +0.000 A 
ENDBRANCH  19  25
ENDBRANCH  15  19
ENDBRANCH   1  15
TORSDOF 4
ENDMDL
MODEL 8
REMARK VINA RESULT:      -8.2      3.609      5.221
REMARK  Name = 
REMARK  5 active torsions:
REMARK  status: ('A' for Active; 'I' for Inactive)
REMARK    1  A    between atoms: C_1  and  N_2
REMARK    2  A    between atoms: C_6  and  C_7
REMARK    3  A    between atoms: C_7  and  C_8
REMARK    4  A    between atoms: C_8  and  C_9
REMARK    5  A    between atoms: C_13  and  N_14
REMARK                            x       y       z     vdW  Elec       q    Type
REMARK                         _______ _______ _______ _____ _____    ______ ____
ROOT
ATOM      1  C   UNL     1       2.127   7.482  19.177  0.00  0.00    +0.000 A 
ATOM      2  C   UNL     1       1.823   7.350  20.546  0.00  0.00    +0.000 A 
ATOM      3  C   UNL     1       1.194   8.362  21.266  0.00  0.00    +0.000 A 
ATOM      4  C   UNL     1       0.863   9.551  20.633  0.00  0.00    +0.000 A 
ATOM      5  C   UNL     1       1.141   9.739  19.277  0.00  0.00    +0.000 A 
ATOM      6  C   UNL     1       1.746   8.697  18.567  0.00  0.00    +0.000 A 
ENDROOT
BRANCH   5   7
ATOM      7  N   UNL     1       0.740  10.930  18.613  0.00  0.00    +0.000 N 
ATOM      8  C   UNL     1      -0.656  11.423  18.828  0.00  0.00    +0.000 C 
ATOM      9  C   UNL     1      -0.373  12.873  18.953  0.00  0.00    +0.000 C 
ATOM     10  C   UNL     1      -0.584  14.176  19.215  0.00  0.00    +0.000 C 
ATOM     11  C   UNL     1       0.836  14.431  18.982  0.00  0.00    +0.000 C 
ATOM     12  C   UNL     1       0.953  13.159  18.647  0.00  0.00    +0.000 C 
ATOM     13  C   UNL     1       1.688  11.960  18.309  0.00  0.00    +0.000 C 
ATOM     14  O   UNL     1       2.850  11.840  17.953  0.00  0.00    +0.000 OA
ENDBRANCH   5   7
BRANCH   1  15
ATOM     15  C   UNL     1       2.944   6.360  18.360  0.00  0.00    +0.000 C 
ATOM     16  C   UNL     1       4.086   6.861  17.424  0.00  0.00    +0.000 C 
ATOM     17  O   UNL     1       5.105   6.185  18.190  0.00  0.00    +0.000 OA
ATOM     18  C   UNL     1       4.137   5.734  19.156  0.00  0.00    +0.000 C 
BRANCH  15  19
ATOM     19  C   UNL     1       1.998   5.285  17.731  0.00  0.00    +0.000 C 
BRANCH  19  25
ATOM     20  C   UNL     1       1.028   3.673  20.413  0.00  0.00    +0.000 C 
ATOM     21  N   UNL     1       1.801   3.214  19.287  0.00  0.00    +0.000 N 
ATOM     22  C   UNL     1       2.291   1.941  19.216  0.00  0.00    +0.000 A 
ATOM     23  N   UNL     1       2.970   1.795  18.107  0.00  0.00    +0.000 NA
ATOM     24  N   UNL     1       2.941   2.989  17.437  0.00  0.00    +0.000 NA
ATOM     25  C   UNL     1       2.219   3.853  18.129  0.00  0.00    +0.000 A 
ENDBRANCH  19  25
ENDBRANCH  15  19
ENDBRANCH   1  15
TORSDOF 4
ENDMDL
MODEL 9
REMARK VINA RESULT:      -8.2      2.295      3.823
REMARK  Name = 
REMARK  5 active torsions:
REMARK  status: ('A' for Active; 'I' for Inactive)
REMARK    1  A    between atoms: C_1  and  N_2
REMARK    2  A    between atoms: C_6  and  C_7
REMARK    3  A    between atoms: C_7  and  C_8
REMARK    4  A    between atoms: C_8  and  C_9
REMARK    5  A    between atoms: C_13  and  N_14
REMARK                            x       y       z     vdW  Elec       q    Type
REMARK                         _______ _______ _______ _____ _____    ______ ____
ROOT
ATOM      1  C   UNL     1       5.413   6.278  17.994  0.00  0.00    +0.000 A 
ATOM      2  C   UNL     1       4.913   7.377  17.270  0.00  0.00    +0.000 A 
ATOM      3  C   UNL     1       3.548   7.623  17.144  0.00  0.00    +0.000 A 
ATOM      4  C   UNL     1       2.639   6.756  17.733  0.00  0.00    +0.000 A 
ATOM      5  C   UNL     1       3.076   5.649  18.463  0.00  0.00    +0.000 A 
ATOM      6  C   UNL     1       4.453   5.440  18.602  0.00  0.00    +0.000 A 
ENDROOT
BRANCH   5   7
ATOM      7  N   UNL     1       2.147   4.802  19.124  0.00  0.00    +0.000 N 
ATOM      8  C   UNL     1       2.149   3.346  18.782  0.00  0.00    +0.000 C 
ATOM      9  C   UNL     1       1.984   2.787  20.144  0.00  0.00    +0.000 C 
ATOM     10  C   UNL     1       1.948   1.872  21.132  0.00  0.00    +0.000 C 
ATOM     11  C   UNL     1       1.770   2.954  22.099  0.00  0.00    +0.000 C 
ATOM     12  C   UNL     1       1.723   3.787  21.075  0.00  0.00    +0.000 C 
ATOM     13  C   UNL     1       1.702   5.093  20.455  0.00  0.00    +0.000 C 
ATOM     14  O   UNL     1       1.466   6.182  20.954  0.00  0.00    +0.000 OA
ENDBRANCH   5   7
BRANCH   1  15
ATOM     15  C   UNL     1       6.984   5.929  18.061  0.00  0.00    +0.000 C 
ATOM     16  C   UNL     1       7.978   7.122  17.919  0.00  0.00    +0.000 C 
ATOM     17  O   UNL     1       8.495   6.940  19.254  0.00  0.00    +0.000 OA
ATOM     18  C   UNL     1       7.564   5.874  19.514  0.00  0.00    +0.000 C 
BRANCH  15  19
ATOM     19  C   UNL     1       7.343   4.666  17.211  0.00  0.00    +0.000 C 
BRANCH  19  25
ATOM     20  C   UNL     1       4.760   3.363  15.673  0.00  0.00    +0.000 C 
ATOM     21  N   UNL     1       5.875   4.108  15.142  0.00  0.00    +0.000 N 
ATOM     22  C   UNL     1       6.010   4.351  13.805  0.00  0.00    +0.000 A 
ATOM     23  N   UNL     1       7.113   5.023  13.594  0.00  0.00    +0.000 NA
ATOM     24  N   UNL     1       7.724   5.220  14.803  0.00  0.00    +0.000 NA
ATOM     25  C   UNL     1       6.975   4.688  15.754  0.00  0.00    +0.000 A 
ENDBRANCH  19  25
ENDBRANCH  15  19
ENDBRANCH   1  15
TORSDOF 4
ENDMDL
