MODEL 1
REMARK VINA RESULT:      -8.9      0.000      0.000
REMARK  Name = 
REMARK  6 active torsions:
REMARK  status: ('A' for Active; 'I' for Inactive)
REMARK    1  A    between atoms: C_2  and  C_3
REMARK    2  A    between atoms: C_3  and  C_4
REMARK    3  A    between atoms: N_10  and  C_11
REMARK    4  A    between atoms: C_11  and  C_12
REMARK    5  A    between atoms: N_14  and  C_15
REMARK    6  A    between atoms: C_22  and  C_23
REMARK                            x       y       z     vdW  Elec       q    Type
REMARK                         _______ _______ _______ _____ _____    ______ ____
ROOT
ATOM      1  C   UNL     1       6.239   4.893  17.500  0.00  0.00    +0.000 A 
ATOM      2  C   UNL     1       5.316   4.720  18.517  0.00  0.00    +0.000 A 
ATOM      3  N   UNL     1       4.198   4.139  17.972  0.00  0.00    +0.000 N 
ATOM      4  N   UNL     1       4.384   3.869  16.664  0.00  0.00    +0.000 NA
ATOM      5  C   UNL     1       5.576   4.390  16.337  0.00  0.00    +0.000 A 
ENDROOT
BRANCH   5   6
ATOM      6  C   UNL     1       5.985   4.381  14.925  0.00  0.00    +0.000 A 
ATOM      7  C   UNL     1       5.323   3.594  13.972  0.00  0.00    +0.000 A 
ATOM      8  C   UNL     1       5.807   3.500  12.664  0.00  0.00    +0.000 A 
ATOM      9  C   UNL     1       6.956   4.190  12.303  0.00  0.00    +0.000 A 
ATOM     10  F   UNL     1       7.437   4.066  11.059  0.00  0.00    +0.000 F 
ATOM     11  C   UNL     1       7.622   4.991  13.219  0.00  0.00    +0.000 A 
ATOM     12  C   UNL     1       7.137   5.087  14.525  0.00  0.00    +0.000 A 
ENDBRANCH   5   6
BRANCH   3  13
ATOM     13  C   UNL     1       2.963   3.833  18.607  0.00  0.00    +0.000 A 
ATOM     14  C   UNL     1       2.096   2.865  18.081  0.00  0.00    +0.000 A 
ATOM     15  C   UNL     1       0.904   2.561  18.745  0.00  0.00    +0.000 A 
ATOM     16  C   UNL     1       0.568   3.221  19.926  0.00  0.00    +0.000 A 
ATOM     17  C   UNL     1       1.420   4.189  20.451  0.00  0.00    +0.000 A 
ATOM     18  C   UNL     1       2.616   4.494  19.796  0.00  0.00    +0.000 A 
ENDBRANCH   3  13
BRANCH   1  19
ATOM     19  C   UNL     1       7.599   5.478  17.655  0.00  0.00    +0.000 C 
BRANCH  19  22
ATOM     20  O   UNL     1       8.807   7.457  19.258  0.00  0.00    +0.000 OA
ATOM     21  C   UNL     1       8.146   7.796  18.279  0.00  0.00    +0.000 C 
ATOM     22  N   UNL     1       7.506   6.901  17.452  0.00  0.00    +0.000 N 
ATOM     23  H   UNL     1       7.189   7.225  16.547  0.00  0.00    +0.000 HD
BRANCH  21  24
ATOM     24  C   UNL     1       7.953   9.250  17.884  0.00  0.00    +0.000 C 
BRANCH  24  25
ATOM     25  C   UNL     1       8.991  10.170  18.466  0.00  0.00    +0.000 A 
ATOM     26  C   UNL     1       9.891  10.867  17.656  0.00  0.00    +0.000 A 
ATOM     27  C   UNL     1      10.824  11.724  18.236  0.00  0.00    +0.000 A 
ATOM     28  C   UNL     1      10.824  11.859  19.614  0.00  0.00    +0.000 A 
ATOM     29  N   UNL     1       9.965  11.210  20.428  0.00  0.00    +0.000 NA
ATOM     30  C   UNL     1       9.069  10.385  19.839  0.00  0.00    +0.000 A 
ENDBRANCH  24  25
ENDBRANCH  21  24
ENDBRANCH  19  22
ENDBRANCH   1  19
TORSDOF 6
ENDMDL
MODEL 2
REMARK VINA RESULT:      -8.9      4.709      7.604
REMARK  Name = 
REMARK  6 active torsions:
REMARK  status: ('A' for Active; 'I' for Inactive)
REMARK    1  A    between atoms: C_2  and  C_3
REMARK    2  A    between atoms: C_3  and  C_4
REMARK    3  A    between atoms: N_10  and  C_11
REMARK    4  A    between atoms: C_11  and  C_12
REMARK    5  A    between atoms: N_14  and  C_15
REMARK    6  A    between atoms: C_22  and  C_23
REMARK                            x       y       z     vdW  Elec       q    Type
REMARK                         _______ _______ _______ _____ _____    ______ ____
ROOT
ATOM      1  C   UNL     1       4.441   6.189  17.206  0.00  0.00    +0.000 A 
ATOM      2  C   UNL     1       5.175   6.261  16.035  0.00  0.00    +0.000 A 
ATOM      3  N   UNL     1       5.150   5.018  15.451  0.00  0.00    +0.000 N 
ATOM      4  N   UNL     1       4.379   4.167  16.158  0.00  0.00    +0.000 NA
ATOM      5  C   UNL     1       4.007   4.827  17.265  0.00  0.00    +0.000 A 
ENDROOT
BRANCH   5   6
ATOM      6  C   UNL     1       3.275   4.096  18.309  0.00  0.00    +0.000 A 
ATOM      7  C   UNL     1       1.892   4.249  18.482  0.00  0.00    +0.000 A 
ATOM      8  C   UNL     1       1.238   3.645  19.560  0.00  0.00    +0.000 A 
ATOM      9  C   UNL     1       1.961   2.889  20.470  0.00  0.00    +0.000 A 
ATOM     10  F   UNL     1       1.335   2.345  21.523  0.00  0.00    +0.000 F 
ATOM     11  C   UNL     1       3.327   2.705  20.315  0.00  0.00    +0.000 A 
ATOM     12  C   UNL     1       3.982   3.305  19.236  0.00  0.00    +0.000 A 
ENDBRANCH   5   6
BRANCH   3  13
ATOM     13  C   UNL     1       5.818   4.582  14.273  0.00  0.00    +0.000 A 
ATOM     14  C   UNL     1       5.218   3.670  13.394  0.00  0.00    +0.000 A 
ATOM     15  C   UNL     1       5.885   3.285  12.226  0.00  0.00    +0.000 A 
ATOM     16  C   UNL     1       7.147   3.798  11.934  0.00  0.00    +0.000 A 
ATOM     17  C   UNL     1       7.753   4.699  12.807  0.00  0.00    +0.000 A 
ATOM     18  C   UNL     1       7.091   5.092  13.972  0.00  0.00    +0.000 A 
ENDBRANCH   3  13
BRANCH   1  19
ATOM     19  C   UNL     1       4.198   7.318  18.146  0.00  0.00    +0.000 C 
BRANCH  19  22
ATOM     20  O   UNL     1       1.943   8.036  19.677  0.00  0.00    +0.000 OA
ATOM     21  C   UNL     1       2.008   8.386  18.500  0.00  0.00    +0.000 C 
ATOM     22  N   UNL     1       3.060   8.065  17.673  0.00  0.00    +0.000 N 
ATOM     23  H   UNL     1       3.164   8.578  16.807  0.00  0.00    +0.000 HD
BRANCH  21  24
ATOM     24  C   UNL     1       0.919   9.203  17.827  0.00  0.00    +0.000 C 
BRANCH  24  25
ATOM     25  C   UNL     1       0.401  10.327  18.682  0.00  0.00    +0.000 A 
ATOM     26  C   UNL     1      -0.955  10.439  19.004  0.00  0.00    +0.000 A 
ATOM     27  C   UNL     1      -1.389  11.485  19.815  0.00  0.00    +0.000 A 
ATOM     28  C   UNL     1      -0.448  12.388  20.282  0.00  0.00    +0.000 A 
ATOM     29  N   UNL     1       0.869  12.307  20.000  0.00  0.00    +0.000 NA
ATOM     30  C   UNL     1       1.264  11.282  19.211  0.00  0.00    +0.000 A 
ENDBRANCH  24  25
ENDBRANCH  21  24
ENDBRANCH  19  22
ENDBRANCH   1  19
TORSDOF 6
ENDMDL
MODEL 3
REMARK VINA RESULT:      -8.7      4.633      7.393
REMARK  Name = 
REMARK  6 active torsions:
REMARK  status: ('A' for Active; 'I' for Inactive)
REMARK    1  A    between atoms: C_2  and  C_3
REMARK    2  A    between atoms: C_3  and  C_4
REMARK    3  A    between atoms: N_10  and  C_11
REMARK    4  A    between atoms: C_11  and  C_12
REMARK    5  A    between atoms: N_14  and  C_15
REMARK    6  A    between atoms: C_22  and  C_23
REMARK                            x       y       z     vdW  Elec       q    Type
REMARK                         _______ _______ _______ _____ _____    ______ ____
ROOT
ATOM      1  C   UNL     1       4.560   6.049  17.176  0.00  0.00    +0.000 A 
ATOM      2  C   UNL     1       5.268   6.148  15.991  0.00  0.00    +0.000 A 
ATOM      3  N   UNL     1       5.193   4.932  15.357  0.00  0.00    +0.000 N 
ATOM      4  N   UNL     1       4.414   4.075  16.048  0.00  0.00    +0.000 NA
ATOM      5  C   UNL     1       4.088   4.698  17.190  0.00  0.00    +0.000 A 
ENDROOT
BRANCH   5   6
ATOM      6  C   UNL     1       3.360   3.945  18.220  0.00  0.00    +0.000 A 
ATOM      7  C   UNL     1       1.959   3.952  18.285  0.00  0.00    +0.000 A 
ATOM      8  C   UNL     1       1.291   3.336  19.347  0.00  0.00    +0.000 A 
ATOM      9  C   UNL     1       2.019   2.712  20.351  0.00  0.00    +0.000 A 
ATOM     10  F   UNL     1       1.375   2.158  21.387  0.00  0.00    +0.000 F 
ATOM     11  C   UNL     1       3.405   2.674  20.305  0.00  0.00    +0.000 A 
ATOM     12  C   UNL     1       4.073   3.287  19.242  0.00  0.00    +0.000 A 
ENDBRANCH   5   6
BRANCH   3  13
ATOM     13  C   UNL     1       5.820   4.527  14.146  0.00  0.00    +0.000 A 
ATOM     14  C   UNL     1       7.080   5.021  13.781  0.00  0.00    +0.000 A 
ATOM     15  C   UNL     1       7.687   4.580  12.601  0.00  0.00    +0.000 A 
ATOM     16  C   UNL     1       7.043   3.655  11.781  0.00  0.00    +0.000 A 
ATOM     17  C   UNL     1       5.788   3.166  12.133  0.00  0.00    +0.000 A 
ATOM     18  C   UNL     1       5.177   3.598  13.313  0.00  0.00    +0.000 A 
ENDBRANCH   3  13
BRANCH   1  19
ATOM     19  C   UNL     1       4.372   7.144  18.167  0.00  0.00    +0.000 C 
BRANCH  19  22
ATOM     20  O   UNL     1       1.988   7.662  19.579  0.00  0.00    +0.000 OA
ATOM     21  C   UNL     1       2.168   8.192  18.484  0.00  0.00    +0.000 C 
ATOM     22  N   UNL     1       3.291   7.982  17.717  0.00  0.00    +0.000 N 
ATOM     23  H   UNL     1       3.481   8.624  16.958  0.00  0.00    +0.000 HD
BRANCH  21  24
ATOM     24  C   UNL     1       1.154   9.131  17.853  0.00  0.00    +0.000 C 
BRANCH  24  25
ATOM     25  C   UNL     1       0.907  10.375  18.662  0.00  0.00    +0.000 A 
ATOM     26  C   UNL     1       1.722  11.504  18.540  0.00  0.00    +0.000 A 
ATOM     27  C   UNL     1       1.446  12.642  19.295  0.00  0.00    +0.000 A 
ATOM     28  C   UNL     1       0.356  12.614  20.148  0.00  0.00    +0.000 A 
ATOM     29  N   UNL     1      -0.458  11.548  20.286  0.00  0.00    +0.000 NA
ATOM     30  C   UNL     1      -0.168  10.456  19.541  0.00  0.00    +0.000 A 
ENDBRANCH  24  25
ENDBRANCH  21  24
ENDBRANCH  19  22
ENDBRANCH   1  19
TORSDOF 6
ENDMDL
MODEL 4
REMARK VINA RESULT:      -8.7      4.018      6.888
REMARK  Name = 
REMARK  6 active torsions:
REMARK  status: ('A' for Active; 'I' for Inactive)
REMARK    1  A    between atoms: C_2  and  C_3
REMARK    2  A    between atoms: C_3  and  C_4
REMARK    3  A    between atoms: N_10  and  C_11
REMARK    4  A    between atoms: C_11  and  C_12
REMARK    5  A    between atoms: N_14  and  C_15
REMARK    6  A    between atoms: C_22  and  C_23
REMARK                            x       y       z     vdW  Elec       q    Type
REMARK                         _______ _______ _______ _____ _____    ______ ____
ROOT
ATOM      1  C   UNL     1       3.748   7.410  17.813  0.00  0.00    +0.000 A 
ATOM      2  C   UNL     1       3.074   8.614  17.925  0.00  0.00    +0.000 A 
ATOM      3  N   UNL     1       1.890   8.369  18.575  0.00  0.00    +0.000 N 
ATOM      4  N   UNL     1       1.800   7.075  18.945  0.00  0.00    +0.000 NA
ATOM      5  C   UNL     1       2.871   6.459  18.423  0.00  0.00    +0.000 A 
ENDROOT
BRANCH   5   6
ATOM      6  C   UNL     1       2.967   4.997  18.536  0.00  0.00    +0.000 A 
ATOM      7  C   UNL     1       3.822   4.384  19.464  0.00  0.00    +0.000 A 
ATOM      8  C   UNL     1       3.994   2.997  19.467  0.00  0.00    +0.000 A 
ATOM      9  C   UNL     1       3.317   2.216  18.542  0.00  0.00    +0.000 A 
ATOM     10  F   UNL     1       3.516   0.891  18.524  0.00  0.00    +0.000 F 
ATOM     11  C   UNL     1       2.451   2.791  17.623  0.00  0.00    +0.000 A 
ATOM     12  C   UNL     1       2.275   4.177  17.622  0.00  0.00    +0.000 A 
ENDBRANCH   5   6
BRANCH   3  13
ATOM     13  C   UNL     1       0.834   9.278  18.859  0.00  0.00    +0.000 A 
ATOM     14  C   UNL     1      -0.098   9.638  17.875  0.00  0.00    +0.000 A 
ATOM     15  C   UNL     1      -1.146  10.509  18.191  0.00  0.00    +0.000 A 
ATOM     16  C   UNL     1      -1.266  11.028  19.479  0.00  0.00    +0.000 A 
ATOM     17  C   UNL     1      -0.339  10.682  20.459  0.00  0.00    +0.000 A 
ATOM     18  C   UNL     1       0.707   9.808  20.153  0.00  0.00    +0.000 A 
ENDBRANCH   3  13
BRANCH   1  19
ATOM     19  C   UNL     1       5.085   7.222  17.184  0.00  0.00    +0.000 C 
BRANCH  19  22
ATOM     20  O   UNL     1       6.662   4.903  17.469  0.00  0.00    +0.000 OA
ATOM     21  C   UNL     1       5.828   4.958  16.567  0.00  0.00    +0.000 C 
ATOM     22  N   UNL     1       5.029   6.055  16.342  0.00  0.00    +0.000 N 
ATOM     23  H   UNL     1       4.215   5.943  15.750  0.00  0.00    +0.000 HD
BRANCH  21  24
ATOM     24  C   UNL     1       5.601   3.816  15.591  0.00  0.00    +0.000 C 
BRANCH  24  25
ATOM     25  C   UNL     1       6.234   4.046  14.246  0.00  0.00    +0.000 A 
ATOM     26  C   UNL     1       5.829   3.333  13.114  0.00  0.00    +0.000 A 
ATOM     27  C   UNL     1       6.428   3.591  11.883  0.00  0.00    +0.000 A 
ATOM     28  C   UNL     1       7.415   4.561  11.824  0.00  0.00    +0.000 A 
ATOM     29  N   UNL     1       7.825   5.275  12.892  0.00  0.00    +0.000 NA
ATOM     30  C   UNL     1       7.227   5.005  14.075  0.00  0.00    +0.000 A 
ENDBRANCH  24  25
ENDBRANCH  21  24
ENDBRANCH  19  22
ENDBRANCH   1  19
TORSDOF 6
ENDMDL
MODEL 5
REMARK VINA RESULT:      -8.7      0.562      1.279
REMARK  Name = 
REMARK  6 active torsions:
REMARK  status: ('A' for Active; 'I' for Inactive)
REMARK    1  A    between atoms: C_2  and  C_3
REMARK    2  A    between atoms: C_3  and  C_4
REMARK    3  A    between atoms: N_10  and  C_11
REMARK    4  A    between atoms: C_11  and  C_12
REMARK    5  A    between atoms: N_14  and  C_15
REMARK    6  A    between atoms: C_22  and  C_23
REMARK                            x       y       z     vdW  Elec       q    Type
REMARK                         _______ _______ _______ _____ _____    ______ ____
ROOT
ATOM      1  C   UNL     1       6.302   4.941  17.713  0.00  0.00    +0.000 A 
ATOM      2  C   UNL     1       5.335   4.803  18.694  0.00  0.00    +0.000 A 
ATOM      3  N   UNL     1       4.255   4.171  18.127  0.00  0.00    +0.000 N 
ATOM      4  N   UNL     1       4.507   3.838  16.846  0.00  0.00    +0.000 NA
ATOM      5  C   UNL     1       5.704   4.365  16.548  0.00  0.00    +0.000 A 
ENDROOT
BRANCH   5   6
ATOM      6  C   UNL     1       6.181   4.292  15.160  0.00  0.00    +0.000 A 
ATOM      7  C   UNL     1       7.301   5.016  14.726  0.00  0.00    +0.000 A 
ATOM      8  C   UNL     1       7.660   5.034  13.375  0.00  0.00    +0.000 A 
ATOM      9  C   UNL     1       6.901   4.330  12.451  0.00  0.00    +0.000 A 
ATOM     10  F   UNL     1       7.226   4.383  11.152  0.00  0.00    +0.000 F 
ATOM     11  C   UNL     1       5.798   3.590  12.852  0.00  0.00    +0.000 A 
ATOM     12  C   UNL     1       5.441   3.569  14.202  0.00  0.00    +0.000 A 
ENDBRANCH   5   6
BRANCH   3  13
ATOM     13  C   UNL     1       2.997   3.874  18.719  0.00  0.00    +0.000 A 
ATOM     14  C   UNL     1       2.148   2.901  18.171  0.00  0.00    +0.000 A 
ATOM     15  C   UNL     1       0.931   2.606  18.794  0.00  0.00    +0.000 A 
ATOM     16  C   UNL     1       0.552   3.278  19.955  0.00  0.00    +0.000 A 
ATOM     17  C   UNL     1       1.386   4.251  20.500  0.00  0.00    +0.000 A 
ATOM     18  C   UNL     1       2.606   4.548  19.887  0.00  0.00    +0.000 A 
ENDBRANCH   3  13
BRANCH   1  19
ATOM     19  C   UNL     1       7.643   5.561  17.900  0.00  0.00    +0.000 C 
BRANCH  19  22
ATOM     20  O   UNL     1       8.945   7.617  19.323  0.00  0.00    +0.000 OA
ATOM     21  C   UNL     1       8.219   7.907  18.374  0.00  0.00    +0.000 C 
ATOM     22  N   UNL     1       7.530   6.972  17.635  0.00  0.00    +0.000 N 
ATOM     23  H   UNL     1       7.153   7.252  16.738  0.00  0.00    +0.000 HD
BRANCH  21  24
ATOM     24  C   UNL     1       7.995   9.340  17.923  0.00  0.00    +0.000 C 
BRANCH  24  25
ATOM     25  C   UNL     1       8.986  10.311  18.502  0.00  0.00    +0.000 A 
ATOM     26  C   UNL     1       9.073  10.538  19.879  0.00  0.00    +0.000 A 
ATOM     27  C   UNL     1      10.020  11.432  20.375  0.00  0.00    +0.000 A 
ATOM     28  C   UNL     1      10.854  12.070  19.474  0.00  0.00    +0.000 A 
ATOM     29  N   UNL     1      10.806  11.871  18.140  0.00  0.00    +0.000 NA
ATOM     30  C   UNL     1       9.879  10.998  17.685  0.00  0.00    +0.000 A 
ENDBRANCH  24  25
ENDBRANCH  21  24
ENDBRANCH  19  22
ENDBRANCH   1  19
TORSDOF 6
ENDMDL
MODEL 6
REMARK VINA RESULT:      -8.7      4.700      7.835
REMARK  Name = 
REMARK  6 active torsions:
REMARK  status: ('A' for Active; 'I' for Inactive)
REMARK    1  A    between atoms: C_2  and  C_3
REMARK    2  A    between atoms: C_3  and  C_4
REMARK    3  A    between atoms: N_10  and  C_11
REMARK    4  A    between atoms: C_11  and  C_12
REMARK    5  A    between atoms: N_14  and  C_15
REMARK    6  A    between atoms: C_22  and  C_23
REMARK                            x       y       z     vdW  Elec       q    Type
REMARK                         _______ _______ _______ _____ _____    ______ ____
ROOT
ATOM      1  C   UNL     1       4.184   6.266  17.326  0.00  0.00    +0.000 A 
ATOM      2  C   UNL     1       4.946   6.357  16.174  0.00  0.00    +0.000 A 
ATOM      3  N   UNL     1       5.006   5.105  15.614  0.00  0.00    +0.000 N 
ATOM      4  N   UNL     1       4.263   4.226  16.316  0.00  0.00    +0.000 NA
ATOM      5  C   UNL     1       3.825   4.883  17.400  0.00  0.00    +0.000 A 
ENDROOT
BRANCH   5   6
ATOM      6  C   UNL     1       3.105   4.131  18.437  0.00  0.00    +0.000 A 
ATOM      7  C   UNL     1       1.706   4.152  18.524  0.00  0.00    +0.000 A 
ATOM      8  C   UNL     1       1.049   3.536  19.593  0.00  0.00    +0.000 A 
ATOM      9  C   UNL     1       1.785   2.899  20.581  0.00  0.00    +0.000 A 
ATOM     10  F   UNL     1       1.152   2.344  21.623  0.00  0.00    +0.000 F 
ATOM     11  C   UNL     1       3.170   2.846  20.513  0.00  0.00    +0.000 A 
ATOM     12  C   UNL     1       3.827   3.458  19.443  0.00  0.00    +0.000 A 
ENDBRANCH   5   6
BRANCH   3  13
ATOM     13  C   UNL     1       5.730   4.687  14.464  0.00  0.00    +0.000 A 
ATOM     14  C   UNL     1       5.180   3.774  13.552  0.00  0.00    +0.000 A 
ATOM     15  C   UNL     1       5.901   3.406  12.412  0.00  0.00    +0.000 A 
ATOM     16  C   UNL     1       7.169   3.937  12.178  0.00  0.00    +0.000 A 
ATOM     17  C   UNL     1       7.725   4.837  13.084  0.00  0.00    +0.000 A 
ATOM     18  C   UNL     1       7.008   5.214  14.222  0.00  0.00    +0.000 A 
ENDBRANCH   3  13
BRANCH   1  19
ATOM     19  C   UNL     1       3.853   7.396  18.237  0.00  0.00    +0.000 C 
BRANCH  19  22
ATOM     20  O   UNL     1       2.772   9.935  17.663  0.00  0.00    +0.000 OA
ATOM     21  C   UNL     1       2.017   8.974  17.791  0.00  0.00    +0.000 C 
ATOM     22  N   UNL     1       2.454   7.703  18.090  0.00  0.00    +0.000 N 
ATOM     23  H   UNL     1       1.818   6.930  17.943  0.00  0.00    +0.000 HD
BRANCH  21  24
ATOM     24  C   UNL     1       0.510   9.091  17.644  0.00  0.00    +0.000 C 
BRANCH  24  25
ATOM     25  C   UNL     1      -0.122   9.992  18.670  0.00  0.00    +0.000 A 
ATOM     26  C   UNL     1       0.253   9.949  20.016  0.00  0.00    +0.000 A 
ATOM     27  C   UNL     1      -0.343  10.815  20.929  0.00  0.00    +0.000 A 
ATOM     28  C   UNL     1      -1.298  11.704  20.463  0.00  0.00    +0.000 A 
ATOM     29  N   UNL     1      -1.679  11.781  19.171  0.00  0.00    +0.000 NA
ATOM     30  C   UNL     1      -1.084  10.929  18.305  0.00  0.00    +0.000 A 
ENDBRANCH  24  25
ENDBRANCH  21  24
ENDBRANCH  19  22
ENDBRANCH   1  19
TORSDOF 6
ENDMDL
MODEL 7
REMARK VINA RESULT:      -8.5      3.982      6.727
REMARK  Name = 
REMARK  6 active torsions:
REMARK  status: ('A' for Active; 'I' for Inactive)
REMARK    1  A    between atoms: C_2  and  C_3
REMARK    2  A    between atoms: C_3  and  C_4
REMARK    3  A    between atoms: N_10  and  C_11
REMARK    4  A    between atoms: C_11  and  C_12
REMARK    5  A    between atoms: N_14  and  C_15
REMARK    6  A    between atoms: C_22  and  C_23
REMARK                            x       y       z     vdW  Elec       q    Type
REMARK                         _______ _______ _______ _____ _____    ______ ____
ROOT
ATOM      1  C   UNL     1       3.095   7.661  17.901  0.00  0.00    +0.000 A 
ATOM      2  C   UNL     1       2.466   8.718  18.537  0.00  0.00    +0.000 A 
ATOM      3  N   UNL     1       1.839   8.220  19.652  0.00  0.00    +0.000 N 
ATOM      4  N   UNL     1       2.089   6.903  19.799  0.00  0.00    +0.000 NA
ATOM      5  C   UNL     1       2.776   6.526  18.711  0.00  0.00    +0.000 A 
ENDROOT
BRANCH   5   6
ATOM      6  C   UNL     1       3.063   5.097  18.519  0.00  0.00    +0.000 A 
ATOM      7  C   UNL     1       2.274   4.294  17.683  0.00  0.00    +0.000 A 
ATOM      8  C   UNL     1       2.485   2.914  17.615  0.00  0.00    +0.000 A 
ATOM      9  C   UNL     1       3.482   2.329  18.382  0.00  0.00    +0.000 A 
ATOM     10  F   UNL     1       3.654   1.001  18.343  0.00  0.00    +0.000 F 
ATOM     11  C   UNL     1       4.290   3.100  19.204  0.00  0.00    +0.000 A 
ATOM     12  C   UNL     1       4.083   4.480  19.271  0.00  0.00    +0.000 A 
ENDBRANCH   5   6
BRANCH   3  13
ATOM     13  C   UNL     1       1.009   8.908  20.579  0.00  0.00    +0.000 A 
ATOM     14  C   UNL     1       0.656   8.329  21.806  0.00  0.00    +0.000 A 
ATOM     15  C   UNL     1      -0.134   9.042  22.713  0.00  0.00    +0.000 A 
ATOM     16  C   UNL     1      -0.579  10.326  22.402  0.00  0.00    +0.000 A 
ATOM     17  C   UNL     1      -0.239  10.904  21.181  0.00  0.00    +0.000 A 
ATOM     18  C   UNL     1       0.554  10.200  20.273  0.00  0.00    +0.000 A 
ENDBRANCH   3  13
BRANCH   1  19
ATOM     19  C   UNL     1       3.906   7.758  16.656  0.00  0.00    +0.000 C 
BRANCH  19  22
ATOM     20  O   UNL     1       6.676   7.270  16.841  0.00  0.00    +0.000 OA
ATOM     21  C   UNL     1       5.917   6.342  16.567  0.00  0.00    +0.000 C 
ATOM     22  N   UNL     1       4.555   6.491  16.438  0.00  0.00    +0.000 N 
ATOM     23  H   UNL     1       3.977   5.661  16.452  0.00  0.00    +0.000 HD
BRANCH  21  24
ATOM     24  C   UNL     1       6.409   4.925  16.328  0.00  0.00    +0.000 C 
BRANCH  24  25
ATOM     25  C   UNL     1       6.530   4.572  14.871  0.00  0.00    +0.000 A 
ATOM     26  C   UNL     1       5.632   3.699  14.250  0.00  0.00    +0.000 A 
ATOM     27  C   UNL     1       5.769   3.415  12.893  0.00  0.00    +0.000 A 
ATOM     28  C   UNL     1       6.803   4.019  12.197  0.00  0.00    +0.000 A 
ATOM     29  N   UNL     1       7.683   4.873  12.760  0.00  0.00    +0.000 NA
ATOM     30  C   UNL     1       7.527   5.132  14.078  0.00  0.00    +0.000 A 
ENDBRANCH  24  25
ENDBRANCH  21  24
ENDBRANCH  19  22
ENDBRANCH   1  19
TORSDOF 6
ENDMDL
MODEL 8
REMARK VINA RESULT:      -8.5      3.993      6.849
REMARK  Name = 
REMARK  6 active torsions:
REMARK  status: ('A' for Active; 'I' for Inactive)
REMARK    1  A    between atoms: C_2  and  C_3
REMARK    2  A    between atoms: C_3  and  C_4
REMARK    3  A    between atoms: N_10  and  C_11
REMARK    4  A    between atoms: C_11  and  C_12
REMARK    5  A    between atoms: N_14  and  C_15
REMARK    6  A    between atoms: C_22  and  C_23
REMARK                            x       y       z     vdW  Elec       q    Type
REMARK                         _______ _______ _______ _____ _____    ______ ____
ROOT
ATOM      1  C   UNL     1       2.688   7.839  18.327  0.00  0.00    +0.000 A 
ATOM      2  C   UNL     1       2.095   8.917  18.961  0.00  0.00    +0.000 A 
ATOM      3  N   UNL     1       1.476   8.446  20.092  0.00  0.00    +0.000 N 
ATOM      4  N   UNL     1       1.698   7.125  20.250  0.00  0.00    +0.000 NA
ATOM      5  C   UNL     1       2.357   6.720  19.154  0.00  0.00    +0.000 A 
ENDROOT
BRANCH   5   6
ATOM      6  C   UNL     1       2.607   5.283  18.973  0.00  0.00    +0.000 A 
ATOM      7  C   UNL     1       3.588   4.607  19.714  0.00  0.00    +0.000 A 
ATOM      8  C   UNL     1       3.898   3.273  19.436  0.00  0.00    +0.000 A 
ATOM      9  C   UNL     1       3.232   2.608  18.417  0.00  0.00    +0.000 A 
ATOM     10  F   UNL     1       3.561   1.341  18.129  0.00  0.00    +0.000 F 
ATOM     11  C   UNL     1       2.245   3.244  17.679  0.00  0.00    +0.000 A 
ATOM     12  C   UNL     1       1.931   4.577  17.958  0.00  0.00    +0.000 A 
ENDBRANCH   5   6
BRANCH   3  13
ATOM     13  C   UNL     1       0.679   9.163  21.026  0.00  0.00    +0.000 A 
ATOM     14  C   UNL     1       0.635   8.794  22.378  0.00  0.00    +0.000 A 
ATOM     15  C   UNL     1      -0.131   9.538  23.281  0.00  0.00    +0.000 A 
ATOM     16  C   UNL     1      -0.858  10.644  22.843  0.00  0.00    +0.000 A 
ATOM     17  C   UNL     1      -0.825  11.013  21.500  0.00  0.00    +0.000 A 
ATOM     18  C   UNL     1      -0.058  10.278  20.594  0.00  0.00    +0.000 A 
ENDBRANCH   3  13
BRANCH   1  19
ATOM     19  C   UNL     1       3.478   7.903  17.066  0.00  0.00    +0.000 C 
BRANCH  19  22
ATOM     20  O   UNL     1       6.229   7.434  17.459  0.00  0.00    +0.000 OA
ATOM     21  C   UNL     1       5.502   6.503  17.122  0.00  0.00    +0.000 C 
ATOM     22  N   UNL     1       4.152   6.643  16.889  0.00  0.00    +0.000 N 
ATOM     23  H   UNL     1       3.582   5.807  16.853  0.00  0.00    +0.000 HD
BRANCH  21  24
ATOM     24  C   UNL     1       6.023   5.092  16.911  0.00  0.00    +0.000 C 
BRANCH  24  25
ATOM     25  C   UNL     1       6.354   4.785  15.476  0.00  0.00    +0.000 A 
ATOM     26  C   UNL     1       5.553   3.939  14.703  0.00  0.00    +0.000 A 
ATOM     27  C   UNL     1       5.886   3.698  13.371  0.00  0.00    +0.000 A 
ATOM     28  C   UNL     1       7.012   4.316  12.854  0.00  0.00    +0.000 A 
ATOM     29  N   UNL     1       7.804   5.144  13.567  0.00  0.00    +0.000 NA
ATOM     30  C   UNL     1       7.458   5.362  14.856  0.00  0.00    +0.000 A 
ENDBRANCH  24  25
ENDBRANCH  21  24
ENDBRANCH  19  22
ENDBRANCH   1  19
TORSDOF 6
ENDMDL
MODEL 9
REMARK VINA RESULT:      -8.5      4.505      7.312
REMARK  Name = 
REMARK  6 active torsions:
REMARK  status: ('A' for Active; 'I' for Inactive)
REMARK    1  A    between atoms: C_2  and  C_3
REMARK    2  A    between atoms: C_3  and  C_4
REMARK    3  A    between atoms: N_10  and  C_11
REMARK    4  A    between atoms: C_11  and  C_12
REMARK    5  A    between atoms: N_14  and  C_15
REMARK    6  A    between atoms: C_22  and  C_23
REMARK                            x       y       z     vdW  Elec       q    Type
REMARK                         _______ _______ _______ _____ _____    ______ ____
ROOT
ATOM      1  C   UNL     1       3.470   7.664  17.873  0.00  0.00    +0.000 A 
ATOM      2  C   UNL     1       2.914   8.927  17.764  0.00  0.00    +0.000 A 
ATOM      3  N   UNL     1       1.632   8.861  18.250  0.00  0.00    +0.000 N 
ATOM      4  N   UNL     1       1.359   7.630  18.727  0.00  0.00    +0.000 NA
ATOM      5  C   UNL     1       2.423   6.868  18.436  0.00  0.00    +0.000 A 
ENDROOT
BRANCH   5   6
ATOM      6  C   UNL     1       2.352   5.425  18.704  0.00  0.00    +0.000 A 
ATOM      7  C   UNL     1       1.692   4.546  17.833  0.00  0.00    +0.000 A 
ATOM      8  C   UNL     1       1.524   3.200  18.171  0.00  0.00    +0.000 A 
ATOM      9  C   UNL     1       2.011   2.726  19.381  0.00  0.00    +0.000 A 
ATOM     10  F   UNL     1       1.813   1.445  19.717  0.00  0.00    +0.000 F 
ATOM     11  C   UNL     1       2.684   3.568  20.255  0.00  0.00    +0.000 A 
ATOM     12  C   UNL     1       2.855   4.912  19.916  0.00  0.00    +0.000 A 
ENDBRANCH   5   6
BRANCH   3  13
ATOM     13  C   UNL     1       0.646   9.886  18.281  0.00  0.00    +0.000 A 
ATOM     14  C   UNL     1       0.937  11.158  18.792  0.00  0.00    +0.000 A 
ATOM     15  C   UNL     1      -0.042  12.156  18.780  0.00  0.00    +0.000 A 
ATOM     16  C   UNL     1      -1.311  11.892  18.267  0.00  0.00    +0.000 A 
ATOM     17  C   UNL     1      -1.610  10.628  17.765  0.00  0.00    +0.000 A 
ATOM     18  C   UNL     1      -0.636   9.627  17.769  0.00  0.00    +0.000 A 
ENDBRANCH   3  13
BRANCH   1  19
ATOM     19  C   UNL     1       4.855   7.290  17.473  0.00  0.00    +0.000 C 
BRANCH  19  22
ATOM     20  O   UNL     1       5.929   4.710  17.841  0.00  0.00    +0.000 OA
ATOM     21  C   UNL     1       5.318   4.966  16.806  0.00  0.00    +0.000 C 
ATOM     22  N   UNL     1       4.777   6.202  16.533  0.00  0.00    +0.000 N 
ATOM     23  H   UNL     1       4.093   6.274  15.790  0.00  0.00    +0.000 HD
BRANCH  21  24
ATOM     24  C   UNL     1       5.107   3.942  15.705  0.00  0.00    +0.000 C 
BRANCH  24  25
ATOM     25  C   UNL     1       5.971   4.176  14.496  0.00  0.00    +0.000 A 
ATOM     26  C   UNL     1       5.697   3.566  13.269  0.00  0.00    +0.000 A 
ATOM     27  C   UNL     1       6.513   3.826  12.169  0.00  0.00    +0.000 A 
ATOM     28  C   UNL     1       7.578   4.695  12.334  0.00  0.00    +0.000 A 
ATOM     29  N   UNL     1       7.868   5.310  13.499  0.00  0.00    +0.000 NA
ATOM     30  C   UNL     1       7.060   5.040  14.550  0.00  0.00    +0.000 A 
ENDBRANCH  24  25
ENDBRANCH  21  24
ENDBRANCH  19  22
ENDBRANCH   1  19
TORSDOF 6
ENDMDL
