MODEL 1
REMARK VINA RESULT:      -8.5      0.000      0.000
REMARK  Name = 
REMARK  7 active torsions:
REMARK  status: ('A' for Active; 'I' for Inactive)
REMARK    1  A    between atoms: C_2  and  C_3
REMARK    2  A    between atoms: C_2  and  C_10
REMARK    3  A    between atoms: C_3  and  C_4
REMARK    4  A    between atoms: N_8  and  C_9
REMARK    5  A    between atoms: C_14  and  N_15
REMARK    6  A    between atoms: C_20  and  O_21
REMARK    7  A    between atoms: C_23  and  C_24
REMARK                            x       y       z     vdW  Elec       q    Type
REMARK                         _______ _______ _______ _____ _____    ______ ____
ROOT
ATOM      1  N   UNL     1       3.843   4.984  19.346  0.00  0.00    +0.000 N 
ATOM      2  C   UNL     1       5.227   5.502  19.428  0.00  0.00    +0.000 C 
ATOM      3  C   UNL     1       5.791   5.102  18.100  0.00  0.00    +0.000 A 
ATOM      4  C   UNL     1       5.099   3.962  17.679  0.00  0.00    +0.000 A 
ATOM      5  C   UNL     1       5.265   3.394  16.432  0.00  0.00    +0.000 A 
ATOM      6  C   UNL     1       6.162   4.025  15.578  0.00  0.00    +0.000 A 
ATOM      7  C   UNL     1       6.852   5.183  15.967  0.00  0.00    +0.000 A 
ATOM      8  C   UNL     1       6.674   5.753  17.244  0.00  0.00    +0.000 A 
ATOM      9  C   UNL     1       3.923   3.798  18.563  0.00  0.00    +0.000 C 
ATOM     10  O   UNL     1       3.099   2.912  18.444  0.00  0.00    +0.000 OA
ENDROOT
BRANCH   1  15
ATOM     11  C   UNL     1       1.874   8.065  19.536  0.00  0.00    +0.000 A 
ATOM     12  C   UNL     1       2.336   8.688  18.373  0.00  0.00    +0.000 A 
ATOM     13  C   UNL     1       2.948   7.940  17.373  0.00  0.00    +0.000 A 
ATOM     14  C   UNL     1       3.193   6.588  17.576  0.00  0.00    +0.000 A 
ATOM     15  C   UNL     1       2.949   6.014  18.836  0.00  0.00    +0.000 A 
ATOM     16  C   UNL     1       2.163   6.715  19.760  0.00  0.00    +0.000 A 
BRANCH  11  18
ATOM     17  C   UNL     1       1.355   8.574  21.857  0.00  0.00    +0.000 C 
ATOM     18  C   UNL     1       1.182   8.861  20.556  0.00  0.00    +0.000 C 
BRANCH  18  19
ATOM     19  C   UNL     1       0.298   9.975  20.052  0.00  0.00    +0.000 C 
BRANCH  19  20
ATOM     20  C   UNL     1       0.625  11.341  20.561  0.00  0.00    +0.000 A 
ATOM     21  N   UNL     1       0.260  11.845  21.724  0.00  0.00    +0.000 NA
ATOM     22  N   UNL     1       0.704  13.144  21.790  0.00  0.00    +0.000 NA
ATOM     23  C   UNL     1       1.329  13.407  20.667  0.00  0.00    +0.000 A 
ATOM     24  N   UNL     1       1.325  12.299  19.876  0.00  0.00    +0.000 N 
ATOM     25  C   UNL     1       1.930  12.193  18.576  0.00  0.00    +0.000 C 
ENDBRANCH  19  20
ENDBRANCH  18  19
ENDBRANCH  11  18
ENDBRANCH   1  15
BRANCH   8  26
ATOM     26  C   UNL     1       7.340   7.068  17.558  0.00  0.00    +0.000 C 
ATOM     27  F   UNL     1       6.471   8.096  17.765  0.00  0.00    +0.000 F 
ATOM     28  F   UNL     1       8.104   7.003  18.682  0.00  0.00    +0.000 F 
ATOM     29  F   UNL     1       8.172   7.483  16.563  0.00  0.00    +0.000 F 
ENDBRANCH   8  26
BRANCH   6  30
ATOM     30  O   UNL     1       6.349   3.590  14.300  0.00  0.00    +0.000 OA
ATOM     31  H   UNL     1       6.956   4.195  13.840  0.00  0.00    +0.000 HD
ENDBRANCH   6  30
TORSDOF 6
ENDMDL
MODEL 2
REMARK VINA RESULT:      -8.5      3.664      4.970
REMARK  Name = 
REMARK  7 active torsions:
REMARK  status: ('A' for Active; 'I' for Inactive)
REMARK    1  A    between atoms: C_2  and  C_3
REMARK    2  A    between atoms: C_2  and  C_10
REMARK    3  A    between atoms: C_3  and  C_4
REMARK    4  A    between atoms: N_8  and  C_9
REMARK    5  A    between atoms: C_14  and  N_15
REMARK    6  A    between atoms: C_20  and  O_21
REMARK    7  A    between atoms: C_23  and  C_24
REMARK                            x       y       z     vdW  Elec       q    Type
REMARK                         _______ _______ _______ _____ _____    ______ ____
ROOT
ATOM      1  N   UNL     1       2.651   6.238  17.567  0.00  0.00    +0.000 N 
ATOM      2  C   UNL     1       1.667   5.152  17.776  0.00  0.00    +0.000 C 
ATOM      3  C   UNL     1       2.480   4.127  18.502  0.00  0.00    +0.000 A 
ATOM      4  C   UNL     1       3.813   4.303  18.118  0.00  0.00    +0.000 A 
ATOM      5  C   UNL     1       4.864   3.615  18.692  0.00  0.00    +0.000 A 
ATOM      6  C   UNL     1       4.539   2.725  19.709  0.00  0.00    +0.000 A 
ATOM      7  C   UNL     1       3.213   2.546  20.129  0.00  0.00    +0.000 A 
ATOM      8  C   UNL     1       2.149   3.254  19.535  0.00  0.00    +0.000 A 
ATOM      9  C   UNL     1       3.905   5.590  17.392  0.00  0.00    +0.000 C 
ATOM     10  O   UNL     1       4.940   6.049  16.947  0.00  0.00    +0.000 OA
ENDROOT
BRANCH   1  15
ATOM     11  C   UNL     1       1.549   9.304  19.237  0.00  0.00    +0.000 A 
ATOM     12  C   UNL     1       1.121   8.749  20.447  0.00  0.00    +0.000 A 
ATOM     13  C   UNL     1       1.566   7.489  20.836  0.00  0.00    +0.000 A 
ATOM     14  C   UNL     1       2.354   6.740  19.972  0.00  0.00    +0.000 A 
ATOM     15  C   UNL     1       2.584   7.195  18.663  0.00  0.00    +0.000 A 
ATOM     16  C   UNL     1       2.303   8.531  18.349  0.00  0.00    +0.000 A 
BRANCH  11  18
ATOM     17  C   UNL     1       1.934  11.452  18.164  0.00  0.00    +0.000 C 
ATOM     18  C   UNL     1       1.113  10.656  18.869  0.00  0.00    +0.000 C 
BRANCH  18  19
ATOM     19  C   UNL     1      -0.266  11.064  19.326  0.00  0.00    +0.000 C 
BRANCH  19  20
ATOM     20  C   UNL     1      -1.383  10.724  18.393  0.00  0.00    +0.000 A 
ATOM     21  N   UNL     1      -1.311   9.907  17.360  0.00  0.00    +0.000 NA
ATOM     22  N   UNL     1      -2.528   9.911  16.721  0.00  0.00    +0.000 NA
ATOM     23  C   UNL     1      -3.316  10.730  17.376  0.00  0.00    +0.000 A 
ATOM     24  N   UNL     1      -2.649  11.245  18.444  0.00  0.00    +0.000 N 
ATOM     25  C   UNL     1      -3.189  12.165  19.408  0.00  0.00    +0.000 C 
ENDBRANCH  19  20
ENDBRANCH  18  19
ENDBRANCH  11  18
ENDBRANCH   1  15
BRANCH   8  26
ATOM     26  C   UNL     1       0.765   3.120  20.115  0.00  0.00    +0.000 C 
ATOM     27  F   UNL     1       0.143   4.309  20.349  0.00  0.00    +0.000 F 
ATOM     28  F   UNL     1      -0.071   2.425  19.298  0.00  0.00    +0.000 F 
ATOM     29  F   UNL     1       0.759   2.460  21.306  0.00  0.00    +0.000 F 
ENDBRANCH   8  26
BRANCH   6  30
ATOM     30  O   UNL     1       5.505   2.048  20.392  0.00  0.00    +0.000 OA
ATOM     31  H   UNL     1       6.169   2.680  20.720  0.00  0.00    +0.000 HD
ENDBRANCH   6  30
TORSDOF 6
ENDMDL
MODEL 3
REMARK VINA RESULT:      -8.4      0.628      1.339
REMARK  Name = 
REMARK  7 active torsions:
REMARK  status: ('A' for Active; 'I' for Inactive)
REMARK    1  A    between atoms: C_2  and  C_3
REMARK    2  A    between atoms: C_2  and  C_10
REMARK    3  A    between atoms: C_3  and  C_4
REMARK    4  A    between atoms: N_8  and  C_9
REMARK    5  A    between atoms: C_14  and  N_15
REMARK    6  A    between atoms: C_20  and  O_21
REMARK    7  A    between atoms: C_23  and  C_24
REMARK                            x       y       z     vdW  Elec       q    Type
REMARK                         _______ _______ _______ _____ _____    ______ ____
ROOT
ATOM      1  N   UNL     1       3.835   4.967  19.364  0.00  0.00    +0.000 N 
ATOM      2  C   UNL     1       5.221   5.480  19.436  0.00  0.00    +0.000 C 
ATOM      3  C   UNL     1       5.771   5.087  18.100  0.00  0.00    +0.000 A 
ATOM      4  C   UNL     1       5.070   3.953  17.678  0.00  0.00    +0.000 A 
ATOM      5  C   UNL     1       5.222   3.393  16.425  0.00  0.00    +0.000 A 
ATOM      6  C   UNL     1       6.112   4.027  15.567  0.00  0.00    +0.000 A 
ATOM      7  C   UNL     1       6.811   5.179  15.957  0.00  0.00    +0.000 A 
ATOM      8  C   UNL     1       6.648   5.741  17.239  0.00  0.00    +0.000 A 
ATOM      9  C   UNL     1       3.902   3.787  18.573  0.00  0.00    +0.000 C 
ATOM     10  O   UNL     1       3.074   2.904  18.456  0.00  0.00    +0.000 OA
ENDROOT
BRANCH   1  15
ATOM     11  C   UNL     1       1.838   8.026  19.613  0.00  0.00    +0.000 A 
ATOM     12  C   UNL     1       2.311   8.685  18.474  0.00  0.00    +0.000 A 
ATOM     13  C   UNL     1       2.943   7.970  17.463  0.00  0.00    +0.000 A 
ATOM     14  C   UNL     1       3.197   6.615  17.631  0.00  0.00    +0.000 A 
ATOM     15  C   UNL     1       2.940   6.004  18.871  0.00  0.00    +0.000 A 
ATOM     16  C   UNL     1       2.136   6.673  19.803  0.00  0.00    +0.000 A 
BRANCH  11  18
ATOM     17  C   UNL     1       1.438   8.611  21.939  0.00  0.00    +0.000 C 
ATOM     18  C   UNL     1       1.125   8.788  20.645  0.00  0.00    +0.000 C 
BRANCH  18  19
ATOM     19  C   UNL     1       0.061   9.740  20.160  0.00  0.00    +0.000 C 
BRANCH  19  20
ATOM     20  C   UNL     1       0.298  11.184  20.463  0.00  0.00    +0.000 A 
ATOM     21  N   UNL     1       1.030  12.018  19.750  0.00  0.00    +0.000 NA
ATOM     22  N   UNL     1       1.051  13.233  20.392  0.00  0.00    +0.000 NA
ATOM     23  C   UNL     1       0.333  13.115  21.483  0.00  0.00    +0.000 A 
ATOM     24  N   UNL     1      -0.177  11.856  21.558  0.00  0.00    +0.000 N 
ATOM     25  C   UNL     1      -1.030  11.355  22.602  0.00  0.00    +0.000 C 
ENDBRANCH  19  20
ENDBRANCH  18  19
ENDBRANCH  11  18
ENDBRANCH   1  15
BRANCH   8  26
ATOM     26  C   UNL     1       7.322   7.051  17.556  0.00  0.00    +0.000 C 
ATOM     27  F   UNL     1       8.095   7.021  18.677  0.00  0.00    +0.000 F 
ATOM     28  F   UNL     1       8.145   7.463  16.555  0.00  0.00    +0.000 F 
ATOM     29  F   UNL     1       6.431   8.063  17.750  0.00  0.00    +0.000 F 
ENDBRANCH   8  26
BRANCH   6  30
ATOM     30  O   UNL     1       6.284   3.600  14.283  0.00  0.00    +0.000 OA
ATOM     31  H   UNL     1       7.070   4.031  13.905  0.00  0.00    +0.000 HD
ENDBRANCH   6  30
TORSDOF 6
ENDMDL
MODEL 4
REMARK VINA RESULT:      -8.4      4.412      8.354
REMARK  Name = 
REMARK  7 active torsions:
REMARK  status: ('A' for Active; 'I' for Inactive)
REMARK    1  A    between atoms: C_2  and  C_3
REMARK    2  A    between atoms: C_2  and  C_10
REMARK    3  A    between atoms: C_3  and  C_4
REMARK    4  A    between atoms: N_8  and  C_9
REMARK    5  A    between atoms: C_14  and  N_15
REMARK    6  A    between atoms: C_20  and  O_21
REMARK    7  A    between atoms: C_23  and  C_24
REMARK                            x       y       z     vdW  Elec       q    Type
REMARK                         _______ _______ _______ _____ _____    ______ ____
ROOT
ATOM      1  N   UNL     1       0.103   9.269  20.774  0.00  0.00    +0.000 N 
ATOM      2  C   UNL     1      -1.096   9.183  19.911  0.00  0.00    +0.000 C 
ATOM      3  C   UNL     1      -1.200  10.578  19.378  0.00  0.00    +0.000 A 
ATOM      4  C   UNL     1      -0.622  11.430  20.323  0.00  0.00    +0.000 A 
ATOM      5  C   UNL     1      -0.423  12.779  20.105  0.00  0.00    +0.000 A 
ATOM      6  C   UNL     1      -0.815  13.270  18.866  0.00  0.00    +0.000 A 
ATOM      7  C   UNL     1      -1.377  12.432  17.890  0.00  0.00    +0.000 A 
ATOM      8  C   UNL     1      -1.575  11.057  18.126  0.00  0.00    +0.000 A 
ATOM      9  C   UNL     1       0.099  10.589  21.305  0.00  0.00    +0.000 C 
ATOM     10  O   UNL     1       0.734  11.030  22.245  0.00  0.00    +0.000 OA
ENDROOT
BRANCH   1  15
ATOM     11  C   UNL     1       2.479   6.933  19.257  0.00  0.00    +0.000 A 
ATOM     12  C   UNL     1       2.527   7.479  17.971  0.00  0.00    +0.000 A 
ATOM     13  C   UNL     1       2.116   8.790  17.750  0.00  0.00    +0.000 A 
ATOM     14  C   UNL     1       1.562   9.523  18.791  0.00  0.00    +0.000 A 
ATOM     15  C   UNL     1       1.293   8.898  20.021  0.00  0.00    +0.000 A 
ATOM     16  C   UNL     1       1.878   7.655  20.293  0.00  0.00    +0.000 A 
BRANCH  11  18
ATOM     17  C   UNL     1       2.531   4.869  20.542  0.00  0.00    +0.000 C 
ATOM     18  C   UNL     1       2.968   5.568  19.481  0.00  0.00    +0.000 C 
BRANCH  18  19
ATOM     19  C   UNL     1       3.956   5.035  18.473  0.00  0.00    +0.000 C 
BRANCH  19  20
ATOM     20  C   UNL     1       5.396   5.280  18.789  0.00  0.00    +0.000 A 
ATOM     21  N   UNL     1       6.043   4.845  19.853  0.00  0.00    +0.000 NA
ATOM     22  N   UNL     1       7.327   5.333  19.807  0.00  0.00    +0.000 NA
ATOM     23  C   UNL     1       7.437   6.056  18.718  0.00  0.00    +0.000 A 
ATOM     24  N   UNL     1       6.259   6.033  18.037  0.00  0.00    +0.000 N 
ATOM     25  C   UNL     1       5.999   6.692  16.786  0.00  0.00    +0.000 C 
ENDBRANCH  19  20
ENDBRANCH  18  19
ENDBRANCH  11  18
ENDBRANCH   1  15
BRANCH   8  26
ATOM     26  C   UNL     1      -2.059  10.183  16.998  0.00  0.00    +0.000 C 
ATOM     27  F   UNL     1      -3.194   9.485  17.283  0.00  0.00    +0.000 F 
ATOM     28  F   UNL     1      -2.342  10.898  15.876  0.00  0.00    +0.000 F 
ATOM     29  F   UNL     1      -1.137   9.252  16.627  0.00  0.00    +0.000 F 
ENDBRANCH   8  26
BRANCH   6  30
ATOM     30  O   UNL     1      -0.598  14.570  18.518  0.00  0.00    +0.000 OA
ATOM     31  H   UNL     1      -0.067  15.002  19.210  0.00  0.00    +0.000 HD
ENDBRANCH   6  30
TORSDOF 6
ENDMDL
MODEL 5
REMARK VINA RESULT:      -8.3      3.327      4.442
REMARK  Name = 
REMARK  7 active torsions:
REMARK  status: ('A' for Active; 'I' for Inactive)
REMARK    1  A    between atoms: C_2  and  C_3
REMARK    2  A    between atoms: C_2  and  C_10
REMARK    3  A    between atoms: C_3  and  C_4
REMARK    4  A    between atoms: N_8  and  C_9
REMARK    5  A    between atoms: C_14  and  N_15
REMARK    6  A    between atoms: C_20  and  O_21
REMARK    7  A    between atoms: C_23  and  C_24
REMARK                            x       y       z     vdW  Elec       q    Type
REMARK                         _______ _______ _______ _____ _____    ______ ____
ROOT
ATOM      1  N   UNL     1       2.679   6.212  17.517  0.00  0.00    +0.000 N 
ATOM      2  C   UNL     1       1.696   5.127  17.734  0.00  0.00    +0.000 C 
ATOM      3  C   UNL     1       2.502   4.120  18.493  0.00  0.00    +0.000 A 
ATOM      4  C   UNL     1       3.840   4.293  18.124  0.00  0.00    +0.000 A 
ATOM      5  C   UNL     1       4.885   3.622  18.728  0.00  0.00    +0.000 A 
ATOM      6  C   UNL     1       4.548   2.752  19.759  0.00  0.00    +0.000 A 
ATOM      7  C   UNL     1       3.216   2.577  20.163  0.00  0.00    +0.000 A 
ATOM      8  C   UNL     1       2.159   3.268  19.539  0.00  0.00    +0.000 A 
ATOM      9  C   UNL     1       3.938   5.566  17.374  0.00  0.00    +0.000 C 
ATOM     10  O   UNL     1       4.978   6.020  16.935  0.00  0.00    +0.000 OA
ENDROOT
BRANCH   1  15
ATOM     11  C   UNL     1       1.431   9.234  19.164  0.00  0.00    +0.000 A 
ATOM     12  C   UNL     1       1.103   8.682  20.407  0.00  0.00    +0.000 A 
ATOM     13  C   UNL     1       1.658   7.470  20.803  0.00  0.00    +0.000 A 
ATOM     14  C   UNL     1       2.459   6.757  19.921  0.00  0.00    +0.000 A 
ATOM     15  C   UNL     1       2.593   7.192  18.591  0.00  0.00    +0.000 A 
ATOM     16  C   UNL     1       2.198   8.494  18.259  0.00  0.00    +0.000 A 
BRANCH  11  18
ATOM     17  C   UNL     1      -0.449  10.688  18.651  0.00  0.00    +0.000 C 
ATOM     18  C   UNL     1       0.879  10.539  18.786  0.00  0.00    +0.000 C 
BRANCH  18  19
ATOM     19  C   UNL     1       1.875  11.651  18.567  0.00  0.00    +0.000 C 
BRANCH  19  20
ATOM     20  C   UNL     1       1.934  12.687  19.642  0.00  0.00    +0.000 A 
ATOM     21  N   UNL     1       1.606  12.513  20.908  0.00  0.00    +0.000 NA
ATOM     22  N   UNL     1       1.738  13.716  21.558  0.00  0.00    +0.000 NA
ATOM     23  C   UNL     1       2.142  14.600  20.677  0.00  0.00    +0.000 A 
ATOM     24  N   UNL     1       2.300  13.996  19.468  0.00  0.00    +0.000 N 
ATOM     25  C   UNL     1       2.749  14.635  18.261  0.00  0.00    +0.000 C 
ENDBRANCH  19  20
ENDBRANCH  18  19
ENDBRANCH  11  18
ENDBRANCH   1  15
BRANCH   8  26
ATOM     26  C   UNL     1       0.767   3.141  20.100  0.00  0.00    +0.000 C 
ATOM     27  F   UNL     1      -0.101   2.473  19.290  0.00  0.00    +0.000 F 
ATOM     28  F   UNL     1       0.748   2.472  21.285  0.00  0.00    +0.000 F 
ATOM     29  F   UNL     1       0.188   4.349  20.343  0.00  0.00    +0.000 F 
ENDBRANCH   8  26
BRANCH   6  30
ATOM     30  O   UNL     1       5.506   2.093  20.470  0.00  0.00    +0.000 OA
ATOM     31  H   UNL     1       5.807   2.658  21.203  0.00  0.00    +0.000 HD
ENDBRANCH   6  30
TORSDOF 6
ENDMDL
MODEL 6
REMARK VINA RESULT:      -8.3      3.315      4.444
REMARK  Name = 
REMARK  7 active torsions:
REMARK  status: ('A' for Active; 'I' for Inactive)
REMARK    1  A    between atoms: C_2  and  C_3
REMARK    2  A    between atoms: C_2  and  C_10
REMARK    3  A    between atoms: C_3  and  C_4
REMARK    4  A    between atoms: N_8  and  C_9
REMARK    5  A    between atoms: C_14  and  N_15
REMARK    6  A    between atoms: C_20  and  O_21
REMARK    7  A    between atoms: C_23  and  C_24
REMARK                            x       y       z     vdW  Elec       q    Type
REMARK                         _______ _______ _______ _____ _____    ______ ____
ROOT
ATOM      1  N   UNL     1       2.678   6.208  17.520  0.00  0.00    +0.000 N 
ATOM      2  C   UNL     1       1.700   5.121  17.745  0.00  0.00    +0.000 C 
ATOM      3  C   UNL     1       2.510   4.121  18.509  0.00  0.00    +0.000 A 
ATOM      4  C   UNL     1       3.847   4.297  18.138  0.00  0.00    +0.000 A 
ATOM      5  C   UNL     1       4.895   3.632  18.744  0.00  0.00    +0.000 A 
ATOM      6  C   UNL     1       4.563   2.768  19.780  0.00  0.00    +0.000 A 
ATOM      7  C   UNL     1       3.232   2.590  20.188  0.00  0.00    +0.000 A 
ATOM      8  C   UNL     1       2.171   3.274  19.560  0.00  0.00    +0.000 A 
ATOM      9  C   UNL     1       3.940   5.565  17.379  0.00  0.00    +0.000 C 
ATOM     10  O   UNL     1       4.977   6.020  16.937  0.00  0.00    +0.000 OA
ENDROOT
BRANCH   1  15
ATOM     11  C   UNL     1       1.363   9.189  19.190  0.00  0.00    +0.000 A 
ATOM     12  C   UNL     1       1.107   8.636  20.448  0.00  0.00    +0.000 A 
ATOM     13  C   UNL     1       1.730   7.453  20.833  0.00  0.00    +0.000 A 
ATOM     14  C   UNL     1       2.527   6.766  19.927  0.00  0.00    +0.000 A 
ATOM     15  C   UNL     1       2.591   7.193  18.589  0.00  0.00    +0.000 A 
ATOM     16  C   UNL     1       2.127   8.474  18.262  0.00  0.00    +0.000 A 
BRANCH  11  18
ATOM     17  C   UNL     1      -0.558  10.500  18.482  0.00  0.00    +0.000 C 
ATOM     18  C   UNL     1       0.741  10.465  18.822  0.00  0.00    +0.000 C 
BRANCH  18  19
ATOM     19  C   UNL     1       1.634  11.681  18.851  0.00  0.00    +0.000 C 
BRANCH  19  20
ATOM     20  C   UNL     1       1.338  12.675  19.927  0.00  0.00    +0.000 A 
ATOM     21  N   UNL     1       1.781  12.631  21.168  0.00  0.00    +0.000 NA
ATOM     22  N   UNL     1       1.236  13.687  21.859  0.00  0.00    +0.000 NA
ATOM     23  C   UNL     1       0.472  14.352  21.026  0.00  0.00    +0.000 A 
ATOM     24  N   UNL     1       0.523  13.768  19.798  0.00  0.00    +0.000 N 
ATOM     25  C   UNL     1      -0.168  14.223  18.621  0.00  0.00    +0.000 C 
ENDBRANCH  19  20
ENDBRANCH  18  19
ENDBRANCH  11  18
ENDBRANCH   1  15
BRANCH   8  26
ATOM     26  C   UNL     1       0.780   3.145  20.125  0.00  0.00    +0.000 C 
ATOM     27  F   UNL     1       0.722   2.480  21.312  0.00  0.00    +0.000 F 
ATOM     28  F   UNL     1       0.203   4.355  20.355  0.00  0.00    +0.000 F 
ATOM     29  F   UNL     1      -0.064   2.481  19.288  0.00  0.00    +0.000 F 
ENDBRANCH   8  26
BRANCH   6  30
ATOM     30  O   UNL     1       5.524   2.116  20.494  0.00  0.00    +0.000 OA
ATOM     31  H   UNL     1       5.222   1.211  20.686  0.00  0.00    +0.000 HD
ENDBRANCH   6  30
TORSDOF 6
ENDMDL
MODEL 7
REMARK VINA RESULT:      -8.3      3.478      4.721
REMARK  Name = 
REMARK  7 active torsions:
REMARK  status: ('A' for Active; 'I' for Inactive)
REMARK    1  A    between atoms: C_2  and  C_3
REMARK    2  A    between atoms: C_2  and  C_10
REMARK    3  A    between atoms: C_3  and  C_4
REMARK    4  A    between atoms: N_8  and  C_9
REMARK    5  A    between atoms: C_14  and  N_15
REMARK    6  A    between atoms: C_20  and  O_21
REMARK    7  A    between atoms: C_23  and  C_24
REMARK                            x       y       z     vdW  Elec       q    Type
REMARK                         _______ _______ _______ _____ _____    ______ ____
ROOT
ATOM      1  N   UNL     1       2.980   5.817  17.538  0.00  0.00    +0.000 N 
ATOM      2  C   UNL     1       1.934   4.795  17.763  0.00  0.00    +0.000 C 
ATOM      3  C   UNL     1       2.632   3.821  18.659  0.00  0.00    +0.000 A 
ATOM      4  C   UNL     1       4.001   3.908  18.383  0.00  0.00    +0.000 A 
ATOM      5  C   UNL     1       4.964   3.245  19.117  0.00  0.00    +0.000 A 
ATOM      6  C   UNL     1       4.512   2.478  20.184  0.00  0.00    +0.000 A 
ATOM      7  C   UNL     1       3.146   2.392  20.496  0.00  0.00    +0.000 A 
ATOM      8  C   UNL     1       2.172   3.072  19.739  0.00  0.00    +0.000 A 
ATOM      9  C   UNL     1       4.215   5.109  17.545  0.00  0.00    +0.000 C 
ATOM     10  O   UNL     1       5.304   5.482  17.154  0.00  0.00    +0.000 OA
ENDROOT
BRANCH   1  15
ATOM     11  C   UNL     1       1.670   8.955  18.892  0.00  0.00    +0.000 A 
ATOM     12  C   UNL     1       1.319   8.509  20.170  0.00  0.00    +0.000 A 
ATOM     13  C   UNL     1       1.875   7.341  20.681  0.00  0.00    +0.000 A 
ATOM     14  C   UNL     1       2.701   6.563  19.881  0.00  0.00    +0.000 A 
ATOM     15  C   UNL     1       2.861   6.884  18.522  0.00  0.00    +0.000 A 
ATOM     16  C   UNL     1       2.463   8.149  18.071  0.00  0.00    +0.000 A 
BRANCH  11  18
ATOM     17  C   UNL     1       1.927  11.269  18.191  0.00  0.00    +0.000 C 
ATOM     18  C   UNL     1       1.116  10.218  18.391  0.00  0.00    +0.000 C 
BRANCH  18  19
ATOM     19  C   UNL     1      -0.371  10.243  18.132  0.00  0.00    +0.000 C 
BRANCH  19  20
ATOM     20  C   UNL     1      -1.170  11.121  19.039  0.00  0.00    +0.000 A 
ATOM     21  N   UNL     1      -0.826  11.502  20.254  0.00  0.00    +0.000 NA
ATOM     22  N   UNL     1      -1.854  12.248  20.780  0.00  0.00    +0.000 NA
ATOM     23  C   UNL     1      -2.803  12.306  19.877  0.00  0.00    +0.000 A 
ATOM     24  N   UNL     1      -2.411  11.633  18.761  0.00  0.00    +0.000 N 
ATOM     25  C   UNL     1      -3.175  11.492  17.552  0.00  0.00    +0.000 C 
ENDBRANCH  19  20
ENDBRANCH  18  19
ENDBRANCH  11  18
ENDBRANCH   1  15
BRANCH   8  26
ATOM     26  C   UNL     1       0.738   3.049  20.199  0.00  0.00    +0.000 C 
ATOM     27  F   UNL     1       0.554   2.466  21.416  0.00  0.00    +0.000 F 
ATOM     28  F   UNL     1       0.212   4.299  20.310  0.00  0.00    +0.000 F 
ATOM     29  F   UNL     1      -0.076   2.375  19.341  0.00  0.00    +0.000 F 
ENDBRANCH   8  26
BRANCH   6  30
ATOM     30  O   UNL     1       5.382   1.840  21.017  0.00  0.00    +0.000 OA
ATOM     31  H   UNL     1       5.852   2.501  21.555  0.00  0.00    +0.000 HD
ENDBRANCH   6  30
TORSDOF 6
ENDMDL
MODEL 8
REMARK VINA RESULT:      -8.3      1.139      1.720
REMARK  Name = 
REMARK  7 active torsions:
REMARK  status: ('A' for Active; 'I' for Inactive)
REMARK    1  A    between atoms: C_2  and  C_3
REMARK    2  A    between atoms: C_2  and  C_10
REMARK    3  A    between atoms: C_3  and  C_4
REMARK    4  A    between atoms: N_8  and  C_9
REMARK    5  A    between atoms: C_14  and  N_15
REMARK    6  A    between atoms: C_20  and  O_21
REMARK    7  A    between atoms: C_23  and  C_24
REMARK                            x       y       z     vdW  Elec       q    Type
REMARK                         _______ _______ _______ _____ _____    ______ ____
ROOT
ATOM      1  N   UNL     1       3.820   5.024  19.363  0.00  0.00    +0.000 N 
ATOM      2  C   UNL     1       5.209   5.529  19.440  0.00  0.00    +0.000 C 
ATOM      3  C   UNL     1       5.767   5.119  18.113  0.00  0.00    +0.000 A 
ATOM      4  C   UNL     1       5.063   3.984  17.698  0.00  0.00    +0.000 A 
ATOM      5  C   UNL     1       5.222   3.409  16.452  0.00  0.00    +0.000 A 
ATOM      6  C   UNL     1       6.123   4.028  15.595  0.00  0.00    +0.000 A 
ATOM      7  C   UNL     1       6.825   5.181  15.978  0.00  0.00    +0.000 A 
ATOM      8  C   UNL     1       6.655   5.758  17.252  0.00  0.00    +0.000 A 
ATOM      9  C   UNL     1       3.887   3.835  18.585  0.00  0.00    +0.000 C 
ATOM     10  O   UNL     1       3.054   2.956  18.470  0.00  0.00    +0.000 OA
ENDROOT
BRANCH   1  15
ATOM     11  C   UNL     1       1.822   8.085  19.568  0.00  0.00    +0.000 A 
ATOM     12  C   UNL     1       2.317   8.742  18.438  0.00  0.00    +0.000 A 
ATOM     13  C   UNL     1       2.968   8.025  17.440  0.00  0.00    +0.000 A 
ATOM     14  C   UNL     1       3.217   6.670  17.615  0.00  0.00    +0.000 A 
ATOM     15  C   UNL     1       2.936   6.062  18.851  0.00  0.00    +0.000 A 
ATOM     16  C   UNL     1       2.115   6.732  19.766  0.00  0.00    +0.000 A 
BRANCH  11  18
ATOM     17  C   UNL     1       0.477   8.204  21.590  0.00  0.00    +0.000 C 
ATOM     18  C   UNL     1       1.090   8.849  20.585  0.00  0.00    +0.000 C 
BRANCH  18  19
ATOM     19  C   UNL     1       1.079  10.349  20.418  0.00  0.00    +0.000 C 
BRANCH  19  20
ATOM     20  C   UNL     1      -0.234  10.946  20.029  0.00  0.00    +0.000 A 
ATOM     21  N   UNL     1      -0.751  10.963  18.816  0.00  0.00    +0.000 NA
ATOM     22  N   UNL     1      -1.936  11.658  18.861  0.00  0.00    +0.000 NA
ATOM     23  C   UNL     1      -2.118  12.051  20.099  0.00  0.00    +0.000 A 
ATOM     24  N   UNL     1      -1.088  11.608  20.871  0.00  0.00    +0.000 N 
ATOM     25  C   UNL     1      -0.945  11.824  22.286  0.00  0.00    +0.000 C 
ENDBRANCH  19  20
ENDBRANCH  18  19
ENDBRANCH  11  18
ENDBRANCH   1  15
BRANCH   8  26
ATOM     26  C   UNL     1       7.335   7.067  17.561  0.00  0.00    +0.000 C 
ATOM     27  F   UNL     1       8.111   7.040  18.680  0.00  0.00    +0.000 F 
ATOM     28  F   UNL     1       8.157   7.470  16.555  0.00  0.00    +0.000 F 
ATOM     29  F   UNL     1       6.449   8.083  17.751  0.00  0.00    +0.000 F 
ENDBRANCH   8  26
BRANCH   6  30
ATOM     30  O   UNL     1       6.302   3.586  14.317  0.00  0.00    +0.000 OA
ATOM     31  H   UNL     1       7.098   3.028  14.281  0.00  0.00    +0.000 HD
ENDBRANCH   6  30
TORSDOF 6
ENDMDL
MODEL 9
REMARK VINA RESULT:      -8.3      1.117      1.439
REMARK  Name = 
REMARK  7 active torsions:
REMARK  status: ('A' for Active; 'I' for Inactive)
REMARK    1  A    between atoms: C_2  and  C_3
REMARK    2  A    between atoms: C_2  and  C_10
REMARK    3  A    between atoms: C_3  and  C_4
REMARK    4  A    between atoms: N_8  and  C_9
REMARK    5  A    between atoms: C_14  and  N_15
REMARK    6  A    between atoms: C_20  and  O_21
REMARK    7  A    between atoms: C_23  and  C_24
REMARK                            x       y       z     vdW  Elec       q    Type
REMARK                         _______ _______ _______ _____ _____    ______ ____
ROOT
ATOM      1  N   UNL     1       3.795   4.992  19.261  0.00  0.00    +0.000 N 
ATOM      2  C   UNL     1       5.182   5.494  19.378  0.00  0.00    +0.000 C 
ATOM      3  C   UNL     1       5.750   5.165  18.032  0.00  0.00    +0.000 A 
ATOM      4  C   UNL     1       5.051   4.056  17.544  0.00  0.00    +0.000 A 
ATOM      5  C   UNL     1       5.218   3.558  16.268  0.00  0.00    +0.000 A 
ATOM      6  C   UNL     1       6.123   4.229  15.455  0.00  0.00    +0.000 A 
ATOM      7  C   UNL     1       6.820   5.358  15.911  0.00  0.00    +0.000 A 
ATOM      8  C   UNL     1       6.641   5.857  17.217  0.00  0.00    +0.000 A 
ATOM      9  C   UNL     1       3.870   3.851  18.414  0.00  0.00    +0.000 C 
ATOM     10  O   UNL     1       3.040   2.979  18.242  0.00  0.00    +0.000 OA
ENDROOT
BRANCH   1  15
ATOM     11  C   UNL     1       1.777   8.022  19.642  0.00  0.00    +0.000 A 
ATOM     12  C   UNL     1       2.282   8.755  18.564  0.00  0.00    +0.000 A 
ATOM     13  C   UNL     1       2.950   8.108  17.529  0.00  0.00    +0.000 A 
ATOM     14  C   UNL     1       3.205   6.746  17.618  0.00  0.00    +0.000 A 
ATOM     15  C   UNL     1       2.911   6.056  18.807  0.00  0.00    +0.000 A 
ATOM     16  C   UNL     1       2.074   6.661  19.754  0.00  0.00    +0.000 A 
BRANCH  11  18
ATOM     17  C   UNL     1       0.320   8.001  21.589  0.00  0.00    +0.000 C 
ATOM     18  C   UNL     1       1.027   8.714  20.697  0.00  0.00    +0.000 C 
BRANCH  18  19
ATOM     19  C   UNL     1       1.108  10.220  20.700  0.00  0.00    +0.000 C 
BRANCH  19  20
ATOM     20  C   UNL     1       0.051  10.923  21.488  0.00  0.00    +0.000 A 
ATOM     21  N   UNL     1       0.024  11.066  22.799  0.00  0.00    +0.000 NA
ATOM     22  N   UNL     1      -1.140  11.713  23.139  0.00  0.00    +0.000 NA
ATOM     23  C   UNL     1      -1.800  11.950  22.032  0.00  0.00    +0.000 A 
ATOM     24  N   UNL     1      -1.082  11.493  20.969  0.00  0.00    +0.000 N 
ATOM     25  C   UNL     1      -1.470  11.590  19.588  0.00  0.00    +0.000 C 
ENDBRANCH  19  20
ENDBRANCH  18  19
ENDBRANCH  11  18
ENDBRANCH   1  15
BRANCH   8  26
ATOM     26  C   UNL     1       7.315   7.147  17.608  0.00  0.00    +0.000 C 
ATOM     27  F   UNL     1       8.050   7.065  18.752  0.00  0.00    +0.000 F 
ATOM     28  F   UNL     1       8.175   7.589  16.651  0.00  0.00    +0.000 F 
ATOM     29  F   UNL     1       6.428   8.159  17.811  0.00  0.00    +0.000 F 
ENDBRANCH   8  26
BRANCH   6  30
ATOM     30  O   UNL     1       6.312   3.865  14.154  0.00  0.00    +0.000 OA
ATOM     31  H   UNL     1       7.257   3.936  13.936  0.00  0.00    +0.000 HD
ENDBRANCH   6  30
TORSDOF 6
ENDMDL
