MODEL 1
REMARK VINA RESULT:      -8.1      0.000      0.000
REMARK  Name = 
REMARK  7 active torsions:
REMARK  status: ('A' for Active; 'I' for Inactive)
REMARK    1  A    between atoms: C_1  and  N_2
REMARK    2  A    between atoms: C_6  and  C_7
REMARK    3  A    between atoms: C_7  and  C_8
REMARK    4  A    between atoms: C_8  and  C_9
REMARK    5  A    between atoms: C_10  and  C_11
REMARK    6  A    between atoms: C_11  and  N_12
REMARK    7  A    between atoms: C_19  and  C_20
REMARK                            x       y       z     vdW  Elec       q    Type
REMARK                         _______ _______ _______ _____ _____    ______ ____
ROOT
ATOM      1  C   UNL     1       2.422   8.034  18.034  0.00  0.00    +0.000 C 
ENDROOT
BRANCH   1   2
ATOM      2  N   UNL     1       1.924   9.083  18.896  0.00  0.00    +0.000 N 
ATOM      3  C   UNL     1       1.219   8.833  20.145  0.00  0.00    +0.000 C 
ATOM      4  C   UNL     1       0.679  10.186  20.498  0.00  0.00    +0.000 A 
ATOM      5  C   UNL     1       0.997  11.090  19.480  0.00  0.00    +0.000 A 
ATOM      6  C   UNL     1       0.623  12.419  19.504  0.00  0.00    +0.000 A 
ATOM      7  C   UNL     1      -0.095  12.861  20.611  0.00  0.00    +0.000 A 
ATOM      8  C   UNL     1      -0.425  11.971  21.649  0.00  0.00    +0.000 A 
ATOM      9  C   UNL     1      -0.044  10.611  21.609  0.00  0.00    +0.000 A 
ATOM     10  C   UNL     1       1.743  10.376  18.441  0.00  0.00    +0.000 C 
ATOM     11  O   UNL     1       2.084  10.864  17.379  0.00  0.00    +0.000 OA
BRANCH   9  12
ATOM     12  C   UNL     1      -0.424   9.696  22.742  0.00  0.00    +0.000 C 
ATOM     13  F   UNL     1       0.615   9.389  23.568  0.00  0.00    +0.000 F 
ATOM     14  F   UNL     1      -1.389  10.226  23.541  0.00  0.00    +0.000 F 
ATOM     15  F   UNL     1      -0.912   8.502  22.305  0.00  0.00    +0.000 F 
ENDBRANCH   9  12
ENDBRANCH   1   2
BRANCH   1  17
ATOM     16  C   UNL     1       2.555   5.534  18.231  0.00  0.00    +0.000 C 
ATOM     17  C   UNL     1       2.573   6.755  18.794  0.00  0.00    +0.000 C 
BRANCH  16  18
ATOM     18  C   UNL     1       2.626   4.298  19.089  0.00  0.00    +0.000 C 
ATOM     19  C   UNL     1       2.344   4.530  20.599  0.00  0.00    +0.000 C 
ATOM     20  O   UNL     1       1.117   3.768  20.548  0.00  0.00    +0.000 OA
ATOM     21  C   UNL     1       1.290   3.509  19.141  0.00  0.00    +0.000 C 
BRANCH  18  22
ATOM     22  C   UNL     1       3.851   3.409  18.784  0.00  0.00    +0.000 C 
BRANCH  22  28
ATOM     23  C   UNL     1       5.577   4.012  16.176  0.00  0.00    +0.000 C 
ATOM     24  N   UNL     1       5.875   4.376  17.534  0.00  0.00    +0.000 N 
ATOM     25  C   UNL     1       7.013   5.011  17.935  0.00  0.00    +0.000 A 
ATOM     26  N   UNL     1       6.978   5.204  19.231  0.00  0.00    +0.000 NA
ATOM     27  N   UNL     1       5.801   4.673  19.694  0.00  0.00    +0.000 NA
ATOM     28  C   UNL     1       5.138   4.162  18.677  0.00  0.00    +0.000 A 
ENDBRANCH  22  28
ENDBRANCH  18  22
ENDBRANCH  16  18
ENDBRANCH   1  17
TORSDOF 6
ENDMDL
MODEL 2
REMARK VINA RESULT:      -8.0      3.596      4.458
REMARK  Name = 
REMARK  7 active torsions:
REMARK  status: ('A' for Active; 'I' for Inactive)
REMARK    1  A    between atoms: C_1  and  N_2
REMARK    2  A    between atoms: C_6  and  C_7
REMARK    3  A    between atoms: C_7  and  C_8
REMARK    4  A    between atoms: C_8  and  C_9
REMARK    5  A    between atoms: C_10  and  C_11
REMARK    6  A    between atoms: C_11  and  N_12
REMARK    7  A    between atoms: C_19  and  C_20
REMARK                            x       y       z     vdW  Elec       q    Type
REMARK                         _______ _______ _______ _____ _____    ______ ____
ROOT
ATOM      1  C   UNL     1       2.086   9.544  18.091  0.00  0.00    +0.000 C 
ENDROOT
BRANCH   1   2
ATOM      2  N   UNL     1       0.740   9.964  18.412  0.00  0.00    +0.000 N 
ATOM      3  C   UNL     1      -0.358   9.953  17.456  0.00  0.00    +0.000 C 
ATOM      4  C   UNL     1      -1.427  10.724  18.170  0.00  0.00    +0.000 A 
ATOM      5  C   UNL     1      -0.925  11.190  19.388  0.00  0.00    +0.000 A 
ATOM      6  C   UNL     1      -1.666  11.951  20.271  0.00  0.00    +0.000 A 
ATOM      7  C   UNL     1      -2.979  12.246  19.914  0.00  0.00    +0.000 A 
ATOM      8  C   UNL     1      -3.506  11.786  18.694  0.00  0.00    +0.000 A 
ATOM      9  C   UNL     1      -2.735  11.016  17.795  0.00  0.00    +0.000 A 
ATOM     10  C   UNL     1       0.466  10.749  19.517  0.00  0.00    +0.000 C 
ATOM     11  O   UNL     1       1.210  11.071  20.425  0.00  0.00    +0.000 OA
BRANCH   9  12
ATOM     12  C   UNL     1      -3.343  10.551  16.499  0.00  0.00    +0.000 C 
ATOM     13  F   UNL     1      -3.277   9.201  16.318  0.00  0.00    +0.000 F 
ATOM     14  F   UNL     1      -4.660  10.875  16.393  0.00  0.00    +0.000 F 
ATOM     15  F   UNL     1      -2.733  11.098  15.412  0.00  0.00    +0.000 F 
ENDBRANCH   9  12
ENDBRANCH   1   2
BRANCH   1  17
ATOM     16  C   UNL     1       3.347   7.375  17.956  0.00  0.00    +0.000 C 
ATOM     17  C   UNL     1       2.208   8.055  18.179  0.00  0.00    +0.000 C 
BRANCH  16  18
ATOM     18  C   UNL     1       3.353   5.870  17.983  0.00  0.00    +0.000 C 
ATOM     19  C   UNL     1       4.331   5.201  16.977  0.00  0.00    +0.000 C 
ATOM     20  O   UNL     1       5.164   4.685  18.040  0.00  0.00    +0.000 OA
ATOM     21  C   UNL     1       4.319   5.279  19.044  0.00  0.00    +0.000 C 
BRANCH  18  22
ATOM     22  C   UNL     1       1.940   5.250  18.027  0.00  0.00    +0.000 C 
BRANCH  22  28
ATOM     23  C   UNL     1       2.537   2.121  17.972  0.00  0.00    +0.000 C 
ATOM     24  N   UNL     1       1.988   2.895  19.052  0.00  0.00    +0.000 N 
ATOM     25  C   UNL     1       1.572   2.378  20.243  0.00  0.00    +0.000 A 
ATOM     26  N   UNL     1       1.130   3.343  21.012  0.00  0.00    +0.000 NA
ATOM     27  N   UNL     1       1.242   4.515  20.309  0.00  0.00    +0.000 NA
ATOM     28  C   UNL     1       1.749   4.250  19.122  0.00  0.00    +0.000 A 
ENDBRANCH  22  28
ENDBRANCH  18  22
ENDBRANCH  16  18
ENDBRANCH   1  17
TORSDOF 6
ENDMDL
MODEL 3
REMARK VINA RESULT:      -8.0      2.898      7.661
REMARK  Name = 
REMARK  7 active torsions:
REMARK  status: ('A' for Active; 'I' for Inactive)
REMARK    1  A    between atoms: C_1  and  N_2
REMARK    2  A    between atoms: C_6  and  C_7
REMARK    3  A    between atoms: C_7  and  C_8
REMARK    4  A    between atoms: C_8  and  C_9
REMARK    5  A    between atoms: C_10  and  C_11
REMARK    6  A    between atoms: C_11  and  N_12
REMARK    7  A    between atoms: C_19  and  C_20
REMARK                            x       y       z     vdW  Elec       q    Type
REMARK                         _______ _______ _______ _____ _____    ______ ____
ROOT
ATOM      1  C   UNL     1       2.990   8.189  17.508  0.00  0.00    +0.000 C 
ENDROOT
BRANCH   1   2
ATOM      2  N   UNL     1       3.140   6.816  17.935  0.00  0.00    +0.000 N 
ATOM      3  C   UNL     1       2.146   6.102  18.722  0.00  0.00    +0.000 C 
ATOM      4  C   UNL     1       2.877   4.859  19.133  0.00  0.00    +0.000 A 
ATOM      5  C   UNL     1       4.194   4.926  18.673  0.00  0.00    +0.000 A 
ATOM      6  C   UNL     1       5.128   3.934  18.905  0.00  0.00    +0.000 A 
ATOM      7  C   UNL     1       4.711   2.819  19.626  0.00  0.00    +0.000 A 
ATOM      8  C   UNL     1       3.388   2.730  20.098  0.00  0.00    +0.000 A 
ATOM      9  C   UNL     1       2.445   3.754  19.861  0.00  0.00    +0.000 A 
ATOM     10  C   UNL     1       4.374   6.190  17.956  0.00  0.00    +0.000 C 
ATOM     11  O   UNL     1       5.437   6.588  17.514  0.00  0.00    +0.000 OA
BRANCH   9  12
ATOM     12  C   UNL     1       1.043   3.615  20.390  0.00  0.00    +0.000 C 
ATOM     13  F   UNL     1       0.187   3.014  19.517  0.00  0.00    +0.000 F 
ATOM     14  F   UNL     1       0.986   2.876  21.532  0.00  0.00    +0.000 F 
ATOM     15  F   UNL     1       0.479   4.816  20.691  0.00  0.00    +0.000 F 
ENDBRANCH   9  12
ENDBRANCH   1   2
BRANCH   1  17
ATOM     16  C   UNL     1       1.607  10.160  18.224  0.00  0.00    +0.000 C 
ATOM     17  C   UNL     1       1.838   8.836  18.211  0.00  0.00    +0.000 C 
BRANCH  16  18
ATOM     18  C   UNL     1       0.471  10.728  19.033  0.00  0.00    +0.000 C 
ATOM     19  C   UNL     1      -0.604  11.490  18.210  0.00  0.00    +0.000 C 
ATOM     20  O   UNL     1      -1.612  10.494  18.494  0.00  0.00    +0.000 OA
ATOM     21  C   UNL     1      -0.681   9.715  19.269  0.00  0.00    +0.000 C 
BRANCH  18  22
ATOM     22  C   UNL     1       0.932  11.443  20.322  0.00  0.00    +0.000 C 
BRANCH  22  28
ATOM     23  C   UNL     1      -1.854  12.234  21.649  0.00  0.00    +0.000 C 
ATOM     24  N   UNL     1      -0.882  11.293  22.135  0.00  0.00    +0.000 N 
ATOM     25  C   UNL     1      -0.983  10.611  23.311  0.00  0.00    +0.000 A 
ATOM     26  N   UNL     1       0.060   9.831  23.459  0.00  0.00    +0.000 NA
ATOM     27  N   UNL     1       0.870  10.014  22.368  0.00  0.00    +0.000 NA
ATOM     28  C   UNL     1       0.313  10.903  21.571  0.00  0.00    +0.000 A 
ENDBRANCH  22  28
ENDBRANCH  18  22
ENDBRANCH  16  18
ENDBRANCH   1  17
TORSDOF 6
ENDMDL
MODEL 4
REMARK VINA RESULT:      -7.9      3.319      8.076
REMARK  Name = 
REMARK  7 active torsions:
REMARK  status: ('A' for Active; 'I' for Inactive)
REMARK    1  A    between atoms: C_1  and  N_2
REMARK    2  A    between atoms: C_6  and  C_7
REMARK    3  A    between atoms: C_7  and  C_8
REMARK    4  A    between atoms: C_8  and  C_9
REMARK    5  A    between atoms: C_10  and  C_11
REMARK    6  A    between atoms: C_11  and  N_12
REMARK    7  A    between atoms: C_19  and  C_20
REMARK                            x       y       z     vdW  Elec       q    Type
REMARK                         _______ _______ _______ _____ _____    ______ ____
ROOT
ATOM      1  C   UNL     1       3.255   8.019  17.764  0.00  0.00    +0.000 C 
ENDROOT
BRANCH   1   2
ATOM      2  N   UNL     1       3.101   6.590  17.925  0.00  0.00    +0.000 N 
ATOM      3  C   UNL     1       2.435   5.973  19.063  0.00  0.00    +0.000 C 
ATOM      4  C   UNL     1       2.785   4.524  18.907  0.00  0.00    +0.000 A 
ATOM      5  C   UNL     1       3.642   4.371  17.814  0.00  0.00    +0.000 A 
ATOM      6  C   UNL     1       4.157   3.151  17.420  0.00  0.00    +0.000 A 
ATOM      7  C   UNL     1       3.780   2.031  18.157  0.00  0.00    +0.000 A 
ATOM      8  C   UNL     1       2.917   2.161  19.259  0.00  0.00    +0.000 A 
ATOM      9  C   UNL     1       2.405   3.415  19.658  0.00  0.00    +0.000 A 
ATOM     10  C   UNL     1       3.882   5.690  17.223  0.00  0.00    +0.000 C 
ATOM     11  O   UNL     1       4.659   5.906  16.311  0.00  0.00    +0.000 OA
BRANCH   9  12
ATOM     12  C   UNL     1       1.487   3.503  20.848  0.00  0.00    +0.000 C 
ATOM     13  F   UNL     1       1.118   2.288  21.344  0.00  0.00    +0.000 F 
ATOM     14  F   UNL     1       2.047   4.175  21.891  0.00  0.00    +0.000 F 
ATOM     15  F   UNL     1       0.326   4.153  20.562  0.00  0.00    +0.000 F 
ENDBRANCH   9  12
ENDBRANCH   1   2
BRANCH   1  17
ATOM     16  C   UNL     1       1.281   9.547  18.042  0.00  0.00    +0.000 C 
ATOM     17  C   UNL     1       2.229   8.752  18.569  0.00  0.00    +0.000 C 
BRANCH  16  18
ATOM     18  C   UNL     1       0.345  10.315  18.937  0.00  0.00    +0.000 C 
ATOM     19  C   UNL     1       0.920  10.668  20.337  0.00  0.00    +0.000 C 
ATOM     20  O   UNL     1       0.932  12.083  20.042  0.00  0.00    +0.000 OA
ATOM     21  C   UNL     1       0.410  11.851  18.719  0.00  0.00    +0.000 C 
BRANCH  18  22
ATOM     22  C   UNL     1      -1.094   9.757  18.946  0.00  0.00    +0.000 C 
BRANCH  22  28
ATOM     23  C   UNL     1      -3.342  12.008  19.110  0.00  0.00    +0.000 C 
ATOM     24  N   UNL     1      -2.945  11.241  17.961  0.00  0.00    +0.000 N 
ATOM     25  C   UNL     1      -3.532  11.324  16.733  0.00  0.00    +0.000 A 
ATOM     26  N   UNL     1      -2.936  10.502  15.904  0.00  0.00    +0.000 NA
ATOM     27  N   UNL     1      -1.950   9.854  16.603  0.00  0.00    +0.000 NA
ATOM     28  C   UNL     1      -1.958  10.287  17.847  0.00  0.00    +0.000 A 
ENDBRANCH  22  28
ENDBRANCH  18  22
ENDBRANCH  16  18
ENDBRANCH   1  17
TORSDOF 6
ENDMDL
MODEL 5
REMARK VINA RESULT:      -7.9      3.135      3.618
REMARK  Name = 
REMARK  7 active torsions:
REMARK  status: ('A' for Active; 'I' for Inactive)
REMARK    1  A    between atoms: C_1  and  N_2
REMARK    2  A    between atoms: C_6  and  C_7
REMARK    3  A    between atoms: C_7  and  C_8
REMARK    4  A    between atoms: C_8  and  C_9
REMARK    5  A    between atoms: C_10  and  C_11
REMARK    6  A    between atoms: C_11  and  N_12
REMARK    7  A    between atoms: C_19  and  C_20
REMARK                            x       y       z     vdW  Elec       q    Type
REMARK                         _______ _______ _______ _____ _____    ______ ____
ROOT
ATOM      1  C   UNL     1       2.155   9.078  18.252  0.00  0.00    +0.000 C 
ENDROOT
BRANCH   1   2
ATOM      2  N   UNL     1       0.824   9.593  18.488  0.00  0.00    +0.000 N 
ATOM      3  C   UNL     1      -0.216   9.638  17.470  0.00  0.00    +0.000 C 
ATOM      4  C   UNL     1      -1.269  10.491  18.108  0.00  0.00    +0.000 A 
ATOM      5  C   UNL     1      -0.807  10.945  19.347  0.00  0.00    +0.000 A 
ATOM      6  C   UNL     1      -1.545  11.769  20.174  0.00  0.00    +0.000 A 
ATOM      7  C   UNL     1      -2.812  12.145  19.737  0.00  0.00    +0.000 A 
ATOM      8  C   UNL     1      -3.299  11.699  18.494  0.00  0.00    +0.000 A 
ATOM      9  C   UNL     1      -2.531  10.864  17.654  0.00  0.00    +0.000 A 
ATOM     10  C   UNL     1       0.540  10.414  19.564  0.00  0.00    +0.000 C 
ATOM     11  O   UNL     1       1.252  10.703  20.509  0.00  0.00    +0.000 OA
BRANCH   9  12
ATOM     12  C   UNL     1      -3.093  10.417  16.331  0.00  0.00    +0.000 C 
ATOM     13  F   UNL     1      -2.431  10.928  15.255  0.00  0.00    +0.000 F 
ATOM     14  F   UNL     1      -3.059   9.065  16.179  0.00  0.00    +0.000 F 
ATOM     15  F   UNL     1      -4.395  10.781  16.170  0.00  0.00    +0.000 F 
ENDBRANCH   9  12
ENDBRANCH   1   2
BRANCH   1  17
ATOM     16  C   UNL     1       3.028   6.778  18.760  0.00  0.00    +0.000 C 
ATOM     17  C   UNL     1       2.133   7.585  18.162  0.00  0.00    +0.000 C 
BRANCH  16  18
ATOM     18  C   UNL     1       2.978   5.289  18.540  0.00  0.00    +0.000 C 
ATOM     19  C   UNL     1       2.450   4.466  19.747  0.00  0.00    +0.000 C 
ATOM     20  O   UNL     1       1.259   4.067  19.030  0.00  0.00    +0.000 OA
ATOM     21  C   UNL     1       1.664   4.812  17.865  0.00  0.00    +0.000 C 
BRANCH  18  22
ATOM     22  C   UNL     1       4.250   4.723  17.873  0.00  0.00    +0.000 C 
BRANCH  22  28
ATOM     23  C   UNL     1       6.346   6.859  16.780  0.00  0.00    +0.000 C 
ATOM     24  N   UNL     1       6.425   6.085  17.989  0.00  0.00    +0.000 N 
ATOM     25  C   UNL     1       7.476   6.107  18.857  0.00  0.00    +0.000 A 
ATOM     26  N   UNL     1       7.238   5.296  19.859  0.00  0.00    +0.000 NA
ATOM     27  N   UNL     1       6.014   4.718  19.639  0.00  0.00    +0.000 NA
ATOM     28  C   UNL     1       5.524   5.181  18.507  0.00  0.00    +0.000 A 
ENDBRANCH  22  28
ENDBRANCH  18  22
ENDBRANCH  16  18
ENDBRANCH   1  17
TORSDOF 6
ENDMDL
MODEL 6
REMARK VINA RESULT:      -7.8      4.209      8.509
REMARK  Name = 
REMARK  7 active torsions:
REMARK  status: ('A' for Active; 'I' for Inactive)
REMARK    1  A    between atoms: C_1  and  N_2
REMARK    2  A    between atoms: C_6  and  C_7
REMARK    3  A    between atoms: C_7  and  C_8
REMARK    4  A    between atoms: C_8  and  C_9
REMARK    5  A    between atoms: C_10  and  C_11
REMARK    6  A    between atoms: C_11  and  N_12
REMARK    7  A    between atoms: C_19  and  C_20
REMARK                            x       y       z     vdW  Elec       q    Type
REMARK                         _______ _______ _______ _____ _____    ______ ____
ROOT
ATOM      1  C   UNL     1       2.531   8.747  17.898  0.00  0.00    +0.000 C 
ENDROOT
BRANCH   1   2
ATOM      2  N   UNL     1       2.626   7.449  18.528  0.00  0.00    +0.000 N 
ATOM      3  C   UNL     1       2.856   6.212  17.796  0.00  0.00    +0.000 C 
ATOM      4  C   UNL     1       2.590   5.159  18.830  0.00  0.00    +0.000 A 
ATOM      5  C   UNL     1       2.168   5.772  20.013  0.00  0.00    +0.000 A 
ATOM      6  C   UNL     1       1.828   5.066  21.151  0.00  0.00    +0.000 A 
ATOM      7  C   UNL     1       1.930   3.679  21.097  0.00  0.00    +0.000 A 
ATOM      8  C   UNL     1       2.355   3.041  19.917  0.00  0.00    +0.000 A 
ATOM      9  C   UNL     1       2.690   3.773  18.757  0.00  0.00    +0.000 A 
ATOM     10  C   UNL     1       2.143   7.221  19.804  0.00  0.00    +0.000 C 
ATOM     11  O   UNL     1       1.731   8.029  20.617  0.00  0.00    +0.000 OA
BRANCH   9  12
ATOM     12  C   UNL     1       3.135   3.045  17.518  0.00  0.00    +0.000 C 
ATOM     13  F   UNL     1       3.121   1.688  17.646  0.00  0.00    +0.000 F 
ATOM     14  F   UNL     1       2.354   3.323  16.439  0.00  0.00    +0.000 F 
ATOM     15  F   UNL     1       4.407   3.367  17.153  0.00  0.00    +0.000 F 
ENDBRANCH   9  12
ENDBRANCH   1   2
BRANCH   1  17
ATOM     16  C   UNL     1       0.915  10.566  18.522  0.00  0.00    +0.000 C 
ATOM     17  C   UNL     1       1.161   9.321  18.078  0.00  0.00    +0.000 C 
BRANCH  16  18
ATOM     18  C   UNL     1      -0.499  11.027  18.756  0.00  0.00    +0.000 C 
ATOM     19  C   UNL     1      -0.755  11.684  20.140  0.00  0.00    +0.000 C 
ATOM     20  O   UNL     1      -1.004  12.978  19.546  0.00  0.00    +0.000 OA
ATOM     21  C   UNL     1      -0.774  12.458  18.222  0.00  0.00    +0.000 C 
BRANCH  18  22
ATOM     22  C   UNL     1      -1.562   9.995  18.318  0.00  0.00    +0.000 C 
BRANCH  22  28
ATOM     23  C   UNL     1      -4.265  11.637  18.702  0.00  0.00    +0.000 C 
ATOM     24  N   UNL     1      -3.680  11.177  17.472  0.00  0.00    +0.000 N 
ATOM     25  C   UNL     1      -4.243  11.331  16.241  0.00  0.00    +0.000 A 
ATOM     26  N   UNL     1      -3.459  10.809  15.329  0.00  0.00    +0.000 NA
ATOM     27  N   UNL     1      -2.367  10.288  15.974  0.00  0.00    +0.000 NA
ATOM     28  C   UNL     1      -2.500  10.496  17.268  0.00  0.00    +0.000 A 
ENDBRANCH  22  28
ENDBRANCH  18  22
ENDBRANCH  16  18
ENDBRANCH   1  17
TORSDOF 6
ENDMDL
MODEL 7
REMARK VINA RESULT:      -7.8      0.673      1.411
REMARK  Name = 
REMARK  7 active torsions:
REMARK  status: ('A' for Active; 'I' for Inactive)
REMARK    1  A    between atoms: C_1  and  N_2
REMARK    2  A    between atoms: C_6  and  C_7
REMARK    3  A    between atoms: C_7  and  C_8
REMARK    4  A    between atoms: C_8  and  C_9
REMARK    5  A    between atoms: C_10  and  C_11
REMARK    6  A    between atoms: C_11  and  N_12
REMARK    7  A    between atoms: C_19  and  C_20
REMARK                            x       y       z     vdW  Elec       q    Type
REMARK                         _______ _______ _______ _____ _____    ______ ____
ROOT
ATOM      1  C   UNL     1       2.340   7.940  18.076  0.00  0.00    +0.000 C 
ENDROOT
BRANCH   1   2
ATOM      2  N   UNL     1       1.876   9.006  18.936  0.00  0.00    +0.000 N 
ATOM      3  C   UNL     1       1.165   8.783  20.187  0.00  0.00    +0.000 C 
ATOM      4  C   UNL     1       0.668  10.152  20.536  0.00  0.00    +0.000 A 
ATOM      5  C   UNL     1       1.010  11.042  19.514  0.00  0.00    +0.000 A 
ATOM      6  C   UNL     1       0.677  12.383  19.535  0.00  0.00    +0.000 A 
ATOM      7  C   UNL     1      -0.026  12.850  20.642  0.00  0.00    +0.000 A 
ATOM      8  C   UNL     1      -0.380  11.973  21.683  0.00  0.00    +0.000 A 
ATOM      9  C   UNL     1      -0.041  10.602  21.647  0.00  0.00    +0.000 A 
ATOM     10  C   UNL     1       1.733  10.303  18.477  0.00  0.00    +0.000 C 
ATOM     11  O   UNL     1       2.086  10.777  17.412  0.00  0.00    +0.000 OA
BRANCH   9  12
ATOM     12  C   UNL     1      -0.446   9.703  22.783  0.00  0.00    +0.000 C 
ATOM     13  F   UNL     1      -0.928   8.494  22.378  0.00  0.00    +0.000 F 
ATOM     14  F   UNL     1       0.587   9.427  23.625  0.00  0.00    +0.000 F 
ATOM     15  F   UNL     1      -1.425  10.249  23.555  0.00  0.00    +0.000 F 
ENDBRANCH   9  12
ENDBRANCH   1   2
BRANCH   1  17
ATOM     16  C   UNL     1       2.342   5.437  18.277  0.00  0.00    +0.000 C 
ATOM     17  C   UNL     1       2.438   6.656  18.837  0.00  0.00    +0.000 C 
BRANCH  16  18
ATOM     18  C   UNL     1       2.365   4.200  19.136  0.00  0.00    +0.000 C 
ATOM     19  C   UNL     1       1.504   4.282  20.427  0.00  0.00    +0.000 C 
ATOM     20  O   UNL     1       0.582   3.277  19.947  0.00  0.00    +0.000 OA
ATOM     21  C   UNL     1       1.313   3.140  18.713  0.00  0.00    +0.000 C 
BRANCH  18  22
ATOM     22  C   UNL     1       3.779   3.615  19.333  0.00  0.00    +0.000 C 
BRANCH  22  28
ATOM     23  C   UNL     1       6.409   5.409  19.215  0.00  0.00    +0.000 C 
ATOM     24  N   UNL     1       5.811   4.650  18.150  0.00  0.00    +0.000 N 
ATOM     25  C   UNL     1       6.265   4.626  16.865  0.00  0.00    +0.000 A 
ATOM     26  N   UNL     1       5.507   3.836  16.144  0.00  0.00    +0.000 NA
ATOM     27  N   UNL     1       4.526   3.343  16.967  0.00  0.00    +0.000 NA
ATOM     28  C   UNL     1       4.698   3.839  18.175  0.00  0.00    +0.000 A 
ENDBRANCH  22  28
ENDBRANCH  18  22
ENDBRANCH  16  18
ENDBRANCH   1  17
TORSDOF 6
ENDMDL
MODEL 8
REMARK VINA RESULT:      -7.8      3.262      8.009
REMARK  Name = 
REMARK  7 active torsions:
REMARK  status: ('A' for Active; 'I' for Inactive)
REMARK    1  A    between atoms: C_1  and  N_2
REMARK    2  A    between atoms: C_6  and  C_7
REMARK    3  A    between atoms: C_7  and  C_8
REMARK    4  A    between atoms: C_8  and  C_9
REMARK    5  A    between atoms: C_10  and  C_11
REMARK    6  A    between atoms: C_11  and  N_12
REMARK    7  A    between atoms: C_19  and  C_20
REMARK                            x       y       z     vdW  Elec       q    Type
REMARK                         _______ _______ _______ _____ _____    ______ ____
ROOT
ATOM      1  C   UNL     1       2.974   8.399  17.799  0.00  0.00    +0.000 C 
ENDROOT
BRANCH   1   2
ATOM      2  N   UNL     1       2.941   6.957  17.909  0.00  0.00    +0.000 N 
ATOM      3  C   UNL     1       2.300   6.246  19.006  0.00  0.00    +0.000 C 
ATOM      4  C   UNL     1       2.778   4.839  18.815  0.00  0.00    +0.000 A 
ATOM      5  C   UNL     1       3.676   4.798  17.745  0.00  0.00    +0.000 A 
ATOM      6  C   UNL     1       4.305   3.641  17.329  0.00  0.00    +0.000 A 
ATOM      7  C   UNL     1       4.008   2.469  18.017  0.00  0.00    +0.000 A 
ATOM      8  C   UNL     1       3.106   2.485  19.096  0.00  0.00    +0.000 A 
ATOM      9  C   UNL     1       2.475   3.677  19.518  0.00  0.00    +0.000 A 
ATOM     10  C   UNL     1       3.816   6.152  17.203  0.00  0.00    +0.000 C 
ATOM     11  O   UNL     1       4.597   6.465  16.323  0.00  0.00    +0.000 OA
BRANCH   9  12
ATOM     12  C   UNL     1       1.521   3.644  20.681  0.00  0.00    +0.000 C 
ATOM     13  F   UNL     1       0.321   4.237  20.421  0.00  0.00    +0.000 F 
ATOM     14  F   UNL     1       1.229   2.377  21.084  0.00  0.00    +0.000 F 
ATOM     15  F   UNL     1       2.016   4.282  21.778  0.00  0.00    +0.000 F 
ENDBRANCH   9  12
ENDBRANCH   1   2
BRANCH   1  17
ATOM     16  C   UNL     1       1.546  10.327  18.541  0.00  0.00    +0.000 C 
ATOM     17  C   UNL     1       1.782   9.005  18.469  0.00  0.00    +0.000 C 
BRANCH  16  18
ATOM     18  C   UNL     1       0.364  10.850  19.314  0.00  0.00    +0.000 C 
ATOM     19  C   UNL     1      -0.366   9.794  20.189  0.00  0.00    +0.000 C 
ATOM     20  O   UNL     1       0.038  10.444  21.416  0.00  0.00    +0.000 OA
ATOM     21  C   UNL     1       0.751  11.463  20.687  0.00  0.00    +0.000 C 
BRANCH  18  22
ATOM     22  C   UNL     1      -0.564  11.757  18.478  0.00  0.00    +0.000 C 
BRANCH  22  28
ATOM     23  C   UNL     1      -3.594  12.171  19.372  0.00  0.00    +0.000 C 
ATOM     24  N   UNL     1      -3.081  11.248  18.396  0.00  0.00    +0.000 N 
ATOM     25  C   UNL     1      -3.835  10.336  17.720  0.00  0.00    +0.000 A 
ATOM     26  N   UNL     1      -3.072   9.652  16.903  0.00  0.00    +0.000 NA
ATOM     27  N   UNL     1      -1.789  10.111  17.055  0.00  0.00    +0.000 NA
ATOM     28  C   UNL     1      -1.786  11.066  17.963  0.00  0.00    +0.000 A 
ENDBRANCH  22  28
ENDBRANCH  18  22
ENDBRANCH  16  18
ENDBRANCH   1  17
TORSDOF 6
ENDMDL
MODEL 9
REMARK VINA RESULT:      -7.7      2.044      2.879
REMARK  Name = 
REMARK  7 active torsions:
REMARK  status: ('A' for Active; 'I' for Inactive)
REMARK    1  A    between atoms: C_1  and  N_2
REMARK    2  A    between atoms: C_6  and  C_7
REMARK    3  A    between atoms: C_7  and  C_8
REMARK    4  A    between atoms: C_8  and  C_9
REMARK    5  A    between atoms: C_10  and  C_11
REMARK    6  A    between atoms: C_11  and  N_12
REMARK    7  A    between atoms: C_19  and  C_20
REMARK                            x       y       z     vdW  Elec       q    Type
REMARK                         _______ _______ _______ _____ _____    ______ ____
ROOT
ATOM      1  C   UNL     1       2.175   9.281  17.715  0.00  0.00    +0.000 C 
ENDROOT
BRANCH   1   2
ATOM      2  N   UNL     1       1.722  10.084  18.829  0.00  0.00    +0.000 N 
ATOM      3  C   UNL     1       1.034   9.539  19.990  0.00  0.00    +0.000 C 
ATOM      4  C   UNL     1       0.538  10.768  20.690  0.00  0.00    +0.000 A 
ATOM      5  C   UNL     1       0.861  11.895  19.928  0.00  0.00    +0.000 A 
ATOM      6  C   UNL     1       0.524  13.182  20.300  0.00  0.00    +0.000 A 
ATOM      7  C   UNL     1      -0.161  13.341  21.502  0.00  0.00    +0.000 A 
ATOM      8  C   UNL     1      -0.495  12.222  22.286  0.00  0.00    +0.000 A 
ATOM      9  C   UNL     1      -0.152  10.910  21.890  0.00  0.00    +0.000 A 
ATOM     10  C   UNL     1       1.568  11.455  18.724  0.00  0.00    +0.000 C 
ATOM     11  O   UNL     1       1.902  12.190  17.812  0.00  0.00    +0.000 OA
BRANCH   9  12
ATOM     12  C   UNL     1      -0.535   9.744  22.761  0.00  0.00    +0.000 C 
ATOM     13  F   UNL     1      -1.560  10.015  23.618  0.00  0.00    +0.000 F 
ATOM     14  F   UNL     1      -0.932   8.660  22.040  0.00  0.00    +0.000 F 
ATOM     15  F   UNL     1       0.495   9.318  23.543  0.00  0.00    +0.000 F 
ENDBRANCH   9  12
ENDBRANCH   1   2
BRANCH   1  17
ATOM     16  C   UNL     1       3.437   7.117  17.905  0.00  0.00    +0.000 C 
ATOM     17  C   UNL     1       2.332   7.851  18.127  0.00  0.00    +0.000 C 
BRANCH  16  18
ATOM     18  C   UNL     1       3.471   5.658  18.277  0.00  0.00    +0.000 C 
ATOM     19  C   UNL     1       4.190   4.737  17.254  0.00  0.00    +0.000 C 
ATOM     20  O   UNL     1       5.260   4.443  18.180  0.00  0.00    +0.000 OA
ATOM     21  C   UNL     1       4.670   5.286  19.190  0.00  0.00    +0.000 C 
BRANCH  18  22
ATOM     22  C   UNL     1       2.118   5.125  18.795  0.00  0.00    +0.000 C 
BRANCH  22  28
ATOM     23  C   UNL     1       2.479   1.960  18.832  0.00  0.00    +0.000 C 
ATOM     24  N   UNL     1       2.357   2.847  19.957  0.00  0.00    +0.000 N 
ATOM     25  C   UNL     1       2.321   2.446  21.260  0.00  0.00    +0.000 A 
ATOM     26  N   UNL     1       2.210   3.494  22.040  0.00  0.00    +0.000 NA
ATOM     27  N   UNL     1       2.157   4.603  21.236  0.00  0.00    +0.000 NA
ATOM     28  C   UNL     1       2.234   4.218  19.978  0.00  0.00    +0.000 A 
ENDBRANCH  22  28
ENDBRANCH  18  22
ENDBRANCH  16  18
ENDBRANCH   1  17
TORSDOF 6
ENDMDL
