MODEL 1
REMARK VINA RESULT:      -9.0      0.000      0.000
REMARK  Name = 
REMARK  8 active torsions:
REMARK  status: ('A' for Active; 'I' for Inactive)
REMARK    1  A    between atoms: C_1  and  C_2
REMARK    2  A    between atoms: C_5  and  S_6
REMARK    3  A    between atoms: S_6  and  N_9
REMARK    4  A    between atoms: N_9  and  C_10
REMARK    5  A    between atoms: C_14  and  C_15
REMARK    6  A    between atoms: N_17  and  C_18
REMARK    7  A    between atoms: N_21  and  C_22
REMARK    8  A    between atoms: C_22  and  C_23
REMARK                            x       y       z     vdW  Elec       q    Type
REMARK                         _______ _______ _______ _____ _____    ______ ____
ROOT
ATOM      1  C   UNL     1       2.883   6.636  19.509  0.00  0.00    +0.000 A 
ATOM      2  C   UNL     1       3.375   6.928  18.237  0.00  0.00    +0.000 A 
ATOM      3  C   UNL     1       2.950   8.086  17.573  0.00  0.00    +0.000 A 
ATOM      4  C   UNL     1       2.034   8.946  18.180  0.00  0.00    +0.000 A 
ATOM      5  C   UNL     1       1.547   8.654  19.461  0.00  0.00    +0.000 A 
ATOM      6  C   UNL     1       1.997   7.510  20.135  0.00  0.00    +0.000 A 
ENDROOT
BRANCH   5   7
ATOM      7  C   UNL     1       0.562   9.528  20.152  0.00  0.00    +0.000 C 
ATOM      8  O   UNL     1       0.087   9.167  21.221  0.00  0.00    +0.000 OA
ATOM      9  N   UNL     1       0.208  10.699  19.504  0.00  0.00    +0.000 N 
ATOM     10  H   UNL     1       0.494  10.824  18.543  0.00  0.00    +0.000 HD
BRANCH   9  11
ATOM     11  C   UNL     1      -0.812  11.601  20.052  0.00  0.00    +0.000 C 
ATOM     12  C   UNL     1      -1.359  12.581  19.014  0.00  0.00    +0.000 C 
ATOM     13  C   UNL     1      -0.396  13.729  18.695  0.00  0.00    +0.000 C 
ATOM     14  N   UNL     1       0.125  14.424  19.885  0.00  0.00    +0.000 NA
ATOM     15  C   UNL     1       0.670  13.485  20.880  0.00  0.00    +0.000 C 
ATOM     16  C   UNL     1      -0.298  12.370  21.265  0.00  0.00    +0.000 C 
BRANCH  14  17
ATOM     17  C   UNL     1       1.193  15.386  19.517  0.00  0.00    +0.000 C 
BRANCH  17  18
ATOM     18  C   UNL     1       0.775  16.516  18.601  0.00  0.00    +0.000 A 
ATOM     19  C   UNL     1       1.679  17.077  17.687  0.00  0.00    +0.000 A 
ATOM     20  C   UNL     1       1.272  18.097  16.824  0.00  0.00    +0.000 A 
ATOM     21  C   UNL     1      -0.041  18.565  16.858  0.00  0.00    +0.000 A 
ATOM     22  C   UNL     1      -0.952  18.009  17.754  0.00  0.00    +0.000 A 
ATOM     23  C   UNL     1      -0.547  16.990  18.619  0.00  0.00    +0.000 A 
ENDBRANCH  17  18
ENDBRANCH  14  17
ENDBRANCH   9  11
ENDBRANCH   5   7
BRANCH   1  24
ATOM     24  N   UNL     1       3.247   5.420  20.139  0.00  0.00    +0.000 N 
ATOM     25  H   UNL     1       3.954   5.448  20.873  0.00  0.00    +0.000 HD
BRANCH  24  26
ATOM     26  S   UNL     1       3.213   3.962  19.304  0.00  0.00    +0.000 S 
ATOM     27  O   UNL     1       1.912   3.796  18.690  0.00  0.00    +0.000 OA
ATOM     28  O   UNL     1       3.746   2.965  20.209  0.00  0.00    +0.000 OA
BRANCH  26  33
ATOM     29  C   UNL     1       7.351   4.748  14.932  0.00  0.00    +0.000 C 
ATOM     30  C   UNL     1       6.316   4.536  15.996  0.00  0.00    +0.000 A 
ATOM     31  C   UNL     1       4.969   4.310  15.668  0.00  0.00    +0.000 A 
ATOM     32  C   UNL     1       4.020   4.133  16.676  0.00  0.00    +0.000 A 
ATOM     33  C   UNL     1       4.410   4.199  18.015  0.00  0.00    +0.000 A 
ATOM     34  C   UNL     1       5.750   4.397  18.357  0.00  0.00    +0.000 A 
ATOM     35  C   UNL     1       6.686   4.567  17.344  0.00  0.00    +0.000 A 
ATOM     36  F   UNL     1       7.969   4.766  17.676  0.00  0.00    +0.000 F 
ENDBRANCH  26  33
ENDBRANCH  24  26
ENDBRANCH   1  24
TORSDOF 7
ENDMDL
MODEL 2
REMARK VINA RESULT:      -8.9      4.484     11.303
REMARK  Name = 
REMARK  8 active torsions:
REMARK  status: ('A' for Active; 'I' for Inactive)
REMARK    1  A    between atoms: C_1  and  C_2
REMARK    2  A    between atoms: C_5  and  S_6
REMARK    3  A    between atoms: S_6  and  N_9
REMARK    4  A    between atoms: N_9  and  C_10
REMARK    5  A    between atoms: C_14  and  C_15
REMARK    6  A    between atoms: N_17  and  C_18
REMARK    7  A    between atoms: N_21  and  C_22
REMARK    8  A    between atoms: C_22  and  C_23
REMARK                            x       y       z     vdW  Elec       q    Type
REMARK                         _______ _______ _______ _____ _____    ______ ____
ROOT
ATOM      1  C   UNL     1       0.719   9.116  19.835  0.00  0.00    +0.000 A 
ATOM      2  C   UNL     1       0.926   9.987  18.765  0.00  0.00    +0.000 A 
ATOM      3  C   UNL     1       1.887   9.683  17.793  0.00  0.00    +0.000 A 
ATOM      4  C   UNL     1       2.639   8.511  17.893  0.00  0.00    +0.000 A 
ATOM      5  C   UNL     1       2.424   7.635  18.965  0.00  0.00    +0.000 A 
ATOM      6  C   UNL     1       1.441   7.928  19.921  0.00  0.00    +0.000 A 
ENDROOT
BRANCH   5   7
ATOM      7  C   UNL     1       3.203   6.378  19.129  0.00  0.00    +0.000 C 
ATOM      8  O   UNL     1       2.997   5.668  20.104  0.00  0.00    +0.000 OA
ATOM      9  N   UNL     1       4.162   6.112  18.167  0.00  0.00    +0.000 N 
ATOM     10  H   UNL     1       4.402   6.841  17.509  0.00  0.00    +0.000 HD
BRANCH   9  11
ATOM     11  C   UNL     1       5.044   4.943  18.266  0.00  0.00    +0.000 C 
ATOM     12  C   UNL     1       6.524   5.300  18.118  0.00  0.00    +0.000 C 
ATOM     13  C   UNL     1       6.936   5.593  16.672  0.00  0.00    +0.000 C 
ATOM     14  N   UNL     1       6.522   4.559  15.708  0.00  0.00    +0.000 NA
ATOM     15  C   UNL     1       5.093   4.226  15.833  0.00  0.00    +0.000 C 
ATOM     16  C   UNL     1       4.671   3.863  17.254  0.00  0.00    +0.000 C 
BRANCH  14  17
ATOM     17  C   UNL     1       6.778   4.997  14.313  0.00  0.00    +0.000 C 
BRANCH  17  18
ATOM     18  C   UNL     1       6.320   4.045  13.229  0.00  0.00    +0.000 A 
ATOM     19  C   UNL     1       4.962   3.926  12.898  0.00  0.00    +0.000 A 
ATOM     20  C   UNL     1       4.554   3.070  11.873  0.00  0.00    +0.000 A 
ATOM     21  C   UNL     1       5.496   2.324  11.164  0.00  0.00    +0.000 A 
ATOM     22  C   UNL     1       6.849   2.440  11.476  0.00  0.00    +0.000 A 
ATOM     23  C   UNL     1       7.258   3.296  12.501  0.00  0.00    +0.000 A 
ENDBRANCH  17  18
ENDBRANCH  14  17
ENDBRANCH   9  11
ENDBRANCH   5   7
BRANCH   1  24
ATOM     24  N   UNL     1      -0.190   9.472  20.863  0.00  0.00    +0.000 N 
ATOM     25  H   UNL     1      -1.188   9.381  20.677  0.00  0.00    +0.000 HD
BRANCH  24  26
ATOM     26  S   UNL     1       0.175  10.684  21.968  0.00  0.00    +0.000 S 
ATOM     27  O   UNL     1       1.166  11.569  21.393  0.00  0.00    +0.000 OA
ATOM     28  O   UNL     1       0.408  10.020  23.233  0.00  0.00    +0.000 OA
BRANCH  26  33
ATOM     29  C   UNL     1      -5.033  13.753  22.531  0.00  0.00    +0.000 C 
ATOM     30  C   UNL     1      -3.737  13.014  22.376  0.00  0.00    +0.000 A 
ATOM     31  C   UNL     1      -3.042  13.012  21.156  0.00  0.00    +0.000 A 
ATOM     32  C   UNL     1      -1.846  12.303  21.029  0.00  0.00    +0.000 A 
ATOM     33  C   UNL     1      -1.351  11.579  22.115  0.00  0.00    +0.000 A 
ATOM     34  C   UNL     1      -2.018  11.592  23.343  0.00  0.00    +0.000 A 
ATOM     35  C   UNL     1      -3.204  12.306  23.457  0.00  0.00    +0.000 A 
ATOM     36  F   UNL     1      -3.846  12.308  24.634  0.00  0.00    +0.000 F 
ENDBRANCH  26  33
ENDBRANCH  24  26
ENDBRANCH   1  24
TORSDOF 7
ENDMDL
MODEL 3
REMARK VINA RESULT:      -8.7      5.642     11.358
REMARK  Name = 
REMARK  8 active torsions:
REMARK  status: ('A' for Active; 'I' for Inactive)
REMARK    1  A    between atoms: C_1  and  C_2
REMARK    2  A    between atoms: C_5  and  S_6
REMARK    3  A    between atoms: S_6  and  N_9
REMARK    4  A    between atoms: N_9  and  C_10
REMARK    5  A    between atoms: C_14  and  C_15
REMARK    6  A    between atoms: N_17  and  C_18
REMARK    7  A    between atoms: N_21  and  C_22
REMARK    8  A    between atoms: C_22  and  C_23
REMARK                            x       y       z     vdW  Elec       q    Type
REMARK                         _______ _______ _______ _____ _____    ______ ____
ROOT
ATOM      1  C   UNL     1      -4.322  11.607  17.038  0.00  0.00    +0.000 A 
ATOM      2  C   UNL     1      -4.342  10.803  15.898  0.00  0.00    +0.000 A 
ATOM      3  C   UNL     1      -3.258   9.962  15.618  0.00  0.00    +0.000 A 
ATOM      4  C   UNL     1      -2.157   9.928  16.476  0.00  0.00    +0.000 A 
ATOM      5  C   UNL     1      -2.144  10.730  17.624  0.00  0.00    +0.000 A 
ATOM      6  C   UNL     1      -3.243  11.550  17.916  0.00  0.00    +0.000 A 
ENDROOT
BRANCH   5   7
ATOM      7  C   UNL     1      -0.994  10.743  18.567  0.00  0.00    +0.000 C 
ATOM      8  O   UNL     1      -1.044  11.452  19.564  0.00  0.00    +0.000 OA
ATOM      9  N   UNL     1       0.099   9.966  18.225  0.00  0.00    +0.000 N 
ATOM     10  H   UNL     1       0.138   9.570  17.296  0.00  0.00    +0.000 HD
BRANCH   9  11
ATOM     11  C   UNL     1       1.322   9.960  19.038  0.00  0.00    +0.000 C 
ATOM     12  C   UNL     1       2.589   9.763  18.206  0.00  0.00    +0.000 C 
ATOM     13  C   UNL     1       2.792   8.317  17.740  0.00  0.00    +0.000 C 
ATOM     14  N   UNL     1       2.681   7.319  18.818  0.00  0.00    +0.000 NA
ATOM     15  C   UNL     1       1.452   7.492  19.610  0.00  0.00    +0.000 C 
ATOM     16  C   UNL     1       1.263   8.910  20.143  0.00  0.00    +0.000 C 
BRANCH  14  17
ATOM     17  C   UNL     1       2.692   5.939  18.271  0.00  0.00    +0.000 C 
BRANCH  17  18
ATOM     18  C   UNL     1       2.229   4.851  19.216  0.00  0.00    +0.000 A 
ATOM     19  C   UNL     1       2.727   4.771  20.524  0.00  0.00    +0.000 A 
ATOM     20  C   UNL     1       2.267   3.783  21.398  0.00  0.00    +0.000 A 
ATOM     21  C   UNL     1       1.303   2.867  20.978  0.00  0.00    +0.000 A 
ATOM     22  C   UNL     1       0.793   2.942  19.684  0.00  0.00    +0.000 A 
ATOM     23  C   UNL     1       1.252   3.929  18.809  0.00  0.00    +0.000 A 
ENDBRANCH  17  18
ENDBRANCH  14  17
ENDBRANCH   9  11
ENDBRANCH   5   7
BRANCH   1  24
ATOM     24  N   UNL     1      -5.380  12.522  17.269  0.00  0.00    +0.000 N 
ATOM     25  H   UNL     1      -5.182  13.519  17.192  0.00  0.00    +0.000 HD
BRANCH  24  26
ATOM     26  S   UNL     1      -6.615  12.169  18.352  0.00  0.00    +0.000 S 
ATOM     27  O   UNL     1      -6.616  10.747  18.626  0.00  0.00    +0.000 OA
ATOM     28  O   UNL     1      -7.798  12.834  17.846  0.00  0.00    +0.000 OA
BRANCH  26  33
ATOM     29  C   UNL     1      -4.883  15.045  23.409  0.00  0.00    +0.000 C 
ATOM     30  C   UNL     1      -5.307  14.357  22.146  0.00  0.00    +0.000 A 
ATOM     31  C   UNL     1      -6.038  15.035  21.158  0.00  0.00    +0.000 A 
ATOM     32  C   UNL     1      -6.438  14.370  19.998  0.00  0.00    +0.000 A 
ATOM     33  C   UNL     1      -6.123  13.020  19.829  0.00  0.00    +0.000 A 
ATOM     34  C   UNL     1      -5.374  12.338  20.791  0.00  0.00    +0.000 A 
ATOM     35  C   UNL     1      -4.978  13.014  21.940  0.00  0.00    +0.000 A 
ATOM     36  F   UNL     1      -4.267  12.354  22.865  0.00  0.00    +0.000 F 
ENDBRANCH  26  33
ENDBRANCH  24  26
ENDBRANCH   1  24
TORSDOF 7
ENDMDL
MODEL 4
REMARK VINA RESULT:      -8.7      2.985      4.080
REMARK  Name = 
REMARK  8 active torsions:
REMARK  status: ('A' for Active; 'I' for Inactive)
REMARK    1  A    between atoms: C_1  and  C_2
REMARK    2  A    between atoms: C_5  and  S_6
REMARK    3  A    between atoms: S_6  and  N_9
REMARK    4  A    between atoms: N_9  and  C_10
REMARK    5  A    between atoms: C_14  and  C_15
REMARK    6  A    between atoms: N_17  and  C_18
REMARK    7  A    between atoms: N_21  and  C_22
REMARK    8  A    between atoms: C_22  and  C_23
REMARK                            x       y       z     vdW  Elec       q    Type
REMARK                         _______ _______ _______ _____ _____    ______ ____
ROOT
ATOM      1  C   UNL     1       2.271   5.169  18.751  0.00  0.00    +0.000 A 
ATOM      2  C   UNL     1       2.223   4.972  20.131  0.00  0.00    +0.000 A 
ATOM      3  C   UNL     1       2.000   6.060  20.984  0.00  0.00    +0.000 A 
ATOM      4  C   UNL     1       1.826   7.340  20.456  0.00  0.00    +0.000 A 
ATOM      5  C   UNL     1       1.867   7.534  19.069  0.00  0.00    +0.000 A 
ATOM      6  C   UNL     1       2.062   6.438  18.216  0.00  0.00    +0.000 A 
ENDROOT
BRANCH   5   7
ATOM      7  C   UNL     1       1.699   8.876  18.452  0.00  0.00    +0.000 C 
ATOM      8  O   UNL     1       2.367   9.172  17.469  0.00  0.00    +0.000 OA
ATOM      9  N   UNL     1       0.809   9.738  19.070  0.00  0.00    +0.000 N 
ATOM     10  H   UNL     1       0.451   9.489  19.982  0.00  0.00    +0.000 HD
BRANCH   9  11
ATOM     11  C   UNL     1       0.620  11.115  18.598  0.00  0.00    +0.000 C 
ATOM     12  C   UNL     1       1.597  12.103  19.235  0.00  0.00    +0.000 C 
ATOM     13  C   UNL     1       1.242  12.462  20.682  0.00  0.00    +0.000 C 
ATOM     14  N   UNL     1      -0.159  12.876  20.870  0.00  0.00    +0.000 NA
ATOM     15  C   UNL     1      -1.105  11.918  20.275  0.00  0.00    +0.000 C 
ATOM     16  C   UNL     1      -0.812  11.596  18.812  0.00  0.00    +0.000 C 
BRANCH  14  17
ATOM     17  C   UNL     1      -0.484  13.018  22.311  0.00  0.00    +0.000 C 
BRANCH  17  18
ATOM     18  C   UNL     1      -1.949  13.219  22.640  0.00  0.00    +0.000 A 
ATOM     19  C   UNL     1      -2.666  12.253  23.360  0.00  0.00    +0.000 A 
ATOM     20  C   UNL     1      -4.008  12.464  23.687  0.00  0.00    +0.000 A 
ATOM     21  C   UNL     1      -4.648  13.642  23.302  0.00  0.00    +0.000 A 
ATOM     22  C   UNL     1      -3.944  14.614  22.594  0.00  0.00    +0.000 A 
ATOM     23  C   UNL     1      -2.602  14.404  22.267  0.00  0.00    +0.000 A 
ENDBRANCH  17  18
ENDBRANCH  14  17
ENDBRANCH   9  11
ENDBRANCH   5   7
BRANCH   1  24
ATOM     24  N   UNL     1       2.586   4.081  17.898  0.00  0.00    +0.000 N 
ATOM     25  H   UNL     1       1.840   3.433  17.646  0.00  0.00    +0.000 HD
BRANCH  24  26
ATOM     26  S   UNL     1       4.108   3.370  17.920  0.00  0.00    +0.000 S 
ATOM     27  O   UNL     1       4.279   2.572  16.724  0.00  0.00    +0.000 OA
ATOM     28  O   UNL     1       4.262   2.787  19.237  0.00  0.00    +0.000 OA
BRANCH  26  33
ATOM     29  C   UNL     1       7.924   8.082  17.625  0.00  0.00    +0.000 C 
ATOM     30  C   UNL     1       6.982   6.916  17.671  0.00  0.00    +0.000 A 
ATOM     31  C   UNL     1       5.992   6.741  16.691  0.00  0.00    +0.000 A 
ATOM     32  C   UNL     1       5.113   5.659  16.764  0.00  0.00    +0.000 A 
ATOM     33  C   UNL     1       5.212   4.757  17.825  0.00  0.00    +0.000 A 
ATOM     34  C   UNL     1       6.208   4.903  18.794  0.00  0.00    +0.000 A 
ATOM     35  C   UNL     1       7.078   5.983  18.707  0.00  0.00    +0.000 A 
ATOM     36  F   UNL     1       8.027   6.125  19.644  0.00  0.00    +0.000 F 
ENDBRANCH  26  33
ENDBRANCH  24  26
ENDBRANCH   1  24
TORSDOF 7
ENDMDL
MODEL 5
REMARK VINA RESULT:      -8.6      4.440      6.684
REMARK  Name = 
REMARK  8 active torsions:
REMARK  status: ('A' for Active; 'I' for Inactive)
REMARK    1  A    between atoms: C_1  and  C_2
REMARK    2  A    between atoms: C_5  and  S_6
REMARK    3  A    between atoms: S_6  and  N_9
REMARK    4  A    between atoms: N_9  and  C_10
REMARK    5  A    between atoms: C_14  and  C_15
REMARK    6  A    between atoms: N_17  and  C_18
REMARK    7  A    between atoms: N_21  and  C_22
REMARK    8  A    between atoms: C_22  and  C_23
REMARK                            x       y       z     vdW  Elec       q    Type
REMARK                         _______ _______ _______ _____ _____    ______ ____
ROOT
ATOM      1  C   UNL     1      -1.457  11.105  18.302  0.00  0.00    +0.000 A 
ATOM      2  C   UNL     1      -1.424  10.024  17.420  0.00  0.00    +0.000 A 
ATOM      3  C   UNL     1      -2.600   9.609  16.781  0.00  0.00    +0.000 A 
ATOM      4  C   UNL     1      -3.803  10.274  17.026  0.00  0.00    +0.000 A 
ATOM      5  C   UNL     1      -3.830  11.363  17.906  0.00  0.00    +0.000 A 
ATOM      6  C   UNL     1      -2.647  11.794  18.522  0.00  0.00    +0.000 A 
ENDROOT
BRANCH   5   7
ATOM      7  C   UNL     1      -5.085  12.101  18.213  0.00  0.00    +0.000 C 
ATOM      8  O   UNL     1      -5.699  12.644  17.304  0.00  0.00    +0.000 OA
ATOM      9  N   UNL     1      -5.459  12.163  19.545  0.00  0.00    +0.000 N 
ATOM     10  H   UNL     1      -4.799  11.860  20.247  0.00  0.00    +0.000 HD
BRANCH   9  11
ATOM     11  C   UNL     1      -6.634  12.929  19.977  0.00  0.00    +0.000 C 
ATOM     12  C   UNL     1      -6.344  14.420  20.145  0.00  0.00    +0.000 C 
ATOM     13  C   UNL     1      -5.559  14.747  21.419  0.00  0.00    +0.000 C 
ATOM     14  N   UNL     1      -6.129  14.158  22.643  0.00  0.00    +0.000 NA
ATOM     15  C   UNL     1      -6.392  12.717  22.492  0.00  0.00    +0.000 C 
ATOM     16  C   UNL     1      -7.232  12.372  21.266  0.00  0.00    +0.000 C 
BRANCH  14  17
ATOM     17  C   UNL     1      -5.220  14.347  23.800  0.00  0.00    +0.000 C 
BRANCH  17  18
ATOM     18  C   UNL     1      -3.767  13.991  23.563  0.00  0.00    +0.000 A 
ATOM     19  C   UNL     1      -2.769  14.975  23.586  0.00  0.00    +0.000 A 
ATOM     20  C   UNL     1      -1.429  14.630  23.400  0.00  0.00    +0.000 A 
ATOM     21  C   UNL     1      -1.069  13.298  23.191  0.00  0.00    +0.000 A 
ATOM     22  C   UNL     1      -2.050  12.309  23.174  0.00  0.00    +0.000 A 
ATOM     23  C   UNL     1      -3.391  12.653  23.361  0.00  0.00    +0.000 A 
ENDBRANCH  17  18
ENDBRANCH  14  17
ENDBRANCH   9  11
ENDBRANCH   5   7
BRANCH   1  24
ATOM     24  N   UNL     1      -0.284  11.464  19.013  0.00  0.00    +0.000 N 
ATOM     25  H   UNL     1       0.473  11.915  18.501  0.00  0.00    +0.000 HD
BRANCH  24  26
ATOM     26  S   UNL     1       0.245  10.564  20.329  0.00  0.00    +0.000 S 
ATOM     27  O   UNL     1      -0.892   9.928  20.961  0.00  0.00    +0.000 OA
ATOM     28  O   UNL     1       1.132  11.429  21.080  0.00  0.00    +0.000 OA
BRANCH  26  33
ATOM     29  C   UNL     1       3.640   6.200  17.821  0.00  0.00    +0.000 C 
ATOM     30  C   UNL     1       2.791   7.284  18.416  0.00  0.00    +0.000 A 
ATOM     31  C   UNL     1       2.531   8.472  17.716  0.00  0.00    +0.000 A 
ATOM     32  C   UNL     1       1.753   9.475  18.297  0.00  0.00    +0.000 A 
ATOM     33  C   UNL     1       1.247   9.300  19.586  0.00  0.00    +0.000 A 
ATOM     34  C   UNL     1       1.475   8.112  20.286  0.00  0.00    +0.000 A 
ATOM     35  C   UNL     1       2.248   7.120  19.694  0.00  0.00    +0.000 A 
ATOM     36  F   UNL     1       2.473   5.985  20.372  0.00  0.00    +0.000 F 
ENDBRANCH  26  33
ENDBRANCH  24  26
ENDBRANCH   1  24
TORSDOF 7
ENDMDL
MODEL 6
REMARK VINA RESULT:      -8.6      1.496      2.093
REMARK  Name = 
REMARK  8 active torsions:
REMARK  status: ('A' for Active; 'I' for Inactive)
REMARK    1  A    between atoms: C_1  and  C_2
REMARK    2  A    between atoms: C_5  and  S_6
REMARK    3  A    between atoms: S_6  and  N_9
REMARK    4  A    between atoms: N_9  and  C_10
REMARK    5  A    between atoms: C_14  and  C_15
REMARK    6  A    between atoms: N_17  and  C_18
REMARK    7  A    between atoms: N_21  and  C_22
REMARK    8  A    between atoms: C_22  and  C_23
REMARK                            x       y       z     vdW  Elec       q    Type
REMARK                         _______ _______ _______ _____ _____    ______ ____
ROOT
ATOM      1  C   UNL     1       2.346   7.198  19.794  0.00  0.00    +0.000 A 
ATOM      2  C   UNL     1       2.740   7.461  18.482  0.00  0.00    +0.000 A 
ATOM      3  C   UNL     1       2.249   8.593  17.820  0.00  0.00    +0.000 A 
ATOM      4  C   UNL     1       1.364   9.457  18.469  0.00  0.00    +0.000 A 
ATOM      5  C   UNL     1       0.977   9.193  19.789  0.00  0.00    +0.000 A 
ATOM      6  C   UNL     1       1.493   8.075  20.459  0.00  0.00    +0.000 A 
ENDROOT
BRANCH   5   7
ATOM      7  C   UNL     1       0.030  10.072  20.527  0.00  0.00    +0.000 C 
ATOM      8  O   UNL     1      -0.569   9.626  21.497  0.00  0.00    +0.000 OA
ATOM      9  N   UNL     1      -0.148  11.351  20.028  0.00  0.00    +0.000 N 
ATOM     10  H   UNL     1       0.230  11.571  19.117  0.00  0.00    +0.000 HD
BRANCH   9  11
ATOM     11  C   UNL     1      -1.115  12.280  20.625  0.00  0.00    +0.000 C 
ATOM     12  C   UNL     1      -1.426  13.475  19.724  0.00  0.00    +0.000 C 
ATOM     13  C   UNL     1      -0.309  14.524  19.698  0.00  0.00    +0.000 C 
ATOM     14  N   UNL     1       0.148  14.946  21.033  0.00  0.00    +0.000 NA
ATOM     15  C   UNL     1       0.468  13.798  21.898  0.00  0.00    +0.000 C 
ATOM     16  C   UNL     1      -0.658  12.772  21.995  0.00  0.00    +0.000 C 
BRANCH  14  17
ATOM     17  C   UNL     1       1.353  15.807  20.937  0.00  0.00    +0.000 C 
BRANCH  17  18
ATOM     18  C   UNL     1       2.117  15.728  19.632  0.00  0.00    +0.000 A 
ATOM     19  C   UNL     1       2.043  16.762  18.688  0.00  0.00    +0.000 A 
ATOM     20  C   UNL     1       2.779  16.693  17.502  0.00  0.00    +0.000 A 
ATOM     21  C   UNL     1       3.599  15.594  17.247  0.00  0.00    +0.000 A 
ATOM     22  C   UNL     1       3.689  14.564  18.181  0.00  0.00    +0.000 A 
ATOM     23  C   UNL     1       2.954  14.632  19.367  0.00  0.00    +0.000 A 
ENDBRANCH  17  18
ENDBRANCH  14  17
ENDBRANCH   9  11
ENDBRANCH   5   7
BRANCH   1  24
ATOM     24  N   UNL     1       2.776   6.005  20.428  0.00  0.00    +0.000 N 
ATOM     25  H   UNL     1       3.553   6.060  21.085  0.00  0.00    +0.000 HD
BRANCH  24  26
ATOM     26  S   UNL     1       2.660   4.517  19.655  0.00  0.00    +0.000 S 
ATOM     27  O   UNL     1       1.448   4.484  18.864  0.00  0.00    +0.000 OA
ATOM     28  O   UNL     1       2.921   3.515  20.667  0.00  0.00    +0.000 OA
BRANCH  26  33
ATOM     29  C   UNL     1       7.366   4.548  15.821  0.00  0.00    +0.000 C 
ATOM     30  C   UNL     1       6.215   4.560  16.782  0.00  0.00    +0.000 A 
ATOM     31  C   UNL     1       6.411   4.813  18.149  0.00  0.00    +0.000 A 
ATOM     32  C   UNL     1       5.327   4.802  19.029  0.00  0.00    +0.000 A 
ATOM     33  C   UNL     1       4.047   4.521  18.547  0.00  0.00    +0.000 A 
ATOM     34  C   UNL     1       3.832   4.293  17.186  0.00  0.00    +0.000 A 
ATOM     35  C   UNL     1       4.919   4.311  16.320  0.00  0.00    +0.000 A 
ATOM     36  F   UNL     1       4.711   4.082  15.016  0.00  0.00    +0.000 F 
ENDBRANCH  26  33
ENDBRANCH  24  26
ENDBRANCH   1  24
TORSDOF 7
ENDMDL
MODEL 7
REMARK VINA RESULT:      -8.6      1.135      1.376
REMARK  Name = 
REMARK  8 active torsions:
REMARK  status: ('A' for Active; 'I' for Inactive)
REMARK    1  A    between atoms: C_1  and  C_2
REMARK    2  A    between atoms: C_5  and  S_6
REMARK    3  A    between atoms: S_6  and  N_9
REMARK    4  A    between atoms: N_9  and  C_10
REMARK    5  A    between atoms: C_14  and  C_15
REMARK    6  A    between atoms: N_17  and  C_18
REMARK    7  A    between atoms: N_21  and  C_22
REMARK    8  A    between atoms: C_22  and  C_23
REMARK                            x       y       z     vdW  Elec       q    Type
REMARK                         _______ _______ _______ _____ _____    ______ ____
ROOT
ATOM      1  C   UNL     1       1.903   7.057  20.517  0.00  0.00    +0.000 A 
ATOM      2  C   UNL     1       2.266   7.187  19.176  0.00  0.00    +0.000 A 
ATOM      3  C   UNL     1       1.878   8.324  18.455  0.00  0.00    +0.000 A 
ATOM      4  C   UNL     1       1.128   9.325  19.076  0.00  0.00    +0.000 A 
ATOM      5  C   UNL     1       0.772   9.195  20.424  0.00  0.00    +0.000 A 
ATOM      6  C   UNL     1       1.186   8.069  21.150  0.00  0.00    +0.000 A 
ENDROOT
BRANCH   5   7
ATOM      7  C   UNL     1      -0.035  10.224  21.133  0.00  0.00    +0.000 C 
ATOM      8  O   UNL     1      -0.519   9.958  22.225  0.00  0.00    +0.000 OA
ATOM      9  N   UNL     1      -0.225  11.427  20.475  0.00  0.00    +0.000 N 
ATOM     10  H   UNL     1       0.040  11.492  19.502  0.00  0.00    +0.000 HD
BRANCH   9  11
ATOM     11  C   UNL     1      -1.067  12.487  21.041  0.00  0.00    +0.000 C 
ATOM     12  C   UNL     1      -1.648  13.418  19.976  0.00  0.00    +0.000 C 
ATOM     13  C   UNL     1      -0.626  14.414  19.417  0.00  0.00    +0.000 C 
ATOM     14  N   UNL     1       0.116  15.156  20.451  0.00  0.00    +0.000 NA
ATOM     15  C   UNL     1       0.694  14.262  21.468  0.00  0.00    +0.000 C 
ATOM     16  C   UNL     1      -0.320  13.306  22.090  0.00  0.00    +0.000 C 
BRANCH  14  17
ATOM     17  C   UNL     1       1.215  15.951  19.850  0.00  0.00    +0.000 C 
BRANCH  17  18
ATOM     18  C   UNL     1       0.812  16.909  18.749  0.00  0.00    +0.000 A 
ATOM     19  C   UNL     1       1.745  17.359  17.805  0.00  0.00    +0.000 A 
ATOM     20  C   UNL     1       1.354  18.216  16.774  0.00  0.00    +0.000 A 
ATOM     21  C   UNL     1       0.026  18.630  16.670  0.00  0.00    +0.000 A 
ATOM     22  C   UNL     1      -0.914  18.182  17.596  0.00  0.00    +0.000 A 
ATOM     23  C   UNL     1      -0.524  17.325  18.628  0.00  0.00    +0.000 A 
ENDBRANCH  17  18
ENDBRANCH  14  17
ENDBRANCH   9  11
ENDBRANCH   5   7
BRANCH   1  24
ATOM     24  N   UNL     1       2.220   5.865  21.216  0.00  0.00    +0.000 N 
ATOM     25  H   UNL     1       3.010   5.879  21.861  0.00  0.00    +0.000 HD
BRANCH  24  26
ATOM     26  S   UNL     1       1.944   4.355  20.533  0.00  0.00    +0.000 S 
ATOM     27  O   UNL     1       0.614   4.326  19.962  0.00  0.00    +0.000 OA
ATOM     28  O   UNL     1       2.354   3.382  21.524  0.00  0.00    +0.000 OA
BRANCH  26  33
ATOM     29  C   UNL     1       6.012   4.092  16.034  0.00  0.00    +0.000 C 
ATOM     30  C   UNL     1       4.994   4.136  17.134  0.00  0.00    +0.000 A 
ATOM     31  C   UNL     1       3.639   3.867  16.884  0.00  0.00    +0.000 A 
ATOM     32  C   UNL     1       2.705   3.932  17.920  0.00  0.00    +0.000 A 
ATOM     33  C   UNL     1       3.121   4.283  19.206  0.00  0.00    +0.000 A 
ATOM     34  C   UNL     1       4.470   4.528  19.477  0.00  0.00    +0.000 A 
ATOM     35  C   UNL     1       5.389   4.456  18.437  0.00  0.00    +0.000 A 
ATOM     36  F   UNL     1       6.681   4.701  18.698  0.00  0.00    +0.000 F 
ENDBRANCH  26  33
ENDBRANCH  24  26
ENDBRANCH   1  24
TORSDOF 7
ENDMDL
MODEL 8
REMARK VINA RESULT:      -8.6      1.325      1.890
REMARK  Name = 
REMARK  8 active torsions:
REMARK  status: ('A' for Active; 'I' for Inactive)
REMARK    1  A    between atoms: C_1  and  C_2
REMARK    2  A    between atoms: C_5  and  S_6
REMARK    3  A    between atoms: S_6  and  N_9
REMARK    4  A    between atoms: N_9  and  C_10
REMARK    5  A    between atoms: C_14  and  C_15
REMARK    6  A    between atoms: N_17  and  C_18
REMARK    7  A    between atoms: N_21  and  C_22
REMARK    8  A    between atoms: C_22  and  C_23
REMARK                            x       y       z     vdW  Elec       q    Type
REMARK                         _______ _______ _______ _____ _____    ______ ____
ROOT
ATOM      1  C   UNL     1       2.681   6.651  19.725  0.00  0.00    +0.000 A 
ATOM      2  C   UNL     1       3.009   7.056  18.431  0.00  0.00    +0.000 A 
ATOM      3  C   UNL     1       2.436   8.216  17.895  0.00  0.00    +0.000 A 
ATOM      4  C   UNL     1       1.535   8.967  18.654  0.00  0.00    +0.000 A 
ATOM      5  C   UNL     1       1.214   8.562  19.956  0.00  0.00    +0.000 A 
ATOM      6  C   UNL     1       1.811   7.416  20.499  0.00  0.00    +0.000 A 
ENDROOT
BRANCH   5   7
ATOM      7  C   UNL     1       0.254   9.317  20.805  0.00  0.00    +0.000 C 
ATOM      8  O   UNL     1      -0.308   8.743  21.728  0.00  0.00    +0.000 OA
ATOM      9  N   UNL     1       0.022  10.637  20.458  0.00  0.00    +0.000 N 
ATOM     10  H   UNL     1       0.373  10.972  19.572  0.00  0.00    +0.000 HD
BRANCH   9  11
ATOM     11  C   UNL     1      -0.963  11.457  21.174  0.00  0.00    +0.000 C 
ATOM     12  C   UNL     1      -2.017  12.065  20.248  0.00  0.00    +0.000 C 
ATOM     13  C   UNL     1      -1.497  13.253  19.432  0.00  0.00    +0.000 C 
ATOM     14  N   UNL     1      -0.815  14.281  20.237  0.00  0.00    +0.000 NA
ATOM     15  C   UNL     1       0.215  13.702  21.116  0.00  0.00    +0.000 C 
ATOM     16  C   UNL     1      -0.296  12.560  21.990  0.00  0.00    +0.000 C 
BRANCH  14  17
ATOM     17  C   UNL     1      -0.170  15.297  19.369  0.00  0.00    +0.000 C 
BRANCH  17  18
ATOM     18  C   UNL     1       1.277  15.035  19.010  0.00  0.00    +0.000 A 
ATOM     19  C   UNL     1       2.273  15.982  19.288  0.00  0.00    +0.000 A 
ATOM     20  C   UNL     1       3.610  15.715  18.983  0.00  0.00    +0.000 A 
ATOM     21  C   UNL     1       3.968  14.499  18.401  0.00  0.00    +0.000 A 
ATOM     22  C   UNL     1       2.990  13.545  18.129  0.00  0.00    +0.000 A 
ATOM     23  C   UNL     1       1.653  13.811  18.433  0.00  0.00    +0.000 A 
ENDBRANCH  17  18
ENDBRANCH  14  17
ENDBRANCH   9  11
ENDBRANCH   5   7
BRANCH   1  24
ATOM     24  N   UNL     1       3.194   5.430  20.228  0.00  0.00    +0.000 N 
ATOM     25  H   UNL     1       4.008   5.463  20.840  0.00  0.00    +0.000 HD
BRANCH  24  26
ATOM     26  S   UNL     1       3.087   4.008  19.339  0.00  0.00    +0.000 S 
ATOM     27  O   UNL     1       1.788   3.939  18.704  0.00  0.00    +0.000 OA
ATOM     28  O   UNL     1       3.550   2.950  20.213  0.00  0.00    +0.000 OA
BRANCH  26  33
ATOM     29  C   UNL     1       7.325   4.718  15.051  0.00  0.00    +0.000 C 
ATOM     30  C   UNL     1       6.267   4.523  16.095  0.00  0.00    +0.000 A 
ATOM     31  C   UNL     1       4.941   4.227  15.742  0.00  0.00    +0.000 A 
ATOM     32  C   UNL     1       3.968   4.067  16.730  0.00  0.00    +0.000 A 
ATOM     33  C   UNL     1       4.314   4.221  18.074  0.00  0.00    +0.000 A 
ATOM     34  C   UNL     1       5.634   4.491  18.443  0.00  0.00    +0.000 A 
ATOM     35  C   UNL     1       6.594   4.643  17.449  0.00  0.00    +0.000 A 
ATOM     36  F   UNL     1       7.858   4.911  17.807  0.00  0.00    +0.000 F 
ENDBRANCH  26  33
ENDBRANCH  24  26
ENDBRANCH   1  24
TORSDOF 7
ENDMDL
MODEL 9
REMARK VINA RESULT:      -8.5      3.029      4.162
REMARK  Name = 
REMARK  8 active torsions:
REMARK  status: ('A' for Active; 'I' for Inactive)
REMARK    1  A    between atoms: C_1  and  C_2
REMARK    2  A    between atoms: C_5  and  S_6
REMARK    3  A    between atoms: S_6  and  N_9
REMARK    4  A    between atoms: N_9  and  C_10
REMARK    5  A    between atoms: C_14  and  C_15
REMARK    6  A    between atoms: N_17  and  C_18
REMARK    7  A    between atoms: N_21  and  C_22
REMARK    8  A    between atoms: C_22  and  C_23
REMARK                            x       y       z     vdW  Elec       q    Type
REMARK                         _______ _______ _______ _____ _____    ______ ____
ROOT
ATOM      1  C   UNL     1       2.335   5.393  18.582  0.00  0.00    +0.000 A 
ATOM      2  C   UNL     1       2.115   5.018  19.908  0.00  0.00    +0.000 A 
ATOM      3  C   UNL     1       1.783   5.988  20.862  0.00  0.00    +0.000 A 
ATOM      4  C   UNL     1       1.673   7.329  20.490  0.00  0.00    +0.000 A 
ATOM      5  C   UNL     1       1.888   7.701  19.156  0.00  0.00    +0.000 A 
ATOM      6  C   UNL     1       2.192   6.724  18.198  0.00  0.00    +0.000 A 
ENDROOT
BRANCH   5   7
ATOM      7  C   UNL     1       1.796   9.116  18.705  0.00  0.00    +0.000 C 
ATOM      8  O   UNL     1       2.304   9.439  17.639  0.00  0.00    +0.000 OA
ATOM      9  N   UNL     1       1.163  10.001  19.560  0.00  0.00    +0.000 N 
ATOM     10  H   UNL     1       0.949   9.695  20.499  0.00  0.00    +0.000 HD
BRANCH   9  11
ATOM     11  C   UNL     1       1.082  11.435  19.258  0.00  0.00    +0.000 C 
ATOM     12  C   UNL     1       1.007  12.305  20.513  0.00  0.00    +0.000 C 
ATOM     13  C   UNL     1      -0.369  12.284  21.186  0.00  0.00    +0.000 C 
ATOM     14  N   UNL     1      -1.490  12.547  20.268  0.00  0.00    +0.000 NA
ATOM     15  C   UNL     1      -1.434  11.698  19.067  0.00  0.00    +0.000 C 
ATOM     16  C   UNL     1      -0.094  11.755  18.339  0.00  0.00    +0.000 C 
BRANCH  14  17
ATOM     17  C   UNL     1      -2.794  12.319  20.939  0.00  0.00    +0.000 C 
BRANCH  17  18
ATOM     18  C   UNL     1      -3.068  13.178  22.156  0.00  0.00    +0.000 A 
ATOM     19  C   UNL     1      -3.053  14.577  22.072  0.00  0.00    +0.000 A 
ATOM     20  C   UNL     1      -3.340  15.359  23.193  0.00  0.00    +0.000 A 
ATOM     21  C   UNL     1      -3.650  14.753  24.411  0.00  0.00    +0.000 A 
ATOM     22  C   UNL     1      -3.678  13.363  24.506  0.00  0.00    +0.000 A 
ATOM     23  C   UNL     1      -3.391  12.581  23.386  0.00  0.00    +0.000 A 
ENDBRANCH  17  18
ENDBRANCH  14  17
ENDBRANCH   9  11
ENDBRANCH   5   7
BRANCH   1  24
ATOM     24  N   UNL     1       2.758   4.422  17.640  0.00  0.00    +0.000 N 
ATOM     25  H   UNL     1       2.052   3.826  17.211  0.00  0.00    +0.000 HD
BRANCH  24  26
ATOM     26  S   UNL     1       4.265   3.689  17.762  0.00  0.00    +0.000 S 
ATOM     27  O   UNL     1       4.507   2.897  16.575  0.00  0.00    +0.000 OA
ATOM     28  O   UNL     1       4.319   3.094  19.082  0.00  0.00    +0.000 OA
BRANCH  26  33
ATOM     29  C   UNL     1       8.162   8.343  17.758  0.00  0.00    +0.000 C 
ATOM     30  C   UNL     1       7.197   7.196  17.733  0.00  0.00    +0.000 A 
ATOM     31  C   UNL     1       6.128   7.164  16.824  0.00  0.00    +0.000 A 
ATOM     32  C   UNL     1       5.231   6.093  16.830  0.00  0.00    +0.000 A 
ATOM     33  C   UNL     1       5.392   5.061  17.755  0.00  0.00    +0.000 A 
ATOM     34  C   UNL     1       6.466   5.065  18.649  0.00  0.00    +0.000 A 
ATOM     35  C   UNL     1       7.353   6.134  18.629  0.00  0.00    +0.000 A 
ATOM     36  F   UNL     1       8.377   6.140  19.494  0.00  0.00    +0.000 F 
ENDBRANCH  26  33
ENDBRANCH  24  26
ENDBRANCH   1  24
TORSDOF 7
ENDMDL
