MODEL 1
REMARK VINA RESULT:      -8.0      0.000      0.000
REMARK  Name = 
REMARK  8 active torsions:
REMARK  status: ('A' for Active; 'I' for Inactive)
REMARK    1  A    between atoms: C_1  and  O_2
REMARK    2  A    between atoms: O_2  and  C_3
REMARK    3  A    between atoms: C_3  and  C_4
REMARK    4  A    between atoms: C_4  and  C_12
REMARK    5  A    between atoms: C_5  and  C_6
REMARK    6  A    between atoms: N_10  and  C_11
REMARK    7  A    between atoms: C_16  and  N_17
REMARK    8  A    between atoms: C_24  and  C_25
REMARK                            x       y       z     vdW  Elec       q    Type
REMARK                         _______ _______ _______ _____ _____    ______ ____
ROOT
ATOM      1  C   UNL     1       1.396   8.871  19.238  0.00  0.00    +0.000 A 
ATOM      2  C   UNL     1       2.187   9.260  18.138  0.00  0.00    +0.000 A 
ATOM      3  C   UNL     1       2.966   8.344  17.440  0.00  0.00    +0.000 A 
ATOM      4  C   UNL     1       3.087   7.051  17.916  0.00  0.00    +0.000 A 
ATOM      5  C   UNL     1       2.573   6.742  19.183  0.00  0.00    +0.000 A 
ATOM      6  C   UNL     1       1.612   7.587  19.757  0.00  0.00    +0.000 A 
ENDROOT
BRANCH   5   7
ATOM      7  N   UNL     1       3.355   5.890  20.075  0.00  0.00    +0.000 N 
ATOM      8  C   UNL     1       4.595   5.440  19.391  0.00  0.00    +0.000 C 
ATOM      9  C   UNL     1       4.148   4.159  18.749  0.00  0.00    +0.000 A 
ATOM     10  C   UNL     1       3.108   3.645  19.530  0.00  0.00    +0.000 A 
ATOM     11  C   UNL     1       2.339   2.560  19.145  0.00  0.00    +0.000 A 
ATOM     12  C   UNL     1       2.629   1.981  17.912  0.00  0.00    +0.000 A 
ATOM     13  C   UNL     1       3.660   2.497  17.104  0.00  0.00    +0.000 A 
ATOM     14  C   UNL     1       4.444   3.600  17.510  0.00  0.00    +0.000 A 
ATOM     15  C   UNL     1       2.707   4.698  20.493  0.00  0.00    +0.000 C 
ATOM     16  O   UNL     1       1.819   4.567  21.316  0.00  0.00    +0.000 OA
BRANCH  14  17
ATOM     17  C   UNL     1       5.453   4.177  16.550  0.00  0.00    +0.000 C 
ATOM     18  F   UNL     1       6.647   4.498  17.114  0.00  0.00    +0.000 F 
ATOM     19  F   UNL     1       5.747   3.315  15.537  0.00  0.00    +0.000 F 
ATOM     20  F   UNL     1       5.005   5.315  15.949  0.00  0.00    +0.000 F 
ENDBRANCH  14  17
ENDBRANCH   5   7
BRANCH   1  21
ATOM     21  C   UNL     1       0.460   9.847  19.880  0.00  0.00    +0.000 C 
ATOM     22  C   UNL     1       0.923  10.537  20.943  0.00  0.00    +0.000 C 
BRANCH  22  23
ATOM     23  C   UNL     1       0.176  11.440  21.729  0.00  0.00    +0.000 A 
ATOM     24  N   UNL     1      -0.576  11.252  22.800  0.00  0.00    +0.000 NA
ATOM     25  N   UNL     1      -1.036  12.470  23.236  0.00  0.00    +0.000 NA
ATOM     26  C   UNL     1      -0.565  13.384  22.422  0.00  0.00    +0.000 A 
ATOM     27  N   UNL     1       0.187  12.790  21.456  0.00  0.00    +0.000 N 
ATOM     28  C   UNL     1       0.825  13.480  20.364  0.00  0.00    +0.000 C 
ENDBRANCH  22  23
BRANCH  21  29
ATOM     29  C   UNL     1      -0.912  10.036  19.253  0.00  0.00    +0.000 C 
BRANCH  29  31
ATOM     30  C   UNL     1      -2.104  11.983  18.622  0.00  0.00    +0.000 C 
ATOM     31  O   UNL     1      -0.958  11.174  18.387  0.00  0.00    +0.000 OA
ENDBRANCH  29  31
ENDBRANCH  21  29
ENDBRANCH   1  21
TORSDOF 6
ENDMDL
MODEL 2
REMARK VINA RESULT:      -8.0      0.753      1.201
REMARK  Name = 
REMARK  8 active torsions:
REMARK  status: ('A' for Active; 'I' for Inactive)
REMARK    1  A    between atoms: C_1  and  O_2
REMARK    2  A    between atoms: O_2  and  C_3
REMARK    3  A    between atoms: C_3  and  C_4
REMARK    4  A    between atoms: C_4  and  C_12
REMARK    5  A    between atoms: C_5  and  C_6
REMARK    6  A    between atoms: N_10  and  C_11
REMARK    7  A    between atoms: C_16  and  N_17
REMARK    8  A    between atoms: C_24  and  C_25
REMARK                            x       y       z     vdW  Elec       q    Type
REMARK                         _______ _______ _______ _____ _____    ______ ____
ROOT
ATOM      1  C   UNL     1       1.378   8.974  19.116  0.00  0.00    +0.000 A 
ATOM      2  C   UNL     1       2.225   9.342  18.052  0.00  0.00    +0.000 A 
ATOM      3  C   UNL     1       3.015   8.406  17.392  0.00  0.00    +0.000 A 
ATOM      4  C   UNL     1       3.087   7.113  17.878  0.00  0.00    +0.000 A 
ATOM      5  C   UNL     1       2.511   6.821  19.122  0.00  0.00    +0.000 A 
ATOM      6  C   UNL     1       1.543   7.689  19.649  0.00  0.00    +0.000 A 
ENDROOT
BRANCH   5   7
ATOM      7  N   UNL     1       3.234   5.956  20.050  0.00  0.00    +0.000 N 
ATOM      8  C   UNL     1       4.491   5.475  19.422  0.00  0.00    +0.000 C 
ATOM      9  C   UNL     1       4.043   4.201  18.768  0.00  0.00    +0.000 A 
ATOM     10  C   UNL     1       2.959   3.715  19.506  0.00  0.00    +0.000 A 
ATOM     11  C   UNL     1       2.183   2.646  19.093  0.00  0.00    +0.000 A 
ATOM     12  C   UNL     1       2.512   2.053  17.877  0.00  0.00    +0.000 A 
ATOM     13  C   UNL     1       3.588   2.541  17.112  0.00  0.00    +0.000 A 
ATOM     14  C   UNL     1       4.379   3.628  17.546  0.00  0.00    +0.000 A 
ATOM     15  C   UNL     1       2.542   4.782  20.445  0.00  0.00    +0.000 C 
ATOM     16  O   UNL     1       1.616   4.676  21.231  0.00  0.00    +0.000 OA
BRANCH  14  17
ATOM     17  C   UNL     1       5.441   4.176  16.627  0.00  0.00    +0.000 C 
ATOM     18  F   UNL     1       6.612   4.487  17.243  0.00  0.00    +0.000 F 
ATOM     19  F   UNL     1       5.770   3.296  15.642  0.00  0.00    +0.000 F 
ATOM     20  F   UNL     1       5.040   5.313  15.990  0.00  0.00    +0.000 F 
ENDBRANCH  14  17
ENDBRANCH   5   7
BRANCH   1  21
ATOM     21  C   UNL     1       0.435   9.973  19.712  0.00  0.00    +0.000 C 
ATOM     22  C   UNL     1       0.905  10.738  20.721  0.00  0.00    +0.000 C 
BRANCH  22  23
ATOM     23  C   UNL     1       0.154  11.676  21.462  0.00  0.00    +0.000 A 
ATOM     24  N   UNL     1      -0.030  12.974  21.298  0.00  0.00    +0.000 NA
ATOM     25  N   UNL     1      -0.910  13.419  22.254  0.00  0.00    +0.000 NA
ATOM     26  C   UNL     1      -1.244  12.389  22.993  0.00  0.00    +0.000 A 
ATOM     27  N   UNL     1      -0.596  11.279  22.547  0.00  0.00    +0.000 N 
ATOM     28  C   UNL     1      -0.688   9.971  23.146  0.00  0.00    +0.000 C 
ENDBRANCH  22  23
BRANCH  21  29
ATOM     29  C   UNL     1      -0.950  10.098  19.101  0.00  0.00    +0.000 C 
BRANCH  29  31
ATOM     30  C   UNL     1      -2.222   9.916  17.110  0.00  0.00    +0.000 C 
ATOM     31  O   UNL     1      -0.919  10.022  17.672  0.00  0.00    +0.000 OA
ENDBRANCH  29  31
ENDBRANCH  21  29
ENDBRANCH   1  21
TORSDOF 6
ENDMDL
MODEL 3
REMARK VINA RESULT:      -7.9      1.238      1.621
REMARK  Name = 
REMARK  8 active torsions:
REMARK  status: ('A' for Active; 'I' for Inactive)
REMARK    1  A    between atoms: C_1  and  O_2
REMARK    2  A    between atoms: O_2  and  C_3
REMARK    3  A    between atoms: C_3  and  C_4
REMARK    4  A    between atoms: C_4  and  C_12
REMARK    5  A    between atoms: C_5  and  C_6
REMARK    6  A    between atoms: N_10  and  C_11
REMARK    7  A    between atoms: C_16  and  N_17
REMARK    8  A    between atoms: C_24  and  C_25
REMARK                            x       y       z     vdW  Elec       q    Type
REMARK                         _______ _______ _______ _____ _____    ______ ____
ROOT
ATOM      1  C   UNL     1       1.526   8.852  19.416  0.00  0.00    +0.000 A 
ATOM      2  C   UNL     1       2.163   9.134  18.191  0.00  0.00    +0.000 A 
ATOM      3  C   UNL     1       2.771   8.134  17.439  0.00  0.00    +0.000 A 
ATOM      4  C   UNL     1       2.885   6.860  17.966  0.00  0.00    +0.000 A 
ATOM      5  C   UNL     1       2.552   6.648  19.310  0.00  0.00    +0.000 A 
ATOM      6  C   UNL     1       1.741   7.583  19.971  0.00  0.00    +0.000 A 
ENDROOT
BRANCH   5   7
ATOM      7  N   UNL     1       3.407   5.788  20.124  0.00  0.00    +0.000 N 
ATOM      8  C   UNL     1       4.619   5.403  19.355  0.00  0.00    +0.000 C 
ATOM      9  C   UNL     1       4.174   4.133  18.691  0.00  0.00    +0.000 A 
ATOM     10  C   UNL     1       3.194   3.559  19.508  0.00  0.00    +0.000 A 
ATOM     11  C   UNL     1       2.437   2.465  19.124  0.00  0.00    +0.000 A 
ATOM     12  C   UNL     1       2.673   1.941  17.857  0.00  0.00    +0.000 A 
ATOM     13  C   UNL     1       3.642   2.518  17.013  0.00  0.00    +0.000 A 
ATOM     14  C   UNL     1       4.415   3.629  17.417  0.00  0.00    +0.000 A 
ATOM     15  C   UNL     1       2.819   4.562  20.531  0.00  0.00    +0.000 C 
ATOM     16  O   UNL     1       1.982   4.373  21.397  0.00  0.00    +0.000 OA
BRANCH  14  17
ATOM     17  C   UNL     1       5.351   4.272  16.425  0.00  0.00    +0.000 C 
ATOM     18  F   UNL     1       6.617   4.456  16.884  0.00  0.00    +0.000 F 
ATOM     19  F   UNL     1       5.478   3.533  15.288  0.00  0.00    +0.000 F 
ATOM     20  F   UNL     1       4.916   5.499  16.022  0.00  0.00    +0.000 F 
ENDBRANCH  14  17
ENDBRANCH   5   7
BRANCH   1  21
ATOM     21  C   UNL     1       0.758   9.919  20.132  0.00  0.00    +0.000 C 
ATOM     22  C   UNL     1       1.085  11.201  19.861  0.00  0.00    +0.000 C 
BRANCH  22  23
ATOM     23  C   UNL     1       0.537  12.341  20.487  0.00  0.00    +0.000 A 
ATOM     24  N   UNL     1       0.922  13.026  21.549  0.00  0.00    +0.000 NA
ATOM     25  N   UNL     1       0.084  14.102  21.708  0.00  0.00    +0.000 NA
ATOM     26  C   UNL     1      -0.805  14.055  20.746  0.00  0.00    +0.000 A 
ATOM     27  N   UNL     1      -0.573  12.967  19.963  0.00  0.00    +0.000 N 
ATOM     28  C   UNL     1      -1.379  12.572  18.836  0.00  0.00    +0.000 C 
ENDBRANCH  22  23
BRANCH  21  29
ATOM     29  C   UNL     1      -0.369   9.487  21.056  0.00  0.00    +0.000 C 
BRANCH  29  31
ATOM     30  C   UNL     1      -0.893  10.339  23.204  0.00  0.00    +0.000 C 
ATOM     31  O   UNL     1       0.009   9.551  22.434  0.00  0.00    +0.000 OA
ENDBRANCH  29  31
ENDBRANCH  21  29
ENDBRANCH   1  21
TORSDOF 6
ENDMDL
MODEL 4
REMARK VINA RESULT:      -7.9      3.250      8.497
REMARK  Name = 
REMARK  8 active torsions:
REMARK  status: ('A' for Active; 'I' for Inactive)
REMARK    1  A    between atoms: C_1  and  O_2
REMARK    2  A    between atoms: O_2  and  C_3
REMARK    3  A    between atoms: C_3  and  C_4
REMARK    4  A    between atoms: C_4  and  C_12
REMARK    5  A    between atoms: C_5  and  C_6
REMARK    6  A    between atoms: N_10  and  C_11
REMARK    7  A    between atoms: C_16  and  N_17
REMARK    8  A    between atoms: C_24  and  C_25
REMARK                            x       y       z     vdW  Elec       q    Type
REMARK                         _______ _______ _______ _____ _____    ______ ____
ROOT
ATOM      1  C   UNL     1       2.186   7.082  19.534  0.00  0.00    +0.000 A 
ATOM      2  C   UNL     1       2.211   7.552  18.205  0.00  0.00    +0.000 A 
ATOM      3  C   UNL     1       1.971   8.887  17.900  0.00  0.00    +0.000 A 
ATOM      4  C   UNL     1       1.554   9.749  18.899  0.00  0.00    +0.000 A 
ATOM      5  C   UNL     1       1.208   9.223  20.151  0.00  0.00    +0.000 A 
ATOM      6  C   UNL     1       1.667   7.946  20.507  0.00  0.00    +0.000 A 
ENDROOT
BRANCH   5   7
ATOM      7  N   UNL     1       0.027   9.741  20.834  0.00  0.00    +0.000 N 
ATOM      8  C   UNL     1      -1.174   9.565  19.977  0.00  0.00    +0.000 C 
ATOM      9  C   UNL     1      -1.198  10.854  19.209  0.00  0.00    +0.000 A 
ATOM     10  C   UNL     1      -0.583  11.824  20.006  0.00  0.00    +0.000 A 
ATOM     11  C   UNL     1      -0.275  13.093  19.549  0.00  0.00    +0.000 A 
ATOM     12  C   UNL     1      -0.591  13.388  18.226  0.00  0.00    +0.000 A 
ATOM     13  C   UNL     1      -1.192  12.417  17.402  0.00  0.00    +0.000 A 
ATOM     14  C   UNL     1      -1.511  11.127  17.880  0.00  0.00    +0.000 A 
ATOM     15  C   UNL     1       0.065  11.126  21.142  0.00  0.00    +0.000 C 
ATOM     16  O   UNL     1       0.692  11.690  22.021  0.00  0.00    +0.000 OA
BRANCH  14  17
ATOM     17  C   UNL     1      -2.045  10.097  16.917  0.00  0.00    +0.000 C 
ATOM     18  F   UNL     1      -2.335  10.581  15.681  0.00  0.00    +0.000 F 
ATOM     19  F   UNL     1      -1.163   9.080  16.714  0.00  0.00    +0.000 F 
ATOM     20  F   UNL     1      -3.190   9.511  17.368  0.00  0.00    +0.000 F 
ENDBRANCH  14  17
ENDBRANCH   5   7
BRANCH   1  21
ATOM     21  C   UNL     1       2.588   5.674  19.846  0.00  0.00    +0.000 C 
ATOM     22  C   UNL     1       3.514   5.106  19.045  0.00  0.00    +0.000 C 
BRANCH  22  23
ATOM     23  C   UNL     1       3.966   3.771  19.124  0.00  0.00    +0.000 A 
ATOM     24  N   UNL     1       4.926   3.213  19.841  0.00  0.00    +0.000 NA
ATOM     25  N   UNL     1       4.921   1.860  19.610  0.00  0.00    +0.000 NA
ATOM     26  C   UNL     1       3.963   1.610  18.749  0.00  0.00    +0.000 A 
ATOM     27  N   UNL     1       3.345   2.773  18.406  0.00  0.00    +0.000 N 
ATOM     28  C   UNL     1       2.274   2.888  17.448  0.00  0.00    +0.000 C 
ENDBRANCH  22  23
BRANCH  21  29
ATOM     29  C   UNL     1       1.976   5.013  21.070  0.00  0.00    +0.000 C 
BRANCH  29  31
ATOM     30  C   UNL     1       1.306   2.762  21.377  0.00  0.00    +0.000 C 
ATOM     31  O   UNL     1       1.034   3.995  20.720  0.00  0.00    +0.000 OA
ENDBRANCH  29  31
ENDBRANCH  21  29
ENDBRANCH   1  21
TORSDOF 6
ENDMDL
MODEL 5
REMARK VINA RESULT:      -7.8      1.288      1.783
REMARK  Name = 
REMARK  8 active torsions:
REMARK  status: ('A' for Active; 'I' for Inactive)
REMARK    1  A    between atoms: C_1  and  O_2
REMARK    2  A    between atoms: O_2  and  C_3
REMARK    3  A    between atoms: C_3  and  C_4
REMARK    4  A    between atoms: C_4  and  C_12
REMARK    5  A    between atoms: C_5  and  C_6
REMARK    6  A    between atoms: N_10  and  C_11
REMARK    7  A    between atoms: C_16  and  N_17
REMARK    8  A    between atoms: C_24  and  C_25
REMARK                            x       y       z     vdW  Elec       q    Type
REMARK                         _______ _______ _______ _____ _____    ______ ____
ROOT
ATOM      1  C   UNL     1       1.378   8.802  19.283  0.00  0.00    +0.000 A 
ATOM      2  C   UNL     1       2.176   9.237  18.206  0.00  0.00    +0.000 A 
ATOM      3  C   UNL     1       2.987   8.356  17.498  0.00  0.00    +0.000 A 
ATOM      4  C   UNL     1       3.131   7.055  17.945  0.00  0.00    +0.000 A 
ATOM      5  C   UNL     1       2.607   6.704  19.197  0.00  0.00    +0.000 A 
ATOM      6  C   UNL     1       1.617   7.512  19.775  0.00  0.00    +0.000 A 
ENDROOT
BRANCH   5   7
ATOM      7  N   UNL     1       3.395   5.849  20.079  0.00  0.00    +0.000 N 
ATOM      8  C   UNL     1       4.636   5.412  19.389  0.00  0.00    +0.000 C 
ATOM      9  C   UNL     1       4.195   4.133  18.738  0.00  0.00    +0.000 A 
ATOM     10  C   UNL     1       3.159   3.607  19.517  0.00  0.00    +0.000 A 
ATOM     11  C   UNL     1       2.396   2.521  19.125  0.00  0.00    +0.000 A 
ATOM     12  C   UNL     1       2.686   1.953  17.887  0.00  0.00    +0.000 A 
ATOM     13  C   UNL     1       3.712   2.482  17.081  0.00  0.00    +0.000 A 
ATOM     14  C   UNL     1       4.491   3.586  17.494  0.00  0.00    +0.000 A 
ATOM     15  C   UNL     1       2.755   4.650  20.489  0.00  0.00    +0.000 C 
ATOM     16  O   UNL     1       1.869   4.507  21.314  0.00  0.00    +0.000 OA
BRANCH  14  17
ATOM     17  C   UNL     1       5.495   4.176  16.536  0.00  0.00    +0.000 C 
ATOM     18  F   UNL     1       5.105   5.345  15.962  0.00  0.00    +0.000 F 
ATOM     19  F   UNL     1       6.684   4.446  17.142  0.00  0.00    +0.000 F 
ATOM     20  F   UNL     1       5.787   3.333  15.506  0.00  0.00    +0.000 F 
ENDBRANCH  14  17
ENDBRANCH   5   7
BRANCH   1  21
ATOM     21  C   UNL     1       0.410   9.740  19.934  0.00  0.00    +0.000 C 
ATOM     22  C   UNL     1       0.060  10.844  19.239  0.00  0.00    +0.000 C 
BRANCH  22  23
ATOM     23  C   UNL     1      -0.773  11.883  19.707  0.00  0.00    +0.000 A 
ATOM     24  N   UNL     1      -2.087  12.026  19.690  0.00  0.00    +0.000 NA
ATOM     25  N   UNL     1      -2.413  13.192  20.337  0.00  0.00    +0.000 NA
ATOM     26  C   UNL     1      -1.294  13.749  20.735  0.00  0.00    +0.000 A 
ATOM     27  N   UNL     1      -0.241  12.976  20.354  0.00  0.00    +0.000 N 
ATOM     28  C   UNL     1       1.146  13.299  20.581  0.00  0.00    +0.000 C 
ENDBRANCH  22  23
BRANCH  21  29
ATOM     29  C   UNL     1      -0.154   9.354  21.291  0.00  0.00    +0.000 C 
BRANCH  29  31
ATOM     30  C   UNL     1      -0.778  10.689  23.146  0.00  0.00    +0.000 C 
ATOM     31  O   UNL     1       0.294  10.228  22.331  0.00  0.00    +0.000 OA
ENDBRANCH  29  31
ENDBRANCH  21  29
ENDBRANCH   1  21
TORSDOF 6
ENDMDL
MODEL 6
REMARK VINA RESULT:      -7.7      2.044      2.863
REMARK  Name = 
REMARK  8 active torsions:
REMARK  status: ('A' for Active; 'I' for Inactive)
REMARK    1  A    between atoms: C_1  and  O_2
REMARK    2  A    between atoms: O_2  and  C_3
REMARK    3  A    between atoms: C_3  and  C_4
REMARK    4  A    between atoms: C_4  and  C_12
REMARK    5  A    between atoms: C_5  and  C_6
REMARK    6  A    between atoms: N_10  and  C_11
REMARK    7  A    between atoms: C_16  and  N_17
REMARK    8  A    between atoms: C_24  and  C_25
REMARK                            x       y       z     vdW  Elec       q    Type
REMARK                         _______ _______ _______ _____ _____    ______ ____
ROOT
ATOM      1  C   UNL     1       2.033   8.158  19.330  0.00  0.00    +0.000 A 
ATOM      2  C   UNL     1       2.523   8.575  18.076  0.00  0.00    +0.000 A 
ATOM      3  C   UNL     1       2.968   7.661  17.127  0.00  0.00    +0.000 A 
ATOM      4  C   UNL     1       3.072   6.324  17.466  0.00  0.00    +0.000 A 
ATOM      5  C   UNL     1       2.903   5.947  18.805  0.00  0.00    +0.000 A 
ATOM      6  C   UNL     1       2.241   6.818  19.683  0.00  0.00    +0.000 A 
ENDROOT
BRANCH   5   7
ATOM      7  N   UNL     1       3.802   4.950  19.378  0.00  0.00    +0.000 N 
ATOM      8  C   UNL     1       5.179   5.500  19.469  0.00  0.00    +0.000 C 
ATOM      9  C   UNL     1       5.763   5.094  18.147  0.00  0.00    +0.000 A 
ATOM     10  C   UNL     1       5.096   3.936  17.737  0.00  0.00    +0.000 A 
ATOM     11  C   UNL     1       5.255   3.377  16.481  0.00  0.00    +0.000 A 
ATOM     12  C   UNL     1       6.116   4.026  15.600  0.00  0.00    +0.000 A 
ATOM     13  C   UNL     1       6.781   5.205  15.989  0.00  0.00    +0.000 A 
ATOM     14  C   UNL     1       6.618   5.763  17.276  0.00  0.00    +0.000 A 
ATOM     15  C   UNL     1       3.929   3.750  18.631  0.00  0.00    +0.000 C 
ATOM     16  O   UNL     1       3.137   2.828  18.536  0.00  0.00    +0.000 OA
BRANCH  14  17
ATOM     17  C   UNL     1       7.265   7.088  17.589  0.00  0.00    +0.000 C 
ATOM     18  F   UNL     1       8.010   7.095  18.725  0.00  0.00    +0.000 F 
ATOM     19  F   UNL     1       8.105   7.494  16.598  0.00  0.00    +0.000 F 
ATOM     20  F   UNL     1       6.352   8.090  17.735  0.00  0.00    +0.000 F 
ENDBRANCH  14  17
ENDBRANCH   5   7
BRANCH   1  21
ATOM     21  C   UNL     1       1.429   9.150  20.274  0.00  0.00    +0.000 C 
ATOM     22  C   UNL     1       1.127  10.369  19.777  0.00  0.00    +0.000 C 
BRANCH  22  23
ATOM     23  C   UNL     1       0.627  11.461  20.519  0.00  0.00    +0.000 A 
ATOM     24  N   UNL     1       1.194  12.230  21.432  0.00  0.00    +0.000 NA
ATOM     25  N   UNL     1       0.301  13.205  21.804  0.00  0.00    +0.000 NA
ATOM     26  C   UNL     1      -0.801  13.012  21.120  0.00  0.00    +0.000 A 
ATOM     27  N   UNL     1      -0.652  11.927  20.312  0.00  0.00    +0.000 N 
ATOM     28  C   UNL     1      -1.676  11.392  19.450  0.00  0.00    +0.000 C 
ENDBRANCH  22  23
BRANCH  21  29
ATOM     29  C   UNL     1       1.143   8.697  21.696  0.00  0.00    +0.000 C 
BRANCH  29  31
ATOM     30  C   UNL     1      -0.608   9.469  23.094  0.00  0.00    +0.000 C 
ATOM     31  O   UNL     1      -0.259   8.657  21.978  0.00  0.00    +0.000 OA
ENDBRANCH  29  31
ENDBRANCH  21  29
ENDBRANCH   1  21
TORSDOF 6
ENDMDL
MODEL 7
REMARK VINA RESULT:      -7.6      3.030      3.799
REMARK  Name = 
REMARK  8 active torsions:
REMARK  status: ('A' for Active; 'I' for Inactive)
REMARK    1  A    between atoms: C_1  and  O_2
REMARK    2  A    between atoms: O_2  and  C_3
REMARK    3  A    between atoms: C_3  and  C_4
REMARK    4  A    between atoms: C_4  and  C_12
REMARK    5  A    between atoms: C_5  and  C_6
REMARK    6  A    between atoms: N_10  and  C_11
REMARK    7  A    between atoms: C_16  and  N_17
REMARK    8  A    between atoms: C_24  and  C_25
REMARK                            x       y       z     vdW  Elec       q    Type
REMARK                         _______ _______ _______ _____ _____    ______ ____
ROOT
ATOM      1  C   UNL     1       1.069   9.294  20.099  0.00  0.00    +0.000 A 
ATOM      2  C   UNL     1       0.646   8.398  21.102  0.00  0.00    +0.000 A 
ATOM      3  C   UNL     1       1.231   7.146  21.254  0.00  0.00    +0.000 A 
ATOM      4  C   UNL     1       2.146   6.703  20.317  0.00  0.00    +0.000 A 
ATOM      5  C   UNL     1       2.328   7.445  19.141  0.00  0.00    +0.000 A 
ATOM      6  C   UNL     1       1.921   8.787  19.109  0.00  0.00    +0.000 A 
ENDROOT
BRANCH   5   7
ATOM      7  N   UNL     1       2.456   6.737  17.871  0.00  0.00    +0.000 N 
ATOM      8  C   UNL     1       1.622   5.507  17.888  0.00  0.00    +0.000 C 
ATOM      9  C   UNL     1       2.586   4.487  18.418  0.00  0.00    +0.000 A 
ATOM     10  C   UNL     1       3.872   4.906  18.061  0.00  0.00    +0.000 A 
ATOM     11  C   UNL     1       5.023   4.297  18.531  0.00  0.00    +0.000 A 
ATOM     12  C   UNL     1       4.864   3.228  19.408  0.00  0.00    +0.000 A 
ATOM     13  C   UNL     1       3.578   2.805  19.794  0.00  0.00    +0.000 A 
ATOM     14  C   UNL     1       2.409   3.428  19.303  0.00  0.00    +0.000 A 
ATOM     15  C   UNL     1       3.766   6.295  17.554  0.00  0.00    +0.000 C 
ATOM     16  O   UNL     1       4.715   6.952  17.164  0.00  0.00    +0.000 OA
BRANCH  14  17
ATOM     17  C   UNL     1       1.068   3.004  19.845  0.00  0.00    +0.000 C 
ATOM     18  F   UNL     1       0.273   2.368  18.945  0.00  0.00    +0.000 F 
ATOM     19  F   UNL     1       1.188   2.147  20.896  0.00  0.00    +0.000 F 
ATOM     20  F   UNL     1       0.339   4.059  20.308  0.00  0.00    +0.000 F 
ENDBRANCH  14  17
ENDBRANCH   5   7
BRANCH   1  21
ATOM     21  C   UNL     1       0.522  10.686  20.049  0.00  0.00    +0.000 C 
ATOM     22  C   UNL     1       1.006  11.504  19.091  0.00  0.00    +0.000 C 
BRANCH  22  23
ATOM     23  C   UNL     1       0.679  12.868  18.928  0.00  0.00    +0.000 A 
ATOM     24  N   UNL     1      -0.335  13.457  18.318  0.00  0.00    +0.000 NA
ATOM     25  N   UNL     1      -0.234  14.813  18.504  0.00  0.00    +0.000 NA
ATOM     26  C   UNL     1       0.842  15.035  19.219  0.00  0.00    +0.000 A 
ATOM     27  N   UNL     1       1.455  13.852  19.498  0.00  0.00    +0.000 N 
ATOM     28  C   UNL     1       2.690  13.713  20.228  0.00  0.00    +0.000 C 
ENDBRANCH  22  23
BRANCH  21  29
ATOM     29  C   UNL     1      -0.578  11.055  21.031  0.00  0.00    +0.000 C 
BRANCH  29  31
ATOM     30  C   UNL     1      -0.651  13.014  22.362  0.00  0.00    +0.000 C 
ATOM     31  O   UNL     1      -0.067  11.728  22.186  0.00  0.00    +0.000 OA
ENDBRANCH  29  31
ENDBRANCH  21  29
ENDBRANCH   1  21
TORSDOF 6
ENDMDL
MODEL 8
REMARK VINA RESULT:      -7.6      2.911      3.599
REMARK  Name = 
REMARK  8 active torsions:
REMARK  status: ('A' for Active; 'I' for Inactive)
REMARK    1  A    between atoms: C_1  and  O_2
REMARK    2  A    between atoms: O_2  and  C_3
REMARK    3  A    between atoms: C_3  and  C_4
REMARK    4  A    between atoms: C_4  and  C_12
REMARK    5  A    between atoms: C_5  and  C_6
REMARK    6  A    between atoms: N_10  and  C_11
REMARK    7  A    between atoms: C_16  and  N_17
REMARK    8  A    between atoms: C_24  and  C_25
REMARK                            x       y       z     vdW  Elec       q    Type
REMARK                         _______ _______ _______ _____ _____    ______ ____
ROOT
ATOM      1  C   UNL     1       1.208   9.193  19.300  0.00  0.00    +0.000 A 
ATOM      2  C   UNL     1       0.939   8.515  20.506  0.00  0.00    +0.000 A 
ATOM      3  C   UNL     1       1.641   7.371  20.870  0.00  0.00    +0.000 A 
ATOM      4  C   UNL     1       2.520   6.796  19.971  0.00  0.00    +0.000 A 
ATOM      5  C   UNL     1       2.551   7.270  18.652  0.00  0.00    +0.000 A 
ATOM      6  C   UNL     1       2.027   8.540  18.368  0.00  0.00    +0.000 A 
ENDROOT
BRANCH   5   7
ATOM      7  N   UNL     1       2.646   6.309  17.557  0.00  0.00    +0.000 N 
ATOM      8  C   UNL     1       1.728   5.166  17.802  0.00  0.00    +0.000 C 
ATOM      9  C   UNL     1       2.611   4.216  18.557  0.00  0.00    +0.000 A 
ATOM     10  C   UNL     1       3.928   4.467  18.158  0.00  0.00    +0.000 A 
ATOM     11  C   UNL     1       5.026   3.894  18.775  0.00  0.00    +0.000 A 
ATOM     12  C   UNL     1       4.781   3.041  19.848  0.00  0.00    +0.000 A 
ATOM     13  C   UNL     1       3.462   2.792  20.276  0.00  0.00    +0.000 A 
ATOM     14  C   UNL     1       2.347   3.376  19.635  0.00  0.00    +0.000 A 
ATOM     15  C   UNL     1       3.926   5.725  17.375  0.00  0.00    +0.000 C 
ATOM     16  O   UNL     1       4.925   6.224  16.885  0.00  0.00    +0.000 OA
BRANCH  14  17
ATOM     17  C   UNL     1       0.972   3.162  20.214  0.00  0.00    +0.000 C 
ATOM     18  F   UNL     1       0.123   2.473  19.407  0.00  0.00    +0.000 F 
ATOM     19  F   UNL     1       1.012   2.464  21.382  0.00  0.00    +0.000 F 
ATOM     20  F   UNL     1       0.343   4.336  20.504  0.00  0.00    +0.000 F 
ENDBRANCH  14  17
ENDBRANCH   5   7
BRANCH   1  21
ATOM     21  C   UNL     1       0.540  10.499  19.000  0.00  0.00    +0.000 C 
ATOM     22  C   UNL     1       1.034  11.598  19.608  0.00  0.00    +0.000 C 
BRANCH  22  23
ATOM     23  C   UNL     1       0.498  12.901  19.519  0.00  0.00    +0.000 A 
ATOM     24  N   UNL     1      -0.614  13.424  20.005  0.00  0.00    +0.000 NA
ATOM     25  N   UNL     1      -0.644  14.762  19.697  0.00  0.00    +0.000 NA
ATOM     26  C   UNL     1       0.446  15.035  19.021  0.00  0.00    +0.000 A 
ATOM     27  N   UNL     1       1.186  13.903  18.873  0.00  0.00    +0.000 N 
ATOM     28  C   UNL     1       2.428  13.817  18.145  0.00  0.00    +0.000 C 
ENDBRANCH  22  23
BRANCH  21  29
ATOM     29  C   UNL     1      -0.598  10.502  17.992  0.00  0.00    +0.000 C 
BRANCH  29  31
ATOM     30  C   UNL     1      -2.839  11.259  18.116  0.00  0.00    +0.000 C 
ATOM     31  O   UNL     1      -1.874  10.342  18.618  0.00  0.00    +0.000 OA
ENDBRANCH  29  31
ENDBRANCH  21  29
ENDBRANCH   1  21
TORSDOF 6
ENDMDL
MODEL 9
REMARK VINA RESULT:      -7.6      2.788      3.619
REMARK  Name = 
REMARK  8 active torsions:
REMARK  status: ('A' for Active; 'I' for Inactive)
REMARK    1  A    between atoms: C_1  and  O_2
REMARK    2  A    between atoms: O_2  and  C_3
REMARK    3  A    between atoms: C_3  and  C_4
REMARK    4  A    between atoms: C_4  and  C_12
REMARK    5  A    between atoms: C_5  and  C_6
REMARK    6  A    between atoms: N_10  and  C_11
REMARK    7  A    between atoms: C_16  and  N_17
REMARK    8  A    between atoms: C_24  and  C_25
REMARK                            x       y       z     vdW  Elec       q    Type
REMARK                         _______ _______ _______ _____ _____    ______ ____
ROOT
ATOM      1  C   UNL     1       1.028   9.229  19.591  0.00  0.00    +0.000 A 
ATOM      2  C   UNL     1       0.789   8.460  20.748  0.00  0.00    +0.000 A 
ATOM      3  C   UNL     1       1.537   7.323  21.034  0.00  0.00    +0.000 A 
ATOM      4  C   UNL     1       2.437   6.847  20.099  0.00  0.00    +0.000 A 
ATOM      5  C   UNL     1       2.446   7.409  18.815  0.00  0.00    +0.000 A 
ATOM      6  C   UNL     1       1.870   8.674  18.618  0.00  0.00    +0.000 A 
ENDROOT
BRANCH   5   7
ATOM      7  N   UNL     1       2.578   6.529  17.658  0.00  0.00    +0.000 N 
ATOM      8  C   UNL     1       1.702   5.340  17.821  0.00  0.00    +0.000 C 
ATOM      9  C   UNL     1       2.618   4.373  18.512  0.00  0.00    +0.000 A 
ATOM     10  C   UNL     1       3.925   4.699  18.137  0.00  0.00    +0.000 A 
ATOM     11  C   UNL     1       5.043   4.125  18.717  0.00  0.00    +0.000 A 
ATOM     12  C   UNL     1       4.827   3.193  19.728  0.00  0.00    +0.000 A 
ATOM     13  C   UNL     1       3.519   2.867  20.133  0.00  0.00    +0.000 A 
ATOM     14  C   UNL     1       2.384   3.452  19.529  0.00  0.00    +0.000 A 
ATOM     15  C   UNL     1       3.879   6.006  17.441  0.00  0.00    +0.000 C 
ATOM     16  O   UNL     1       4.859   6.574  16.990  0.00  0.00    +0.000 OA
BRANCH  14  17
ATOM     17  C   UNL     1       1.016   3.150  20.087  0.00  0.00    +0.000 C 
ATOM     18  F   UNL     1       1.024   2.394  21.216  0.00  0.00    +0.000 F 
ATOM     19  F   UNL     1       0.333   4.283  20.410  0.00  0.00    +0.000 F 
ATOM     20  F   UNL     1       0.229   2.484  19.196  0.00  0.00    +0.000 F 
ENDBRANCH  14  17
ENDBRANCH   5   7
BRANCH   1  21
ATOM     21  C   UNL     1       0.307  10.523  19.380  0.00  0.00    +0.000 C 
ATOM     22  C   UNL     1       1.021  11.659  19.531  0.00  0.00    +0.000 C 
BRANCH  22  23
ATOM     23  C   UNL     1       0.509  12.972  19.453  0.00  0.00    +0.000 A 
ATOM     24  N   UNL     1       0.413  13.814  18.440  0.00  0.00    +0.000 NA
ATOM     25  N   UNL     1      -0.229  14.950  18.869  0.00  0.00    +0.000 NA
ATOM     26  C   UNL     1      -0.509  14.788  20.140  0.00  0.00    +0.000 A 
ATOM     27  N   UNL     1      -0.057  13.574  20.555  0.00  0.00    +0.000 N 
ATOM     28  C   UNL     1      -0.151  13.074  21.904  0.00  0.00    +0.000 C 
ENDBRANCH  22  23
BRANCH  21  29
ATOM     29  C   UNL     1      -1.150  10.465  18.952  0.00  0.00    +0.000 C 
BRANCH  29  31
ATOM     30  C   UNL     1      -2.566   9.867  17.149  0.00  0.00    +0.000 C 
ATOM     31  O   UNL     1      -1.293  10.375  17.531  0.00  0.00    +0.000 OA
ENDBRANCH  29  31
ENDBRANCH  21  29
ENDBRANCH   1  21
TORSDOF 6
ENDMDL
