MODEL 1
REMARK VINA RESULT:      -9.4      0.000      0.000
REMARK  Name = 
REMARK  5 active torsions:
REMARK  status: ('A' for Active; 'I' for Inactive)
REMARK    1  A    between atoms: C_2  and  C_19
REMARK    2  A    between atoms: N_3  and  C_4
REMARK    3  A    between atoms: C_4  and  C_5
REMARK    4  A    between atoms: C_8  and  C_9
REMARK    5  A    between atoms: C_23  and  C_24
REMARK                            x       y       z     vdW  Elec       q    Type
REMARK                         _______ _______ _______ _____ _____    ______ ____
ROOT
ATOM      1  O   UNL     1       4.400   7.067  16.347  0.00  0.00    +0.000 OA
ATOM      2  C   UNL     1       4.178   6.576  17.445  0.00  0.00    +0.000 C 
ATOM      3  N   UNL     1       3.177   7.051  18.271  0.00  0.00    +0.000 N 
ATOM      4  H   UNL     1       3.121   6.729  19.227  0.00  0.00    +0.000 HD
ENDROOT
BRANCH   2   5
ATOM      5  C   UNL     1       4.964   5.486  18.002  0.00  0.00    +0.000 A 
ATOM      6  C   UNL     1       6.332   5.329  17.894  0.00  0.00    +0.000 A 
ATOM      7  N   UNL     1       6.652   4.241  18.643  0.00  0.00    +0.000 N 
ATOM      8  N   UNL     1       5.595   3.641  19.195  0.00  0.00    +0.000 NA
ATOM      9  C   UNL     1       4.534   4.377  18.809  0.00  0.00    +0.000 A 
ATOM     10  H   UNL     1       7.571   3.847  18.824  0.00  0.00    +0.000 HD
BRANCH   9  11
ATOM     11  C   UNL     1       3.176   3.959  19.189  0.00  0.00    +0.000 A 
ATOM     12  C   UNL     1       2.611   4.390  20.401  0.00  0.00    +0.000 A 
ATOM     13  C   UNL     1       1.329   3.978  20.782  0.00  0.00    +0.000 A 
ATOM     14  C   UNL     1       0.594   3.129  19.957  0.00  0.00    +0.000 A 
ATOM     15  C   UNL     1       1.145   2.683  18.759  0.00  0.00    +0.000 A 
ATOM     16  C   UNL     1       2.430   3.086  18.385  0.00  0.00    +0.000 A 
ENDBRANCH   9  11
ENDBRANCH   2   5
BRANCH   3  17
ATOM     17  C   UNL     1       2.434   8.223  17.867  0.00  0.00    +0.000 C 
BRANCH  17  18
ATOM     18  C   UNL     1       1.634   8.817  18.994  0.00  0.00    +0.000 A 
ATOM     19  C   UNL     1       0.822   9.932  18.761  0.00  0.00    +0.000 A 
ATOM     20  C   UNL     1       0.053  10.479  19.789  0.00  0.00    +0.000 A 
ATOM     21  C   UNL     1       0.184   9.999  21.096  0.00  0.00    +0.000 A 
ATOM     22  C   UNL     1       0.947   8.850  21.324  0.00  0.00    +0.000 A 
ATOM     23  C   UNL     1       1.668   8.260  20.278  0.00  0.00    +0.000 A 
BRANCH  21  24
ATOM     24  C   UNL     1      -0.450  10.671  22.272  0.00  0.00    +0.000 C 
ATOM     25  O   UNL     1      -0.167  10.231  23.384  0.00  0.00    +0.000 OA
ATOM     26  N   UNL     1      -1.274  11.791  22.081  0.00  0.00    +0.000 N 
ATOM     27  C   UNL     1      -1.772  12.500  23.261  0.00  0.00    +0.000 C 
ATOM     28  C   UNL     1      -3.278  12.762  23.166  0.00  0.00    +0.000 C 
ATOM     29  C   UNL     1      -3.690  13.353  21.815  0.00  0.00    +0.000 C 
ATOM     30  C   UNL     1      -3.101  12.542  20.664  0.00  0.00    +0.000 C 
ATOM     31  C   UNL     1      -1.585  12.471  20.825  0.00  0.00    +0.000 C 
ENDBRANCH  21  24
ENDBRANCH  17  18
ENDBRANCH   3  17
TORSDOF 5
ENDMDL
MODEL 2
REMARK VINA RESULT:      -9.3      2.587      4.560
REMARK  Name = 
REMARK  5 active torsions:
REMARK  status: ('A' for Active; 'I' for Inactive)
REMARK    1  A    between atoms: C_2  and  C_19
REMARK    2  A    between atoms: N_3  and  C_4
REMARK    3  A    between atoms: C_4  and  C_5
REMARK    4  A    between atoms: C_8  and  C_9
REMARK    5  A    between atoms: C_23  and  C_24
REMARK                            x       y       z     vdW  Elec       q    Type
REMARK                         _______ _______ _______ _____ _____    ______ ____
ROOT
ATOM      1  O   UNL     1       3.787   3.205  16.776  0.00  0.00    +0.000 OA
ATOM      2  C   UNL     1       4.414   4.248  16.654  0.00  0.00    +0.000 C 
ATOM      3  N   UNL     1       4.144   5.360  17.430  0.00  0.00    +0.000 N 
ATOM      4  H   UNL     1       4.571   6.246  17.201  0.00  0.00    +0.000 HD
ENDROOT
BRANCH   2   5
ATOM      5  C   UNL     1       5.462   4.436  15.662  0.00  0.00    +0.000 A 
ATOM      6  C   UNL     1       5.468   3.930  14.377  0.00  0.00    +0.000 A 
ATOM      7  N   UNL     1       6.578   4.432  13.774  0.00  0.00    +0.000 N 
ATOM      8  N   UNL     1       7.328   5.188  14.578  0.00  0.00    +0.000 NA
ATOM      9  C   UNL     1       6.674   5.201  15.756  0.00  0.00    +0.000 A 
ATOM     10  H   UNL     1       6.889   4.301  12.816  0.00  0.00    +0.000 HD
BRANCH   9  11
ATOM     11  C   UNL     1       7.261   5.899  16.911  0.00  0.00    +0.000 A 
ATOM     12  C   UNL     1       7.606   5.188  18.073  0.00  0.00    +0.000 A 
ATOM     13  C   UNL     1       8.142   5.847  19.184  0.00  0.00    +0.000 A 
ATOM     14  C   UNL     1       8.340   7.225  19.152  0.00  0.00    +0.000 A 
ATOM     15  C   UNL     1       7.992   7.946  18.013  0.00  0.00    +0.000 A 
ATOM     16  C   UNL     1       7.446   7.288  16.907  0.00  0.00    +0.000 A 
ENDBRANCH   9  11
ENDBRANCH   2   5
BRANCH   3  17
ATOM     17  C   UNL     1       3.028   5.319  18.347  0.00  0.00    +0.000 C 
BRANCH  17  18
ATOM     18  C   UNL     1       2.481   6.686  18.654  0.00  0.00    +0.000 A 
ATOM     19  C   UNL     1       2.006   6.976  19.937  0.00  0.00    +0.000 A 
ATOM     20  C   UNL     1       1.521   8.248  20.245  0.00  0.00    +0.000 A 
ATOM     21  C   UNL     1       1.383   9.210  19.240  0.00  0.00    +0.000 A 
ATOM     22  C   UNL     1       1.909   8.947  17.971  0.00  0.00    +0.000 A 
ATOM     23  C   UNL     1       2.457   7.692  17.679  0.00  0.00    +0.000 A 
BRANCH  21  24
ATOM     24  C   UNL     1       0.682  10.513  19.458  0.00  0.00    +0.000 C 
ATOM     25  O   UNL     1       1.171  11.276  20.288  0.00  0.00    +0.000 OA
ATOM     26  N   UNL     1      -0.442  10.844  18.685  0.00  0.00    +0.000 N 
ATOM     27  C   UNL     1      -1.023  12.178  18.834  0.00  0.00    +0.000 C 
ATOM     28  C   UNL     1      -2.544  12.114  19.009  0.00  0.00    +0.000 C 
ATOM     29  C   UNL     1      -3.219  11.210  17.974  0.00  0.00    +0.000 C 
ATOM     30  C   UNL     1      -2.519   9.855  17.896  0.00  0.00    +0.000 C 
ATOM     31  C   UNL     1      -1.038  10.073  17.594  0.00  0.00    +0.000 C 
ENDBRANCH  21  24
ENDBRANCH  17  18
ENDBRANCH   3  17
TORSDOF 5
ENDMDL
MODEL 3
REMARK VINA RESULT:      -9.2      2.522      4.244
REMARK  Name = 
REMARK  5 active torsions:
REMARK  status: ('A' for Active; 'I' for Inactive)
REMARK    1  A    between atoms: C_2  and  C_19
REMARK    2  A    between atoms: N_3  and  C_4
REMARK    3  A    between atoms: C_4  and  C_5
REMARK    4  A    between atoms: C_8  and  C_9
REMARK    5  A    between atoms: C_23  and  C_24
REMARK                            x       y       z     vdW  Elec       q    Type
REMARK                         _______ _______ _______ _____ _____    ______ ____
ROOT
ATOM      1  O   UNL     1       4.900   7.096  15.263  0.00  0.00    +0.000 OA
ATOM      2  C   UNL     1       5.003   6.674  16.406  0.00  0.00    +0.000 C 
ATOM      3  N   UNL     1       4.082   6.987  17.388  0.00  0.00    +0.000 N 
ATOM      4  H   UNL     1       4.278   6.753  18.351  0.00  0.00    +0.000 HD
ENDROOT
BRANCH   2   5
ATOM      5  C   UNL     1       6.117   5.850  16.852  0.00  0.00    +0.000 A 
ATOM      6  C   UNL     1       6.599   5.761  18.144  0.00  0.00    +0.000 A 
ATOM      7  N   UNL     1       7.567   4.807  18.124  0.00  0.00    +0.000 N 
ATOM      8  N   UNL     1       7.793   4.298  16.911  0.00  0.00    +0.000 NA
ATOM      9  C   UNL     1       6.922   4.929  16.099  0.00  0.00    +0.000 A 
ATOM     10  H   UNL     1       8.118   4.451  18.900  0.00  0.00    +0.000 HD
BRANCH   9  11
ATOM     11  C   UNL     1       6.939   4.655  14.654  0.00  0.00    +0.000 A 
ATOM     12  C   UNL     1       6.118   3.654  14.109  0.00  0.00    +0.000 A 
ATOM     13  C   UNL     1       6.145   3.370  12.739  0.00  0.00    +0.000 A 
ATOM     14  C   UNL     1       6.994   4.082  11.895  0.00  0.00    +0.000 A 
ATOM     15  C   UNL     1       7.823   5.068  12.421  0.00  0.00    +0.000 A 
ATOM     16  C   UNL     1       7.803   5.343  13.791  0.00  0.00    +0.000 A 
ENDBRANCH   9  11
ENDBRANCH   2   5
BRANCH   3  17
ATOM     17  C   UNL     1       3.018   7.914  17.079  0.00  0.00    +0.000 C 
BRANCH  17  18
ATOM     18  C   UNL     1       2.221   8.304  18.293  0.00  0.00    +0.000 A 
ATOM     19  C   UNL     1       2.346   7.569  19.476  0.00  0.00    +0.000 A 
ATOM     20  C   UNL     1       1.633   7.934  20.620  0.00  0.00    +0.000 A 
ATOM     21  C   UNL     1       0.686   8.962  20.559  0.00  0.00    +0.000 A 
ATOM     22  C   UNL     1       0.599   9.737  19.399  0.00  0.00    +0.000 A 
ATOM     23  C   UNL     1       1.363   9.412  18.271  0.00  0.00    +0.000 A 
BRANCH  21  24
ATOM     24  C   UNL     1      -0.252   9.264  21.683  0.00  0.00    +0.000 C 
ATOM     25  O   UNL     1      -0.788   8.305  22.234  0.00  0.00    +0.000 OA
ATOM     26  N   UNL     1      -0.440  10.590  22.105  0.00  0.00    +0.000 N 
ATOM     27  C   UNL     1      -1.263  10.836  23.289  0.00  0.00    +0.000 C 
ATOM     28  C   UNL     1      -2.294  11.941  23.038  0.00  0.00    +0.000 C 
ATOM     29  C   UNL     1      -1.678  13.185  22.390  0.00  0.00    +0.000 C 
ATOM     30  C   UNL     1      -0.830  12.804  21.179  0.00  0.00    +0.000 C 
ATOM     31  C   UNL     1       0.229  11.791  21.607  0.00  0.00    +0.000 C 
ENDBRANCH  21  24
ENDBRANCH  17  18
ENDBRANCH   3  17
TORSDOF 5
ENDMDL
MODEL 4
REMARK VINA RESULT:      -9.1      0.616      1.106
REMARK  Name = 
REMARK  5 active torsions:
REMARK  status: ('A' for Active; 'I' for Inactive)
REMARK    1  A    between atoms: C_2  and  C_19
REMARK    2  A    between atoms: N_3  and  C_4
REMARK    3  A    between atoms: C_4  and  C_5
REMARK    4  A    between atoms: C_8  and  C_9
REMARK    5  A    between atoms: C_23  and  C_24
REMARK                            x       y       z     vdW  Elec       q    Type
REMARK                         _______ _______ _______ _____ _____    ______ ____
ROOT
ATOM      1  O   UNL     1       4.452   7.054  16.301  0.00  0.00    +0.000 OA
ATOM      2  C   UNL     1       4.225   6.587  17.408  0.00  0.00    +0.000 C 
ATOM      3  N   UNL     1       3.210   7.071  18.213  0.00  0.00    +0.000 N 
ATOM      4  H   UNL     1       3.149   6.771  19.176  0.00  0.00    +0.000 HD
ENDROOT
BRANCH   2   5
ATOM      5  C   UNL     1       5.020   5.522  18.000  0.00  0.00    +0.000 A 
ATOM      6  C   UNL     1       6.391   5.383  17.914  0.00  0.00    +0.000 A 
ATOM      7  N   UNL     1       6.717   4.317  18.692  0.00  0.00    +0.000 N 
ATOM      8  N   UNL     1       5.661   3.713  19.242  0.00  0.00    +0.000 NA
ATOM      9  C   UNL     1       4.595   4.425  18.825  0.00  0.00    +0.000 A 
ATOM     10  H   UNL     1       7.638   3.941  18.894  0.00  0.00    +0.000 HD
BRANCH   9  11
ATOM     11  C   UNL     1       3.237   3.994  19.196  0.00  0.00    +0.000 A 
ATOM     12  C   UNL     1       2.490   3.175  18.334  0.00  0.00    +0.000 A 
ATOM     13  C   UNL     1       1.190   2.780  18.666  0.00  0.00    +0.000 A 
ATOM     14  C   UNL     1       0.617   3.200  19.865  0.00  0.00    +0.000 A 
ATOM     15  C   UNL     1       1.340   4.022  20.724  0.00  0.00    +0.000 A 
ATOM     16  C   UNL     1       2.635   4.425  20.386  0.00  0.00    +0.000 A 
ENDBRANCH   9  11
ENDBRANCH   2   5
BRANCH   3  17
ATOM     17  C   UNL     1       2.456   8.222  17.772  0.00  0.00    +0.000 C 
BRANCH  17  18
ATOM     18  C   UNL     1       1.607   8.810  18.866  0.00  0.00    +0.000 A 
ATOM     19  C   UNL     1       0.715   9.847  18.576  0.00  0.00    +0.000 A 
ATOM     20  C   UNL     1      -0.099  10.385  19.574  0.00  0.00    +0.000 A 
ATOM     21  C   UNL     1       0.060   9.982  20.903  0.00  0.00    +0.000 A 
ATOM     22  C   UNL     1       0.905   8.907  21.191  0.00  0.00    +0.000 A 
ATOM     23  C   UNL     1       1.675   8.321  20.177  0.00  0.00    +0.000 A 
BRANCH  21  24
ATOM     24  C   UNL     1      -0.630  10.662  22.042  0.00  0.00    +0.000 C 
ATOM     25  O   UNL     1      -0.943   9.961  23.002  0.00  0.00    +0.000 OA
ATOM     26  N   UNL     1      -0.837  12.050  22.011  0.00  0.00    +0.000 N 
ATOM     27  C   UNL     1      -1.397  12.699  23.198  0.00  0.00    +0.000 C 
ATOM     28  C   UNL     1      -2.551  13.638  22.833  0.00  0.00    +0.000 C 
ATOM     29  C   UNL     1      -2.208  14.571  21.669  0.00  0.00    +0.000 C 
ATOM     30  C   UNL     1      -1.619  13.786  20.499  0.00  0.00    +0.000 C 
ATOM     31  C   UNL     1      -0.405  12.998  20.985  0.00  0.00    +0.000 C 
ENDBRANCH  21  24
ENDBRANCH  17  18
ENDBRANCH   3  17
TORSDOF 5
ENDMDL
MODEL 5
REMARK VINA RESULT:      -8.9      3.018      9.330
REMARK  Name = 
REMARK  5 active torsions:
REMARK  status: ('A' for Active; 'I' for Inactive)
REMARK    1  A    between atoms: C_2  and  C_19
REMARK    2  A    between atoms: N_3  and  C_4
REMARK    3  A    between atoms: C_4  and  C_5
REMARK    4  A    between atoms: C_8  and  C_9
REMARK    5  A    between atoms: C_23  and  C_24
REMARK                            x       y       z     vdW  Elec       q    Type
REMARK                         _______ _______ _______ _____ _____    ______ ____
ROOT
ATOM      1  O   UNL     1      -2.009   9.759  19.231  0.00  0.00    +0.000 OA
ATOM      2  C   UNL     1      -1.725  10.511  18.309  0.00  0.00    +0.000 C 
ATOM      3  N   UNL     1      -0.471  11.079  18.186  0.00  0.00    +0.000 N 
ATOM      4  H   UNL     1      -0.316  11.811  17.508  0.00  0.00    +0.000 HD
ENDROOT
BRANCH   2   5
ATOM      5  C   UNL     1      -2.681  10.915  17.289  0.00  0.00    +0.000 A 
ATOM      6  C   UNL     1      -2.460  10.934  15.926  0.00  0.00    +0.000 A 
ATOM      7  N   UNL     1      -3.644  11.276  15.352  0.00  0.00    +0.000 N 
ATOM      8  N   UNL     1      -4.613  11.532  16.234  0.00  0.00    +0.000 NA
ATOM      9  C   UNL     1      -4.048  11.331  17.441  0.00  0.00    +0.000 A 
ATOM     10  H   UNL     1      -3.867  11.356  14.364  0.00  0.00    +0.000 HD
BRANCH   9  11
ATOM     11  C   UNL     1      -4.825  11.589  18.664  0.00  0.00    +0.000 A 
ATOM     12  C   UNL     1      -6.080  10.986  18.852  0.00  0.00    +0.000 A 
ATOM     13  C   UNL     1      -6.835  11.245  20.001  0.00  0.00    +0.000 A 
ATOM     14  C   UNL     1      -6.348  12.110  20.978  0.00  0.00    +0.000 A 
ATOM     15  C   UNL     1      -5.112  12.726  20.801  0.00  0.00    +0.000 A 
ATOM     16  C   UNL     1      -4.363  12.475  19.647  0.00  0.00    +0.000 A 
ENDBRANCH   9  11
ENDBRANCH   2   5
BRANCH   3  17
ATOM     17  C   UNL     1       0.505  10.851  19.228  0.00  0.00    +0.000 C 
BRANCH  17  18
ATOM     18  C   UNL     1       1.246   9.554  19.052  0.00  0.00    +0.000 A 
ATOM     19  C   UNL     1       1.411   8.691  20.141  0.00  0.00    +0.000 A 
ATOM     20  C   UNL     1       2.072   7.471  19.988  0.00  0.00    +0.000 A 
ATOM     21  C   UNL     1       2.691   7.155  18.775  0.00  0.00    +0.000 A 
ATOM     22  C   UNL     1       2.480   7.983  17.668  0.00  0.00    +0.000 A 
ATOM     23  C   UNL     1       1.760   9.177  17.804  0.00  0.00    +0.000 A 
BRANCH  21  24
ATOM     24  C   UNL     1       3.585   5.968  18.608  0.00  0.00    +0.000 C 
ATOM     25  O   UNL     1       4.754   6.190  18.298  0.00  0.00    +0.000 OA
ATOM     26  N   UNL     1       3.096   4.678  18.866  0.00  0.00    +0.000 N 
ATOM     27  C   UNL     1       4.032   3.554  18.820  0.00  0.00    +0.000 C 
ATOM     28  C   UNL     1       3.477   2.394  17.986  0.00  0.00    +0.000 C 
ATOM     29  C   UNL     1       2.035   2.039  18.357  0.00  0.00    +0.000 C 
ATOM     30  C   UNL     1       1.158   3.289  18.389  0.00  0.00    +0.000 C 
ATOM     31  C   UNL     1       1.769   4.304  19.353  0.00  0.00    +0.000 C 
ENDBRANCH  21  24
ENDBRANCH  17  18
ENDBRANCH   3  17
TORSDOF 5
ENDMDL
MODEL 6
REMARK VINA RESULT:      -8.8      2.610      4.512
REMARK  Name = 
REMARK  5 active torsions:
REMARK  status: ('A' for Active; 'I' for Inactive)
REMARK    1  A    between atoms: C_2  and  C_19
REMARK    2  A    between atoms: N_3  and  C_4
REMARK    3  A    between atoms: C_4  and  C_5
REMARK    4  A    between atoms: C_8  and  C_9
REMARK    5  A    between atoms: C_23  and  C_24
REMARK                            x       y       z     vdW  Elec       q    Type
REMARK                         _______ _______ _______ _____ _____    ______ ____
ROOT
ATOM      1  O   UNL     1       3.799   3.376  17.596  0.00  0.00    +0.000 OA
ATOM      2  C   UNL     1       4.473   4.372  17.374  0.00  0.00    +0.000 C 
ATOM      3  N   UNL     1       4.380   5.509  18.155  0.00  0.00    +0.000 N 
ATOM      4  H   UNL     1       4.831   6.361  17.854  0.00  0.00    +0.000 HD
ENDROOT
BRANCH   2   5
ATOM      5  C   UNL     1       5.394   4.476  16.251  0.00  0.00    +0.000 A 
ATOM      6  C   UNL     1       5.292   3.805  15.048  0.00  0.00    +0.000 A 
ATOM      7  N   UNL     1       6.297   4.274  14.263  0.00  0.00    +0.000 N 
ATOM      8  N   UNL     1       7.082   5.165  14.873  0.00  0.00    +0.000 NA
ATOM      9  C   UNL     1       6.560   5.304  16.108  0.00  0.00    +0.000 A 
ATOM     10  H   UNL     1       6.510   4.033  13.300  0.00  0.00    +0.000 HD
BRANCH   9  11
ATOM     11  C   UNL     1       7.224   6.175  17.090  0.00  0.00    +0.000 A 
ATOM     12  C   UNL     1       7.677   5.653  18.313  0.00  0.00    +0.000 A 
ATOM     13  C   UNL     1       8.289   6.479  19.263  0.00  0.00    +0.000 A 
ATOM     14  C   UNL     1       8.454   7.838  19.005  0.00  0.00    +0.000 A 
ATOM     15  C   UNL     1       7.999   8.372  17.803  0.00  0.00    +0.000 A 
ATOM     16  C   UNL     1       7.379   7.548  16.859  0.00  0.00    +0.000 A 
ENDBRANCH   9  11
ENDBRANCH   2   5
BRANCH   3  17
ATOM     17  C   UNL     1       3.391   5.555  19.207  0.00  0.00    +0.000 C 
BRANCH  17  18
ATOM     18  C   UNL     1       2.611   6.841  19.211  0.00  0.00    +0.000 A 
ATOM     19  C   UNL     1       2.591   7.649  18.069  0.00  0.00    +0.000 A 
ATOM     20  C   UNL     1       1.851   8.832  18.047  0.00  0.00    +0.000 A 
ATOM     21  C   UNL     1       1.224   9.290  19.210  0.00  0.00    +0.000 A 
ATOM     22  C   UNL     1       1.189   8.460  20.335  0.00  0.00    +0.000 A 
ATOM     23  C   UNL     1       1.879   7.241  20.336  0.00  0.00    +0.000 A 
BRANCH  21  24
ATOM     24  C   UNL     1       0.592  10.641  19.310  0.00  0.00    +0.000 C 
ATOM     25  O   UNL     1       1.154  11.467  20.027  0.00  0.00    +0.000 OA
ATOM     26  N   UNL     1      -0.553  10.940  18.556  0.00  0.00    +0.000 N 
ATOM     27  C   UNL     1      -1.067  12.310  18.579  0.00  0.00    +0.000 C 
ATOM     28  C   UNL     1      -2.579  12.340  18.828  0.00  0.00    +0.000 C 
ATOM     29  C   UNL     1      -3.343  11.361  17.932  0.00  0.00    +0.000 C 
ATOM     30  C   UNL     1      -2.708   9.973  17.976  0.00  0.00    +0.000 C 
ATOM     31  C   UNL     1      -1.236  10.083  17.587  0.00  0.00    +0.000 C 
ENDBRANCH  21  24
ENDBRANCH  17  18
ENDBRANCH   3  17
TORSDOF 5
ENDMDL
MODEL 7
REMARK VINA RESULT:      -8.8      2.379      4.413
REMARK  Name = 
REMARK  5 active torsions:
REMARK  status: ('A' for Active; 'I' for Inactive)
REMARK    1  A    between atoms: C_2  and  C_19
REMARK    2  A    between atoms: N_3  and  C_4
REMARK    3  A    between atoms: C_4  and  C_5
REMARK    4  A    between atoms: C_8  and  C_9
REMARK    5  A    between atoms: C_23  and  C_24
REMARK                            x       y       z     vdW  Elec       q    Type
REMARK                         _______ _______ _______ _____ _____    ______ ____
ROOT
ATOM      1  O   UNL     1       4.178   3.126  17.537  0.00  0.00    +0.000 OA
ATOM      2  C   UNL     1       4.533   4.203  17.079  0.00  0.00    +0.000 C 
ATOM      3  N   UNL     1       3.996   5.399  17.519  0.00  0.00    +0.000 N 
ATOM      4  H   UNL     1       4.195   6.252  17.017  0.00  0.00    +0.000 HD
ENDROOT
BRANCH   2   5
ATOM      5  C   UNL     1       5.509   4.329  16.008  0.00  0.00    +0.000 A 
ATOM      6  C   UNL     1       5.472   3.678  14.790  0.00  0.00    +0.000 A 
ATOM      7  N   UNL     1       6.514   4.165  14.065  0.00  0.00    +0.000 N 
ATOM      8  N   UNL     1       7.263   5.049  14.729  0.00  0.00    +0.000 NA
ATOM      9  C   UNL     1       6.677   5.164  15.938  0.00  0.00    +0.000 A 
ATOM     10  H   UNL     1       6.778   3.941  13.110  0.00  0.00    +0.000 HD
BRANCH   9  11
ATOM     11  C   UNL     1       7.286   6.022  16.967  0.00  0.00    +0.000 A 
ATOM     12  C   UNL     1       7.682   5.481  18.202  0.00  0.00    +0.000 A 
ATOM     13  C   UNL     1       8.240   6.292  19.195  0.00  0.00    +0.000 A 
ATOM     14  C   UNL     1       8.408   7.657  18.970  0.00  0.00    +0.000 A 
ATOM     15  C   UNL     1       8.009   8.211  17.757  0.00  0.00    +0.000 A 
ATOM     16  C   UNL     1       7.442   7.400  16.769  0.00  0.00    +0.000 A 
ENDBRANCH   9  11
ENDBRANCH   2   5
BRANCH   3  17
ATOM     17  C   UNL     1       2.918   5.369  18.481  0.00  0.00    +0.000 C 
BRANCH  17  18
ATOM     18  C   UNL     1       2.409   6.743  18.821  0.00  0.00    +0.000 A 
ATOM     19  C   UNL     1       1.963   7.021  20.117  0.00  0.00    +0.000 A 
ATOM     20  C   UNL     1       1.513   8.298  20.456  0.00  0.00    +0.000 A 
ATOM     21  C   UNL     1       1.380   9.281  19.470  0.00  0.00    +0.000 A 
ATOM     22  C   UNL     1       1.879   9.029  18.188  0.00  0.00    +0.000 A 
ATOM     23  C   UNL     1       2.392   7.766  17.864  0.00  0.00    +0.000 A 
BRANCH  21  24
ATOM     24  C   UNL     1       0.714  10.596  19.722  0.00  0.00    +0.000 C 
ATOM     25  O   UNL     1       1.037  11.532  18.994  0.00  0.00    +0.000 OA
ATOM     26  N   UNL     1      -0.276  10.703  20.711  0.00  0.00    +0.000 N 
ATOM     27  C   UNL     1      -0.998  11.970  20.842  0.00  0.00    +0.000 C 
ATOM     28  C   UNL     1      -1.059  12.434  22.300  0.00  0.00    +0.000 C 
ATOM     29  C   UNL     1      -1.498  11.321  23.255  0.00  0.00    +0.000 C 
ATOM     30  C   UNL     1      -0.690  10.048  23.016  0.00  0.00    +0.000 C 
ATOM     31  C   UNL     1      -0.824   9.638  21.551  0.00  0.00    +0.000 C 
ENDBRANCH  21  24
ENDBRANCH  17  18
ENDBRANCH   3  17
TORSDOF 5
ENDMDL
MODEL 8
REMARK VINA RESULT:      -8.8      3.106      9.367
REMARK  Name = 
REMARK  5 active torsions:
REMARK  status: ('A' for Active; 'I' for Inactive)
REMARK    1  A    between atoms: C_2  and  C_19
REMARK    2  A    between atoms: N_3  and  C_4
REMARK    3  A    between atoms: C_4  and  C_5
REMARK    4  A    between atoms: C_8  and  C_9
REMARK    5  A    between atoms: C_23  and  C_24
REMARK                            x       y       z     vdW  Elec       q    Type
REMARK                         _______ _______ _______ _____ _____    ______ ____
ROOT
ATOM      1  O   UNL     1      -1.883  11.921  19.549  0.00  0.00    +0.000 OA
ATOM      2  C   UNL     1      -1.758  11.317  18.492  0.00  0.00    +0.000 C 
ATOM      3  N   UNL     1      -0.628  10.576  18.203  0.00  0.00    +0.000 N 
ATOM      4  H   UNL     1      -0.488  10.220  17.268  0.00  0.00    +0.000 HD
ENDROOT
BRANCH   2   5
ATOM      5  C   UNL     1      -2.751  11.357  17.430  0.00  0.00    +0.000 A 
ATOM      6  C   UNL     1      -2.500  11.276  16.074  0.00  0.00    +0.000 A 
ATOM      7  N   UNL     1      -3.713  11.251  15.462  0.00  0.00    +0.000 N 
ATOM      8  N   UNL     1      -4.742  11.359  16.306  0.00  0.00    +0.000 NA
ATOM      9  C   UNL     1      -4.183  11.440  17.530  0.00  0.00    +0.000 A 
ATOM     10  H   UNL     1      -3.918  11.162  14.471  0.00  0.00    +0.000 HD
BRANCH   9  11
ATOM     11  C   UNL     1      -5.035  11.637  18.712  0.00  0.00    +0.000 A 
ATOM     12  C   UNL     1      -4.818  12.725  19.574  0.00  0.00    +0.000 A 
ATOM     13  C   UNL     1      -5.609  12.907  20.714  0.00  0.00    +0.000 A 
ATOM     14  C   UNL     1      -6.627  12.003  21.009  0.00  0.00    +0.000 A 
ATOM     15  C   UNL     1      -6.847  10.913  20.173  0.00  0.00    +0.000 A 
ATOM     16  C   UNL     1      -6.049  10.726  19.040  0.00  0.00    +0.000 A 
ENDBRANCH   9  11
ENDBRANCH   2   5
BRANCH   3  17
ATOM     17  C   UNL     1       0.476  10.590  19.135  0.00  0.00    +0.000 C 
BRANCH  17  18
ATOM     18  C   UNL     1       1.181   9.264  19.216  0.00  0.00    +0.000 A 
ATOM     19  C   UNL     1       1.266   8.592  20.440  0.00  0.00    +0.000 A 
ATOM     20  C   UNL     1       1.893   7.348  20.527  0.00  0.00    +0.000 A 
ATOM     21  C   UNL     1       2.558   6.818  19.418  0.00  0.00    +0.000 A 
ATOM     22  C   UNL     1       2.428   7.453  18.179  0.00  0.00    +0.000 A 
ATOM     23  C   UNL     1       1.741   8.670  18.078  0.00  0.00    +0.000 A 
BRANCH  21  24
ATOM     24  C   UNL     1       3.420   5.598  19.498  0.00  0.00    +0.000 C 
ATOM     25  O   UNL     1       4.635   5.776  19.534  0.00  0.00    +0.000 OA
ATOM     26  N   UNL     1       2.831   4.327  19.591  0.00  0.00    +0.000 N 
ATOM     27  C   UNL     1       3.701   3.169  19.798  0.00  0.00    +0.000 C 
ATOM     28  C   UNL     1       3.365   2.032  18.828  0.00  0.00    +0.000 C 
ATOM     29  C   UNL     1       1.865   1.731  18.770  0.00  0.00    +0.000 C 
ATOM     30  C   UNL     1       1.060   3.013  18.567  0.00  0.00    +0.000 C 
ATOM     31  C   UNL     1       1.408   4.003  19.676  0.00  0.00    +0.000 C 
ENDBRANCH  21  24
ENDBRANCH  17  18
ENDBRANCH   3  17
TORSDOF 5
ENDMDL
MODEL 9
REMARK VINA RESULT:      -8.7      6.174      9.999
REMARK  Name = 
REMARK  5 active torsions:
REMARK  status: ('A' for Active; 'I' for Inactive)
REMARK    1  A    between atoms: C_2  and  C_19
REMARK    2  A    between atoms: N_3  and  C_4
REMARK    3  A    between atoms: C_4  and  C_5
REMARK    4  A    between atoms: C_8  and  C_9
REMARK    5  A    between atoms: C_23  and  C_24
REMARK                            x       y       z     vdW  Elec       q    Type
REMARK                         _______ _______ _______ _____ _____    ______ ____
ROOT
ATOM      1  O   UNL     1       9.875  10.635  17.535  0.00  0.00    +0.000 OA
ATOM      2  C   UNL     1       9.314  10.318  18.575  0.00  0.00    +0.000 C 
ATOM      3  N   UNL     1       8.494   9.209  18.657  0.00  0.00    +0.000 N 
ATOM      4  H   UNL     1       7.927   9.065  19.480  0.00  0.00    +0.000 HD
ENDROOT
BRANCH   2   5
ATOM      5  C   UNL     1       9.417  11.094  19.802  0.00  0.00    +0.000 A 
ATOM      6  C   UNL     1       8.972  10.708  21.051  0.00  0.00    +0.000 A 
ATOM      7  N   UNL     1       9.361  11.684  21.914  0.00  0.00    +0.000 N 
ATOM      8  N   UNL     1       9.984  12.705  21.321  0.00  0.00    +0.000 NA
ATOM      9  C   UNL     1      10.025  12.379  20.014  0.00  0.00    +0.000 A 
ATOM     10  H   UNL     1       9.237  11.722  22.921  0.00  0.00    +0.000 HD
BRANCH   9  11
ATOM     11  C   UNL     1      10.594  13.325  19.041  0.00  0.00    +0.000 A 
ATOM     12  C   UNL     1      11.759  12.999  18.328  0.00  0.00    +0.000 A 
ATOM     13  C   UNL     1      12.321  13.901  17.419  0.00  0.00    +0.000 A 
ATOM     14  C   UNL     1      11.727  15.144  17.210  0.00  0.00    +0.000 A 
ATOM     15  C   UNL     1      10.579  15.487  17.918  0.00  0.00    +0.000 A 
ATOM     16  C   UNL     1      10.025  14.589  18.834  0.00  0.00    +0.000 A 
ENDBRANCH   9  11
ENDBRANCH   2   5
BRANCH   3  17
ATOM     17  C   UNL     1       8.215   8.455  17.456  0.00  0.00    +0.000 C 
BRANCH  17  18
ATOM     18  C   UNL     1       7.235   7.338  17.689  0.00  0.00    +0.000 A 
ATOM     19  C   UNL     1       7.574   6.277  18.535  0.00  0.00    +0.000 A 
ATOM     20  C   UNL     1       6.666   5.247  18.783  0.00  0.00    +0.000 A 
ATOM     21  C   UNL     1       5.454   5.196  18.086  0.00  0.00    +0.000 A 
ATOM     22  C   UNL     1       5.085   6.280  17.286  0.00  0.00    +0.000 A 
ATOM     23  C   UNL     1       5.970   7.348  17.088  0.00  0.00    +0.000 A 
BRANCH  21  24
ATOM     24  C   UNL     1       4.534   4.019  18.150  0.00  0.00    +0.000 C 
ATOM     25  O   UNL     1       4.716   3.124  17.328  0.00  0.00    +0.000 OA
ATOM     26  N   UNL     1       3.558   3.943  19.157  0.00  0.00    +0.000 N 
ATOM     27  C   UNL     1       2.763   2.720  19.268  0.00  0.00    +0.000 C 
ATOM     28  C   UNL     1       1.267   3.030  19.384  0.00  0.00    +0.000 C 
ATOM     29  C   UNL     1       0.969   4.111  20.428  0.00  0.00    +0.000 C 
ATOM     30  C   UNL     1       1.867   5.328  20.223  0.00  0.00    +0.000 C 
ATOM     31  C   UNL     1       3.328   4.883  20.253  0.00  0.00    +0.000 C 
ENDBRANCH  21  24
ENDBRANCH  17  18
ENDBRANCH   3  17
TORSDOF 5
ENDMDL
