MODEL 1
REMARK VINA RESULT:      -8.8      0.000      0.000
REMARK  Name = 
REMARK  5 active torsions:
REMARK  status: ('A' for Active; 'I' for Inactive)
REMARK    1  A    between atoms: C_1  and  C_2
REMARK    2  A    between atoms: C_6  and  C_7
REMARK    3  A    between atoms: C_7  and  C_8
REMARK    4  A    between atoms: N_10  and  C_11
REMARK    5  A    between atoms: C_11  and  C_12
REMARK                            x       y       z     vdW  Elec       q    Type
REMARK                         _______ _______ _______ _____ _____    ______ ____
ROOT
ATOM      1  C   UNL     1       4.520   6.257  17.919  0.00  0.00    +0.000 C 
ATOM      2  O   UNL     1       5.037   7.079  17.165  0.00  0.00    +0.000 OA
ATOM      3  N   UNL     1       5.213   5.228  18.515  0.00  0.00    +0.000 N 
ATOM      4  H   UNL     1       4.696   4.461  18.929  0.00  0.00    +0.000 HD
ENDROOT
BRANCH   1   5
ATOM      5  C   UNL     1       3.039   6.296  18.204  0.00  0.00    +0.000 C 
ATOM      6  C   UNL     1       2.509   7.462  19.035  0.00  0.00    +0.000 C 
ATOM      7  C   UNL     1       2.244   7.425  17.562  0.00  0.00    +0.000 C 
BRANCH   5  13
ATOM      8  C   UNL     1       1.368   2.762  21.296  0.00  0.00    +0.000 C 
ATOM      9  C   UNL     1       1.678   3.147  19.881  0.00  0.00    +0.000 A 
ATOM     10  C   UNL     1       1.908   2.188  18.892  0.00  0.00    +0.000 A 
ATOM     11  C   UNL     1       2.322   2.581  17.621  0.00  0.00    +0.000 A 
ATOM     12  C   UNL     1       2.579   3.932  17.358  0.00  0.00    +0.000 A 
ATOM     13  C   UNL     1       2.415   4.913  18.353  0.00  0.00    +0.000 A 
ATOM     14  C   UNL     1       1.878   4.500  19.582  0.00  0.00    +0.000 A 
ENDBRANCH   5  13
ENDBRANCH   1   5
BRANCH   3  15
ATOM     15  C   UNL     1       6.566   4.966  18.099  0.00  0.00    +0.000 C 
BRANCH  15  16
ATOM     16  C   UNL     1       6.604   4.661  16.646  0.00  0.00    +0.000 A 
ATOM     17  N   UNL     1       5.861   3.800  15.977  0.00  0.00    +0.000 NA
ATOM     18  C   UNL     1       6.206   3.954  14.655  0.00  0.00    +0.000 A 
ATOM     19  C   UNL     1       5.708   3.312  13.512  0.00  0.00    +0.000 A 
ATOM     20  C   UNL     1       6.230   3.663  12.260  0.00  0.00    +0.000 A 
ATOM     21  C   UNL     1       7.230   4.634  12.148  0.00  0.00    +0.000 A 
ATOM     22  C   UNL     1       7.738   5.285  13.278  0.00  0.00    +0.000 A 
ATOM     23  C   UNL     1       7.200   4.915  14.513  0.00  0.00    +0.000 A 
ATOM     24  N   UNL     1       7.448   5.342  15.791  0.00  0.00    +0.000 N 
ATOM     25  H   UNL     1       8.111   6.049  16.059  0.00  0.00    +0.000 HD
ENDBRANCH  15  16
ENDBRANCH   3  15
TORSDOF 4
ENDMDL
MODEL 2
REMARK VINA RESULT:      -8.6      0.111      1.214
REMARK  Name = 
REMARK  5 active torsions:
REMARK  status: ('A' for Active; 'I' for Inactive)
REMARK    1  A    between atoms: C_1  and  C_2
REMARK    2  A    between atoms: C_6  and  C_7
REMARK    3  A    between atoms: C_7  and  C_8
REMARK    4  A    between atoms: N_10  and  C_11
REMARK    5  A    between atoms: C_11  and  C_12
REMARK                            x       y       z     vdW  Elec       q    Type
REMARK                         _______ _______ _______ _____ _____    ______ ____
ROOT
ATOM      1  C   UNL     1       4.536   6.248  17.920  0.00  0.00    +0.000 C 
ATOM      2  O   UNL     1       5.033   7.073  17.155  0.00  0.00    +0.000 OA
ATOM      3  N   UNL     1       5.245   5.221  18.499  0.00  0.00    +0.000 N 
ATOM      4  H   UNL     1       4.740   4.452  18.924  0.00  0.00    +0.000 HD
ENDROOT
BRANCH   1   5
ATOM      5  C   UNL     1       3.062   6.284  18.239  0.00  0.00    +0.000 C 
ATOM      6  C   UNL     1       2.552   7.435  19.103  0.00  0.00    +0.000 C 
ATOM      7  C   UNL     1       2.254   7.425  17.636  0.00  0.00    +0.000 C 
BRANCH   5  13
ATOM      8  C   UNL     1       1.382   2.729  21.302  0.00  0.00    +0.000 C 
ATOM      9  C   UNL     1       1.698   3.123  19.891  0.00  0.00    +0.000 A 
ATOM     10  C   UNL     1       1.935   2.169  18.898  0.00  0.00    +0.000 A 
ATOM     11  C   UNL     1       2.355   2.571  17.631  0.00  0.00    +0.000 A 
ATOM     12  C   UNL     1       2.610   3.924  17.377  0.00  0.00    +0.000 A 
ATOM     13  C   UNL     1       2.440   4.899  18.376  0.00  0.00    +0.000 A 
ATOM     14  C   UNL     1       1.898   4.478  19.601  0.00  0.00    +0.000 A 
ENDBRANCH   5  13
ENDBRANCH   1   5
BRANCH   3  15
ATOM     15  C   UNL     1       6.589   4.963  18.052  0.00  0.00    +0.000 C 
BRANCH  15  16
ATOM     16  C   UNL     1       6.620   4.837  16.572  0.00  0.00    +0.000 A 
ATOM     17  N   UNL     1       7.465   5.398  15.727  0.00  0.00    +0.000 NA
ATOM     18  C   UNL     1       7.140   4.899  14.487  0.00  0.00    +0.000 A 
ATOM     19  C   UNL     1       7.731   5.136  13.238  0.00  0.00    +0.000 A 
ATOM     20  C   UNL     1       7.211   4.485  12.112  0.00  0.00    +0.000 A 
ATOM     21  C   UNL     1       6.121   3.616  12.227  0.00  0.00    +0.000 A 
ATOM     22  C   UNL     1       5.520   3.368  13.466  0.00  0.00    +0.000 A 
ATOM     23  C   UNL     1       6.060   4.030  14.572  0.00  0.00    +0.000 A 
ATOM     24  N   UNL     1       5.735   4.015  15.903  0.00  0.00    +0.000 N 
ATOM     25  H   UNL     1       4.998   3.477  16.325  0.00  0.00    +0.000 HD
ENDBRANCH  15  16
ENDBRANCH   3  15
TORSDOF 4
ENDMDL
MODEL 3
REMARK VINA RESULT:      -8.5      2.619      4.574
REMARK  Name = 
REMARK  5 active torsions:
REMARK  status: ('A' for Active; 'I' for Inactive)
REMARK    1  A    between atoms: C_1  and  C_2
REMARK    2  A    between atoms: C_6  and  C_7
REMARK    3  A    between atoms: C_7  and  C_8
REMARK    4  A    between atoms: N_10  and  C_11
REMARK    5  A    between atoms: C_11  and  C_12
REMARK                            x       y       z     vdW  Elec       q    Type
REMARK                         _______ _______ _______ _____ _____    ______ ____
ROOT
ATOM      1  C   UNL     1       3.206   3.016  19.042  0.00  0.00    +0.000 C 
ATOM      2  O   UNL     1       4.133   2.601  19.735  0.00  0.00    +0.000 OA
ATOM      3  N   UNL     1       3.260   3.109  17.670  0.00  0.00    +0.000 N 
ATOM      4  H   UNL     1       2.566   3.667  17.187  0.00  0.00    +0.000 HD
ENDROOT
BRANCH   1   5
ATOM      5  C   UNL     1       1.931   3.512  19.679  0.00  0.00    +0.000 C 
ATOM      6  C   UNL     1       0.694   2.622  19.574  0.00  0.00    +0.000 C 
ATOM      7  C   UNL     1       1.413   2.735  20.882  0.00  0.00    +0.000 C 
BRANCH   5  13
ATOM      8  C   UNL     1       3.189   7.777  17.428  0.00  0.00    +0.000 C 
ATOM      9  C   UNL     1       2.473   7.126  18.573  0.00  0.00    +0.000 A 
ATOM     10  C   UNL     1       2.189   7.820  19.751  0.00  0.00    +0.000 A 
ATOM     11  C   UNL     1       1.642   7.148  20.842  0.00  0.00    +0.000 A 
ATOM     12  C   UNL     1       1.446   5.763  20.781  0.00  0.00    +0.000 A 
ATOM     13  C   UNL     1       1.781   5.029  19.629  0.00  0.00    +0.000 A 
ATOM     14  C   UNL     1       2.212   5.752  18.507  0.00  0.00    +0.000 A 
ENDBRANCH   5  13
ENDBRANCH   1   5
BRANCH   3  15
ATOM     15  C   UNL     1       4.521   2.900  17.008  0.00  0.00    +0.000 C 
BRANCH  15  16
ATOM     16  C   UNL     1       5.410   4.071  17.217  0.00  0.00    +0.000 A 
ATOM     17  N   UNL     1       5.426   5.208  16.548  0.00  0.00    +0.000 NA
ATOM     18  C   UNL     1       6.355   6.002  17.180  0.00  0.00    +0.000 A 
ATOM     19  C   UNL     1       6.752   7.318  16.905  0.00  0.00    +0.000 A 
ATOM     20  C   UNL     1       7.725   7.912  17.718  0.00  0.00    +0.000 A 
ATOM     21  C   UNL     1       8.293   7.209  18.785  0.00  0.00    +0.000 A 
ATOM     22  C   UNL     1       7.908   5.895  19.074  0.00  0.00    +0.000 A 
ATOM     23  C   UNL     1       6.936   5.327  18.246  0.00  0.00    +0.000 A 
ATOM     24  N   UNL     1       6.332   4.097  18.244  0.00  0.00    +0.000 N 
ATOM     25  H   UNL     1       6.508   3.352  18.896  0.00  0.00    +0.000 HD
ENDBRANCH  15  16
ENDBRANCH   3  15
TORSDOF 4
ENDMDL
MODEL 4
REMARK VINA RESULT:      -8.5      1.518      3.537
REMARK  Name = 
REMARK  5 active torsions:
REMARK  status: ('A' for Active; 'I' for Inactive)
REMARK    1  A    between atoms: C_1  and  C_2
REMARK    2  A    between atoms: C_6  and  C_7
REMARK    3  A    between atoms: C_7  and  C_8
REMARK    4  A    between atoms: N_10  and  C_11
REMARK    5  A    between atoms: C_11  and  C_12
REMARK                            x       y       z     vdW  Elec       q    Type
REMARK                         _______ _______ _______ _____ _____    ______ ____
ROOT
ATOM      1  C   UNL     1       4.276   5.367  19.097  0.00  0.00    +0.000 C 
ATOM      2  O   UNL     1       5.044   5.262  20.051  0.00  0.00    +0.000 OA
ATOM      3  N   UNL     1       4.679   5.296  17.783  0.00  0.00    +0.000 N 
ATOM      4  H   UNL     1       4.050   5.619  17.057  0.00  0.00    +0.000 HD
ENDROOT
BRANCH   1   5
ATOM      5  C   UNL     1       2.808   5.640  19.314  0.00  0.00    +0.000 C 
ATOM      6  C   UNL     1       1.814   4.585  18.833  0.00  0.00    +0.000 C 
ATOM      7  C   UNL     1       2.078   4.737  20.299  0.00  0.00    +0.000 C 
BRANCH   5  13
ATOM      8  C   UNL     1       0.257   9.458  21.252  0.00  0.00    +0.000 C 
ATOM      9  C   UNL     1       1.123   8.968  20.131  0.00  0.00    +0.000 A 
ATOM     10  C   UNL     1       1.136   9.596  18.884  0.00  0.00    +0.000 A 
ATOM     11  C   UNL     1       1.851   9.036  17.828  0.00  0.00    +0.000 A 
ATOM     12  C   UNL     1       2.496   7.804  17.997  0.00  0.00    +0.000 A 
ATOM     13  C   UNL     1       2.448   7.119  19.225  0.00  0.00    +0.000 A 
ATOM     14  C   UNL     1       1.826   7.769  20.302  0.00  0.00    +0.000 A 
ENDBRANCH   5  13
ENDBRANCH   1   5
BRANCH   3  15
ATOM     15  C   UNL     1       6.088   5.295  17.485  0.00  0.00    +0.000 C 
BRANCH  15  16
ATOM     16  C   UNL     1       6.305   5.053  16.036  0.00  0.00    +0.000 A 
ATOM     17  N   UNL     1       7.249   5.555  15.262  0.00  0.00    +0.000 NA
ATOM     18  C   UNL     1       7.083   4.957  14.035  0.00  0.00    +0.000 A 
ATOM     19  C   UNL     1       7.826   5.102  12.855  0.00  0.00    +0.000 A 
ATOM     20  C   UNL     1       7.452   4.360  11.727  0.00  0.00    +0.000 A 
ATOM     21  C   UNL     1       6.357   3.491  11.772  0.00  0.00    +0.000 A 
ATOM     22  C   UNL     1       5.604   3.335  12.942  0.00  0.00    +0.000 A 
ATOM     23  C   UNL     1       6.000   4.087  14.051  0.00  0.00    +0.000 A 
ATOM     24  N   UNL     1       5.511   4.173  15.328  0.00  0.00    +0.000 N 
ATOM     25  H   UNL     1       4.727   3.662  15.695  0.00  0.00    +0.000 HD
ENDBRANCH  15  16
ENDBRANCH   3  15
TORSDOF 4
ENDMDL
MODEL 5
REMARK VINA RESULT:      -8.5      1.226      3.147
REMARK  Name = 
REMARK  5 active torsions:
REMARK  status: ('A' for Active; 'I' for Inactive)
REMARK    1  A    between atoms: C_1  and  C_2
REMARK    2  A    between atoms: C_6  and  C_7
REMARK    3  A    between atoms: C_7  and  C_8
REMARK    4  A    between atoms: N_10  and  C_11
REMARK    5  A    between atoms: C_11  and  C_12
REMARK                            x       y       z     vdW  Elec       q    Type
REMARK                         _______ _______ _______ _____ _____    ______ ____
ROOT
ATOM      1  C   UNL     1       4.604   6.164  18.076  0.00  0.00    +0.000 C 
ATOM      2  O   UNL     1       5.076   7.159  17.530  0.00  0.00    +0.000 OA
ATOM      3  N   UNL     1       5.341   5.045  18.392  0.00  0.00    +0.000 N 
ATOM      4  H   UNL     1       4.857   4.185  18.621  0.00  0.00    +0.000 HD
ENDROOT
BRANCH   1   5
ATOM      5  C   UNL     1       3.132   6.085  18.396  0.00  0.00    +0.000 C 
ATOM      6  C   UNL     1       2.304   5.033  17.660  0.00  0.00    +0.000 C 
ATOM      7  C   UNL     1       2.646   4.827  19.102  0.00  0.00    +0.000 C 
BRANCH   5  13
ATOM      8  C   UNL     1       0.488   8.789  21.641  0.00  0.00    +0.000 C 
ATOM      9  C   UNL     1       1.140   8.733  20.293  0.00  0.00    +0.000 A 
ATOM     10  C   UNL     1       0.754   9.583  19.254  0.00  0.00    +0.000 A 
ATOM     11  C   UNL     1       1.288   9.414  17.979  0.00  0.00    +0.000 A 
ATOM     12  C   UNL     1       2.156   8.346  17.722  0.00  0.00    +0.000 A 
ATOM     13  C   UNL     1       2.514   7.437  18.734  0.00  0.00    +0.000 A 
ATOM     14  C   UNL     1       2.057   7.708  20.034  0.00  0.00    +0.000 A 
ENDBRANCH   5  13
ENDBRANCH   1   5
BRANCH   3  15
ATOM     15  C   UNL     1       6.688   4.935  17.894  0.00  0.00    +0.000 C 
BRANCH  15  16
ATOM     16  C   UNL     1       6.672   4.627  16.441  0.00  0.00    +0.000 A 
ATOM     17  N   UNL     1       5.859   3.815  15.792  0.00  0.00    +0.000 NA
ATOM     18  C   UNL     1       6.183   3.947  14.461  0.00  0.00    +0.000 A 
ATOM     19  C   UNL     1       5.618   3.338  13.332  0.00  0.00    +0.000 A 
ATOM     20  C   UNL     1       6.132   3.654  12.068  0.00  0.00    +0.000 A 
ATOM     21  C   UNL     1       7.189   4.559  11.930  0.00  0.00    +0.000 A 
ATOM     22  C   UNL     1       7.765   5.176  13.047  0.00  0.00    +0.000 A 
ATOM     23  C   UNL     1       7.233   4.842  14.295  0.00  0.00    +0.000 A 
ATOM     24  N   UNL     1       7.538   5.252  15.566  0.00  0.00    +0.000 N 
ATOM     25  H   UNL     1       8.251   5.916  15.816  0.00  0.00    +0.000 HD
ENDBRANCH  15  16
ENDBRANCH   3  15
TORSDOF 4
ENDMDL
MODEL 6
REMARK VINA RESULT:      -8.4      1.432      3.289
REMARK  Name = 
REMARK  5 active torsions:
REMARK  status: ('A' for Active; 'I' for Inactive)
REMARK    1  A    between atoms: C_1  and  C_2
REMARK    2  A    between atoms: C_6  and  C_7
REMARK    3  A    between atoms: C_7  and  C_8
REMARK    4  A    between atoms: N_10  and  C_11
REMARK    5  A    between atoms: C_11  and  C_12
REMARK                            x       y       z     vdW  Elec       q    Type
REMARK                         _______ _______ _______ _____ _____    ______ ____
ROOT
ATOM      1  C   UNL     1       4.196   3.631  18.917  0.00  0.00    +0.000 C 
ATOM      2  O   UNL     1       4.968   3.075  19.696  0.00  0.00    +0.000 OA
ATOM      3  N   UNL     1       4.602   4.285  17.777  0.00  0.00    +0.000 N 
ATOM      4  H   UNL     1       3.956   4.911  17.311  0.00  0.00    +0.000 HD
ENDROOT
BRANCH   1   5
ATOM      5  C   UNL     1       2.714   3.674  19.200  0.00  0.00    +0.000 C 
ATOM      6  C   UNL     1       1.835   2.618  18.532  0.00  0.00    +0.000 C 
ATOM      7  C   UNL     1       2.131   2.515  19.996  0.00  0.00    +0.000 C 
BRANCH   5  13
ATOM      8  C   UNL     1       2.701   8.417  17.668  0.00  0.00    +0.000 C 
ATOM      9  C   UNL     1       2.247   7.431  18.702  0.00  0.00    +0.000 A 
ATOM     10  C   UNL     1       1.868   7.834  19.984  0.00  0.00    +0.000 A 
ATOM     11  C   UNL     1       1.579   6.880  20.958  0.00  0.00    +0.000 A 
ATOM     12  C   UNL     1       1.740   5.519  20.671  0.00  0.00    +0.000 A 
ATOM     13  C   UNL     1       2.179   5.087  19.406  0.00  0.00    +0.000 A 
ATOM     14  C   UNL     1       2.342   6.064  18.412  0.00  0.00    +0.000 A 
ENDBRANCH   5  13
ENDBRANCH   1   5
BRANCH   3  15
ATOM     15  C   UNL     1       6.009   4.511  17.568  0.00  0.00    +0.000 C 
BRANCH  15  16
ATOM     16  C   UNL     1       6.336   4.401  16.123  0.00  0.00    +0.000 A 
ATOM     17  N   UNL     1       5.821   3.571  15.235  0.00  0.00    +0.000 NA
ATOM     18  C   UNL     1       6.375   3.926  14.027  0.00  0.00    +0.000 A 
ATOM     19  C   UNL     1       6.159   3.395  12.747  0.00  0.00    +0.000 A 
ATOM     20  C   UNL     1       6.851   3.950  11.662  0.00  0.00    +0.000 A 
ATOM     21  C   UNL     1       7.742   5.012  11.848  0.00  0.00    +0.000 A 
ATOM     22  C   UNL     1       7.968   5.554  13.119  0.00  0.00    +0.000 A 
ATOM     23  C   UNL     1       7.265   4.981  14.182  0.00  0.00    +0.000 A 
ATOM     24  N   UNL     1       7.236   5.259  15.524  0.00  0.00    +0.000 N 
ATOM     25  H   UNL     1       7.759   5.981  15.988  0.00  0.00    +0.000 HD
ENDBRANCH  15  16
ENDBRANCH   3  15
TORSDOF 4
ENDMDL
MODEL 7
REMARK VINA RESULT:      -8.4      1.385      3.300
REMARK  Name = 
REMARK  5 active torsions:
REMARK  status: ('A' for Active; 'I' for Inactive)
REMARK    1  A    between atoms: C_1  and  C_2
REMARK    2  A    between atoms: C_6  and  C_7
REMARK    3  A    between atoms: C_7  and  C_8
REMARK    4  A    between atoms: N_10  and  C_11
REMARK    5  A    between atoms: C_11  and  C_12
REMARK                            x       y       z     vdW  Elec       q    Type
REMARK                         _______ _______ _______ _____ _____    ______ ____
ROOT
ATOM      1  C   UNL     1       3.889   4.176  18.377  0.00  0.00    +0.000 C 
ATOM      2  O   UNL     1       3.992   3.016  17.982  0.00  0.00    +0.000 OA
ATOM      3  N   UNL     1       4.919   5.088  18.342  0.00  0.00    +0.000 N 
ATOM      4  H   UNL     1       4.842   5.939  18.888  0.00  0.00    +0.000 HD
ENDROOT
BRANCH   1   5
ATOM      5  C   UNL     1       2.602   4.669  18.991  0.00  0.00    +0.000 C 
ATOM      6  C   UNL     1       1.342   3.839  18.754  0.00  0.00    +0.000 C 
ATOM      7  C   UNL     1       1.998   3.818  20.099  0.00  0.00    +0.000 C 
BRANCH   5  13
ATOM      8  C   UNL     1       1.036   8.663  21.528  0.00  0.00    +0.000 C 
ATOM      9  C   UNL     1       1.658   8.142  20.267  0.00  0.00    +0.000 A 
ATOM     10  C   UNL     1       1.633   8.875  19.079  0.00  0.00    +0.000 A 
ATOM     11  C   UNL     1       2.103   8.304  17.898  0.00  0.00    +0.000 A 
ATOM     12  C   UNL     1       2.530   6.971  17.888  0.00  0.00    +0.000 A 
ATOM     13  C   UNL     1       2.508   6.189  19.058  0.00  0.00    +0.000 A 
ATOM     14  C   UNL     1       2.147   6.830  20.254  0.00  0.00    +0.000 A 
ENDBRANCH   5  13
ENDBRANCH   1   5
BRANCH   3  15
ATOM     15  C   UNL     1       6.244   4.631  18.013  0.00  0.00    +0.000 C 
BRANCH  15  16
ATOM     16  C   UNL     1       6.436   4.637  16.540  0.00  0.00    +0.000 A 
ATOM     17  N   UNL     1       7.236   5.409  15.829  0.00  0.00    +0.000 NA
ATOM     18  C   UNL     1       7.128   4.966  14.532  0.00  0.00    +0.000 A 
ATOM     19  C   UNL     1       7.778   5.409  13.371  0.00  0.00    +0.000 A 
ATOM     20  C   UNL     1       7.495   4.774  12.155  0.00  0.00    +0.000 A 
ATOM     21  C   UNL     1       6.580   3.717  12.095  0.00  0.00    +0.000 A 
ATOM     22  C   UNL     1       5.923   3.262  13.244  0.00  0.00    +0.000 A 
ATOM     23  C   UNL     1       6.224   3.915  14.442  0.00  0.00    +0.000 A 
ATOM     24  N   UNL     1       5.786   3.730  15.727  0.00  0.00    +0.000 N 
ATOM     25  H   UNL     1       5.125   3.036  16.031  0.00  0.00    +0.000 HD
ENDBRANCH  15  16
ENDBRANCH   3  15
TORSDOF 4
ENDMDL
MODEL 8
REMARK VINA RESULT:      -8.4      1.428      3.502
REMARK  Name = 
REMARK  5 active torsions:
REMARK  status: ('A' for Active; 'I' for Inactive)
REMARK    1  A    between atoms: C_1  and  C_2
REMARK    2  A    between atoms: C_6  and  C_7
REMARK    3  A    between atoms: C_7  and  C_8
REMARK    4  A    between atoms: N_10  and  C_11
REMARK    5  A    between atoms: C_11  and  C_12
REMARK                            x       y       z     vdW  Elec       q    Type
REMARK                         _______ _______ _______ _____ _____    ______ ____
ROOT
ATOM      1  C   UNL     1       4.157   3.523  18.940  0.00  0.00    +0.000 C 
ATOM      2  O   UNL     1       4.898   2.748  19.541  0.00  0.00    +0.000 OA
ATOM      3  N   UNL     1       4.593   4.403  17.976  0.00  0.00    +0.000 N 
ATOM      4  H   UNL     1       3.987   5.163  17.692  0.00  0.00    +0.000 HD
ENDROOT
BRANCH   1   5
ATOM      5  C   UNL     1       2.687   3.597  19.272  0.00  0.00    +0.000 C 
ATOM      6  C   UNL     1       1.773   2.530  18.673  0.00  0.00    +0.000 C 
ATOM      7  C   UNL     1       2.117   2.475  20.128  0.00  0.00    +0.000 C 
BRANCH   5  13
ATOM      8  C   UNL     1       2.720   8.292  17.600  0.00  0.00    +0.000 C 
ATOM      9  C   UNL     1       2.268   7.344  18.669  0.00  0.00    +0.000 A 
ATOM     10  C   UNL     1       1.915   7.790  19.945  0.00  0.00    +0.000 A 
ATOM     11  C   UNL     1       1.628   6.870  20.951  0.00  0.00    +0.000 A 
ATOM     12  C   UNL     1       1.764   5.499  20.702  0.00  0.00    +0.000 A 
ATOM     13  C   UNL     1       2.176   5.023  19.444  0.00  0.00    +0.000 A 
ATOM     14  C   UNL     1       2.338   5.968  18.419  0.00  0.00    +0.000 A 
ENDBRANCH   5  13
ENDBRANCH   1   5
BRANCH   3  15
ATOM     15  C   UNL     1       6.010   4.577  17.782  0.00  0.00    +0.000 C 
BRANCH  15  16
ATOM     16  C   UNL     1       6.323   4.649  16.332  0.00  0.00    +0.000 A 
ATOM     17  N   UNL     1       7.193   5.437  15.728  0.00  0.00    +0.000 NA
ATOM     18  C   UNL     1       7.185   5.058  14.406  0.00  0.00    +0.000 A 
ATOM     19  C   UNL     1       7.937   5.541  13.326  0.00  0.00    +0.000 A 
ATOM     20  C   UNL     1       7.745   4.969  12.061  0.00  0.00    +0.000 A 
ATOM     21  C   UNL     1       6.820   3.937  11.875  0.00  0.00    +0.000 A 
ATOM     22  C   UNL     1       6.061   3.442  12.943  0.00  0.00    +0.000 A 
ATOM     23  C   UNL     1       6.274   4.031  14.192  0.00  0.00    +0.000 A 
ATOM     24  N   UNL     1       5.727   3.796  15.426  0.00  0.00    +0.000 N 
ATOM     25  H   UNL     1       5.032   3.101  15.641  0.00  0.00    +0.000 HD
ENDBRANCH  15  16
ENDBRANCH   3  15
TORSDOF 4
ENDMDL
MODEL 9
REMARK VINA RESULT:      -8.4      1.206      1.226
REMARK  Name = 
REMARK  5 active torsions:
REMARK  status: ('A' for Active; 'I' for Inactive)
REMARK    1  A    between atoms: C_1  and  C_2
REMARK    2  A    between atoms: C_6  and  C_7
REMARK    3  A    between atoms: C_7  and  C_8
REMARK    4  A    between atoms: N_10  and  C_11
REMARK    5  A    between atoms: C_11  and  C_12
REMARK                            x       y       z     vdW  Elec       q    Type
REMARK                         _______ _______ _______ _____ _____    ______ ____
ROOT
ATOM      1  C   UNL     1       4.075   5.845  18.554  0.00  0.00    +0.000 C 
ATOM      2  O   UNL     1       4.801   5.129  19.241  0.00  0.00    +0.000 OA
ATOM      3  N   UNL     1       4.488   6.463  17.396  0.00  0.00    +0.000 N 
ATOM      4  H   UNL     1       3.926   7.213  17.010  0.00  0.00    +0.000 HD
ENDROOT
BRANCH   1   5
ATOM      5  C   UNL     1       2.657   6.140  18.979  0.00  0.00    +0.000 C 
ATOM      6  C   UNL     1       2.421   7.382  19.837  0.00  0.00    +0.000 C 
ATOM      7  C   UNL     1       2.010   7.389  18.397  0.00  0.00    +0.000 C 
BRANCH   5  13
ATOM      8  C   UNL     1       1.323   2.521  22.135  0.00  0.00    +0.000 C 
ATOM      9  C   UNL     1       1.240   3.063  20.740  0.00  0.00    +0.000 A 
ATOM     10  C   UNL     1       0.921   2.246  19.653  0.00  0.00    +0.000 A 
ATOM     11  C   UNL     1       0.983   2.755  18.357  0.00  0.00    +0.000 A 
ATOM     12  C   UNL     1       1.436   4.062  18.141  0.00  0.00    +0.000 A 
ATOM     13  C   UNL     1       1.823   4.886  19.213  0.00  0.00    +0.000 A 
ATOM     14  C   UNL     1       1.631   4.388  20.511  0.00  0.00    +0.000 A 
ENDBRANCH   5  13
ENDBRANCH   1   5
BRANCH   3  15
ATOM     15  C   UNL     1       5.888   6.443  17.057  0.00  0.00    +0.000 C 
BRANCH  15  16
ATOM     16  C   UNL     1       6.104   5.649  15.821  0.00  0.00    +0.000 A 
ATOM     17  N   UNL     1       5.324   4.716  15.309  0.00  0.00    +0.000 NA
ATOM     18  C   UNL     1       5.907   4.354  14.117  0.00  0.00    +0.000 A 
ATOM     19  C   UNL     1       5.487   3.427  13.153  0.00  0.00    +0.000 A 
ATOM     20  C   UNL     1       6.267   3.247  12.004  0.00  0.00    +0.000 A 
ATOM     21  C   UNL     1       7.447   3.976  11.818  0.00  0.00    +0.000 A 
ATOM     22  C   UNL     1       7.881   4.906  12.770  0.00  0.00    +0.000 A 
ATOM     23  C   UNL     1       7.082   5.064  13.906  0.00  0.00    +0.000 A 
ATOM     24  N   UNL     1       7.197   5.872  15.007  0.00  0.00    +0.000 N 
ATOM     25  H   UNL     1       7.934   6.533  15.180  0.00  0.00    +0.000 HD
ENDBRANCH  15  16
ENDBRANCH   3  15
TORSDOF 4
ENDMDL
