MODEL 1
REMARK VINA RESULT:      -8.5      0.000      0.000
REMARK  Name = 
REMARK  6 active torsions:
REMARK  status: ('A' for Active; 'I' for Inactive)
REMARK    1  A    between atoms: C_1  and  C_2
REMARK    2  A    between atoms: C_4  and  C_5
REMARK    3  A    between atoms: C_8  and  S_9
REMARK    4  A    between atoms: S_9  and  N_12
REMARK    5  A    between atoms: N_12  and  C_13
REMARK    6  A    between atoms: C_13  and  C_14
REMARK                            x       y       z     vdW  Elec       q    Type
REMARK                         _______ _______ _______ _____ _____    ______ ____
ROOT
ATOM      1  S   UNL     1       2.602   2.976  20.560  0.00  0.00    +0.000 S 
ATOM      2  O   UNL     1       1.423   2.332  20.025  0.00  0.00    +0.000 OA
ATOM      3  O   UNL     1       3.432   2.337  21.557  0.00  0.00    +0.000 OA
ENDROOT
BRANCH   1   7
ATOM      4  C   UNL     1       5.211   4.078  16.957  0.00  0.00    +0.000 A 
ATOM      5  C   UNL     1       5.680   4.303  18.261  0.00  0.00    +0.000 A 
ATOM      6  C   UNL     1       4.887   3.988  19.375  0.00  0.00    +0.000 A 
ATOM      7  C   UNL     1       3.612   3.449  19.182  0.00  0.00    +0.000 A 
ATOM      8  C   UNL     1       3.137   3.204  17.895  0.00  0.00    +0.000 A 
ATOM      9  C   UNL     1       3.933   3.518  16.792  0.00  0.00    +0.000 A 
BRANCH   4  13
ATOM     10  C   UNL     1       7.152   4.344  12.396  0.00  0.00    +0.000 C 
ATOM     11  C   UNL     1       6.820   4.483  13.828  0.00  0.00    +0.000 A 
ATOM     12  N   UNL     1       5.856   3.916  14.530  0.00  0.00    +0.000 NA
ATOM     13  C   UNL     1       6.036   4.420  15.802  0.00  0.00    +0.000 A 
ATOM     14  C   UNL     1       7.111   5.275  15.801  0.00  0.00    +0.000 A 
ATOM     15  O   UNL     1       7.623   5.323  14.542  0.00  0.00    +0.000 OA
ENDBRANCH   4  13
ENDBRANCH   1   7
BRANCH   1  16
ATOM     16  N   UNL     1       2.073   4.463  21.187  0.00  0.00    +0.000 NA
ATOM     17  H   UNL     1       2.763   4.822  21.849  0.00  0.00    +0.000 HD
BRANCH  16  18
ATOM     18  C   UNL     1       1.513   5.420  20.214  0.00  0.00    +0.000 C 
BRANCH  18  19
ATOM     19  C   UNL     1       2.381   6.662  20.008  0.00  0.00    +0.000 C 
ATOM     20  C   UNL     1       2.692   6.922  18.488  0.00  0.00    +0.000 C 
ATOM     21  C   UNL     1       1.999   8.238  18.665  0.00  0.00    +0.000 A 
ATOM     22  C   UNL     1       1.648   9.399  18.016  0.00  0.00    +0.000 A 
ATOM     23  C   UNL     1       0.953  10.357  18.756  0.00  0.00    +0.000 A 
ATOM     24  C   UNL     1       0.636  10.123  20.109  0.00  0.00    +0.000 A 
ATOM     25  C   UNL     1       1.006   8.928  20.737  0.00  0.00    +0.000 A 
ATOM     26  C   UNL     1       1.684   8.000  19.982  0.00  0.00    +0.000 A 
ENDBRANCH  18  19
ENDBRANCH  16  18
ENDBRANCH   1  16
TORSDOF 5
ENDMDL
MODEL 2
REMARK VINA RESULT:      -8.4      2.916      6.531
REMARK  Name = 
REMARK  6 active torsions:
REMARK  status: ('A' for Active; 'I' for Inactive)
REMARK    1  A    between atoms: C_1  and  C_2
REMARK    2  A    between atoms: C_4  and  C_5
REMARK    3  A    between atoms: C_8  and  S_9
REMARK    4  A    between atoms: S_9  and  N_12
REMARK    5  A    between atoms: N_12  and  C_13
REMARK    6  A    between atoms: C_13  and  C_14
REMARK                            x       y       z     vdW  Elec       q    Type
REMARK                         _______ _______ _______ _____ _____    ______ ____
ROOT
ATOM      1  S   UNL     1       6.088   4.750  17.566  0.00  0.00    +0.000 S 
ATOM      2  O   UNL     1       6.794   5.345  16.453  0.00  0.00    +0.000 OA
ATOM      3  O   UNL     1       6.771   4.362  18.780  0.00  0.00    +0.000 OA
ENDROOT
BRANCH   1   7
ATOM      4  C   UNL     1       2.702   7.655  18.619  0.00  0.00    +0.000 A 
ATOM      5  C   UNL     1       3.074   6.649  19.525  0.00  0.00    +0.000 A 
ATOM      6  C   UNL     1       4.095   5.740  19.211  0.00  0.00    +0.000 A 
ATOM      7  C   UNL     1       4.748   5.836  17.978  0.00  0.00    +0.000 A 
ATOM      8  C   UNL     1       4.403   6.839  17.074  0.00  0.00    +0.000 A 
ATOM      9  C   UNL     1       3.387   7.740  17.395  0.00  0.00    +0.000 A 
BRANCH   4  13
ATOM     10  C   UNL     1      -0.913  11.046  18.349  0.00  0.00    +0.000 C 
ATOM     11  C   UNL     1       0.094  10.047  18.759  0.00  0.00    +0.000 A 
ATOM     12  N   UNL     1       0.951   9.362  18.025  0.00  0.00    +0.000 NA
ATOM     13  C   UNL     1       1.629   8.589  18.945  0.00  0.00    +0.000 A 
ATOM     14  C   UNL     1       1.140   8.850  20.202  0.00  0.00    +0.000 A 
ATOM     15  O   UNL     1       0.156   9.784  20.097  0.00  0.00    +0.000 OA
ENDBRANCH   4  13
ENDBRANCH   1   7
BRANCH   1  16
ATOM     16  N   UNL     1       5.304   3.380  16.940  0.00  0.00    +0.000 NA
ATOM     17  H   UNL     1       5.700   2.537  17.357  0.00  0.00    +0.000 HD
BRANCH  16  18
ATOM     18  C   UNL     1       3.834   3.456  16.842  0.00  0.00    +0.000 C 
BRANCH  18  19
ATOM     19  C   UNL     1       3.110   2.425  17.707  0.00  0.00    +0.000 C 
ATOM     20  C   UNL     1       4.026   1.870  18.860  0.00  0.00    +0.000 C 
ATOM     21  C   UNL     1       3.006   2.418  19.810  0.00  0.00    +0.000 A 
ATOM     22  C   UNL     1       2.684   2.531  21.143  0.00  0.00    +0.000 A 
ATOM     23  C   UNL     1       1.502   3.203  21.458  0.00  0.00    +0.000 A 
ATOM     24  C   UNL     1       0.690   3.736  20.438  0.00  0.00    +0.000 A 
ATOM     25  C   UNL     1       1.049   3.606  19.091  0.00  0.00    +0.000 A 
ATOM     26  C   UNL     1       2.222   2.945  18.811  0.00  0.00    +0.000 A 
ENDBRANCH  18  19
ENDBRANCH  16  18
ENDBRANCH   1  16
TORSDOF 5
ENDMDL
MODEL 3
REMARK VINA RESULT:      -8.4      2.992      6.631
REMARK  Name = 
REMARK  6 active torsions:
REMARK  status: ('A' for Active; 'I' for Inactive)
REMARK    1  A    between atoms: C_1  and  C_2
REMARK    2  A    between atoms: C_4  and  C_5
REMARK    3  A    between atoms: C_8  and  S_9
REMARK    4  A    between atoms: S_9  and  N_12
REMARK    5  A    between atoms: N_12  and  C_13
REMARK    6  A    between atoms: C_13  and  C_14
REMARK                            x       y       z     vdW  Elec       q    Type
REMARK                         _______ _______ _______ _____ _____    ______ ____
ROOT
ATOM      1  S   UNL     1       6.114   4.687  17.201  0.00  0.00    +0.000 S 
ATOM      2  O   UNL     1       6.443   5.240  15.906  0.00  0.00    +0.000 OA
ATOM      3  O   UNL     1       7.131   4.411  18.191  0.00  0.00    +0.000 OA
ENDROOT
BRANCH   1   7
ATOM      4  C   UNL     1       2.845   7.293  19.080  0.00  0.00    +0.000 A 
ATOM      5  C   UNL     1       3.241   7.511  17.751  0.00  0.00    +0.000 A 
ATOM      6  C   UNL     1       4.253   6.734  17.167  0.00  0.00    +0.000 A 
ATOM      7  C   UNL     1       4.877   5.735  17.919  0.00  0.00    +0.000 A 
ATOM      8  C   UNL     1       4.483   5.494  19.234  0.00  0.00    +0.000 A 
ATOM      9  C   UNL     1       3.475   6.270  19.808  0.00  0.00    +0.000 A 
BRANCH   4  13
ATOM     10  C   UNL     1      -0.618  10.749  19.919  0.00  0.00    +0.000 C 
ATOM     11  C   UNL     1       0.334   9.622  19.982  0.00  0.00    +0.000 A 
ATOM     12  N   UNL     1       1.185   9.184  19.072  0.00  0.00    +0.000 NA
ATOM     13  C   UNL     1       1.801   8.113  19.687  0.00  0.00    +0.000 A 
ATOM     14  C   UNL     1       1.284   7.959  20.950  0.00  0.00    +0.000 A 
ATOM     15  O   UNL     1       0.343   8.921  21.152  0.00  0.00    +0.000 OA
ENDBRANCH   4  13
ENDBRANCH   1   7
BRANCH   1  16
ATOM     16  N   UNL     1       5.274   3.245  16.890  0.00  0.00    +0.000 NA
ATOM     17  H   UNL     1       5.605   2.512  17.519  0.00  0.00    +0.000 HD
BRANCH  16  18
ATOM     18  C   UNL     1       3.815   3.366  16.706  0.00  0.00    +0.000 C 
BRANCH  18  19
ATOM     19  C   UNL     1       3.007   2.401  17.574  0.00  0.00    +0.000 C 
ATOM     20  C   UNL     1       3.882   1.752  18.710  0.00  0.00    +0.000 C 
ATOM     21  C   UNL     1       2.933   2.387  19.679  0.00  0.00    +0.000 A 
ATOM     22  C   UNL     1       2.642   2.519  21.017  0.00  0.00    +0.000 A 
ATOM     23  C   UNL     1       1.535   3.299  21.354  0.00  0.00    +0.000 A 
ATOM     24  C   UNL     1       0.763   3.916  20.350  0.00  0.00    +0.000 A 
ATOM     25  C   UNL     1       1.089   3.763  18.997  0.00  0.00    +0.000 A 
ATOM     26  C   UNL     1       2.189   2.994  18.695  0.00  0.00    +0.000 A 
ENDBRANCH  18  19
ENDBRANCH  16  18
ENDBRANCH   1  16
TORSDOF 5
ENDMDL
MODEL 4
REMARK VINA RESULT:      -8.3      3.051      6.869
REMARK  Name = 
REMARK  6 active torsions:
REMARK  status: ('A' for Active; 'I' for Inactive)
REMARK    1  A    between atoms: C_1  and  C_2
REMARK    2  A    between atoms: C_4  and  C_5
REMARK    3  A    between atoms: C_8  and  S_9
REMARK    4  A    between atoms: S_9  and  N_12
REMARK    5  A    between atoms: N_12  and  C_13
REMARK    6  A    between atoms: C_13  and  C_14
REMARK                            x       y       z     vdW  Elec       q    Type
REMARK                         _______ _______ _______ _____ _____    ______ ____
ROOT
ATOM      1  S   UNL     1       5.716   4.998  16.908  0.00  0.00    +0.000 S 
ATOM      2  O   UNL     1       5.507   5.223  15.495  0.00  0.00    +0.000 OA
ATOM      3  O   UNL     1       7.018   5.155  17.519  0.00  0.00    +0.000 OA
ENDROOT
BRANCH   1   7
ATOM      4  C   UNL     1       2.609   7.493  19.172  0.00  0.00    +0.000 A 
ATOM      5  C   UNL     1       2.958   7.830  17.855  0.00  0.00    +0.000 A 
ATOM      6  C   UNL     1       3.920   7.088  17.154  0.00  0.00    +0.000 A 
ATOM      7  C   UNL     1       4.542   6.003  17.778  0.00  0.00    +0.000 A 
ATOM      8  C   UNL     1       4.196   5.644  19.079  0.00  0.00    +0.000 A 
ATOM      9  C   UNL     1       3.237   6.387  19.769  0.00  0.00    +0.000 A 
BRANCH   4  13
ATOM     10  C   UNL     1      -0.486   9.220  22.647  0.00  0.00    +0.000 C 
ATOM     11  C   UNL     1       0.311   8.961  21.431  0.00  0.00    +0.000 A 
ATOM     12  N   UNL     1       1.210   8.024  21.196  0.00  0.00    +0.000 NA
ATOM     13  C   UNL     1       1.617   8.277  19.901  0.00  0.00    +0.000 A 
ATOM     14  C   UNL     1       0.935   9.367  19.419  0.00  0.00    +0.000 A 
ATOM     15  O   UNL     1       0.093   9.815  20.389  0.00  0.00    +0.000 OA
ENDBRANCH   4  13
ENDBRANCH   1   7
BRANCH   1  16
ATOM     16  N   UNL     1       5.178   3.416  17.210  0.00  0.00    +0.000 NA
ATOM     17  H   UNL     1       5.436   3.141  18.159  0.00  0.00    +0.000 HD
BRANCH  16  18
ATOM     18  C   UNL     1       3.808   3.096  16.765  0.00  0.00    +0.000 C 
BRANCH  18  19
ATOM     19  C   UNL     1       3.053   2.175  17.724  0.00  0.00    +0.000 C 
ATOM     20  C   UNL     1       3.962   1.682  18.911  0.00  0.00    +0.000 C 
ATOM     21  C   UNL     1       2.981   2.354  19.821  0.00  0.00    +0.000 A 
ATOM     22  C   UNL     1       2.684   2.594  21.143  0.00  0.00    +0.000 A 
ATOM     23  C   UNL     1       1.537   3.343  21.412  0.00  0.00    +0.000 A 
ATOM     24  C   UNL     1       0.733   3.821  20.359  0.00  0.00    +0.000 A 
ATOM     25  C   UNL     1       1.066   3.560  19.024  0.00  0.00    +0.000 A 
ATOM     26  C   UNL     1       2.205   2.826  18.789  0.00  0.00    +0.000 A 
ENDBRANCH  18  19
ENDBRANCH  16  18
ENDBRANCH   1  16
TORSDOF 5
ENDMDL
MODEL 5
REMARK VINA RESULT:      -8.3      0.415      1.050
REMARK  Name = 
REMARK  6 active torsions:
REMARK  status: ('A' for Active; 'I' for Inactive)
REMARK    1  A    between atoms: C_1  and  C_2
REMARK    2  A    between atoms: C_4  and  C_5
REMARK    3  A    between atoms: C_8  and  S_9
REMARK    4  A    between atoms: S_9  and  N_12
REMARK    5  A    between atoms: N_12  and  C_13
REMARK    6  A    between atoms: C_13  and  C_14
REMARK                            x       y       z     vdW  Elec       q    Type
REMARK                         _______ _______ _______ _____ _____    ______ ____
ROOT
ATOM      1  S   UNL     1       2.174   3.277  20.494  0.00  0.00    +0.000 S 
ATOM      2  O   UNL     1       0.844   3.020  19.987  0.00  0.00    +0.000 OA
ATOM      3  O   UNL     1       2.825   2.371  21.414  0.00  0.00    +0.000 OA
ENDROOT
BRANCH   1   7
ATOM      4  C   UNL     1       4.917   4.066  16.908  0.00  0.00    +0.000 A 
ATOM      5  C   UNL     1       3.585   3.674  16.702  0.00  0.00    +0.000 A 
ATOM      6  C   UNL     1       2.737   3.411  17.789  0.00  0.00    +0.000 A 
ATOM      7  C   UNL     1       3.227   3.536  19.092  0.00  0.00    +0.000 A 
ATOM      8  C   UNL     1       4.542   3.941  19.314  0.00  0.00    +0.000 A 
ATOM      9  C   UNL     1       5.379   4.202  18.228  0.00  0.00    +0.000 A 
BRANCH   4  13
ATOM     10  C   UNL     1       6.976   4.146  12.392  0.00  0.00    +0.000 C 
ATOM     11  C   UNL     1       6.628   4.314  13.817  0.00  0.00    +0.000 A 
ATOM     12  N   UNL     1       5.595   3.848  14.494  0.00  0.00    +0.000 NA
ATOM     13  C   UNL     1       5.799   4.325  15.774  0.00  0.00    +0.000 A 
ATOM     14  C   UNL     1       6.957   5.062  15.802  0.00  0.00    +0.000 A 
ATOM     15  O   UNL     1       7.500   5.062  14.554  0.00  0.00    +0.000 OA
ENDBRANCH   4  13
ENDBRANCH   1   7
BRANCH   1  16
ATOM     16  N   UNL     1       2.105   4.809  21.221  0.00  0.00    +0.000 NA
ATOM     17  H   UNL     1       3.019   5.046  21.611  0.00  0.00    +0.000 HD
BRANCH  16  18
ATOM     18  C   UNL     1       1.405   5.862  20.461  0.00  0.00    +0.000 C 
BRANCH  18  19
ATOM     19  C   UNL     1       2.294   7.054  20.106  0.00  0.00    +0.000 C 
ATOM     20  C   UNL     1       2.572   7.145  18.559  0.00  0.00    +0.000 C 
ATOM     21  C   UNL     1       1.912   8.489  18.612  0.00  0.00    +0.000 A 
ATOM     22  C   UNL     1       1.570   9.583  17.852  0.00  0.00    +0.000 A 
ATOM     23  C   UNL     1       0.915  10.630  18.502  0.00  0.00    +0.000 A 
ATOM     24  C   UNL     1       0.628  10.548  19.879  0.00  0.00    +0.000 A 
ATOM     25  C   UNL     1       0.988   9.417  20.622  0.00  0.00    +0.000 A 
ATOM     26  C   UNL     1       1.626   8.398  19.954  0.00  0.00    +0.000 A 
ENDBRANCH  18  19
ENDBRANCH  16  18
ENDBRANCH   1  16
TORSDOF 5
ENDMDL
MODEL 6
REMARK VINA RESULT:      -8.3      2.641      6.922
REMARK  Name = 
REMARK  6 active torsions:
REMARK  status: ('A' for Active; 'I' for Inactive)
REMARK    1  A    between atoms: C_1  and  C_2
REMARK    2  A    between atoms: C_4  and  C_5
REMARK    3  A    between atoms: C_8  and  S_9
REMARK    4  A    between atoms: S_9  and  N_12
REMARK    5  A    between atoms: N_12  and  C_13
REMARK    6  A    between atoms: C_13  and  C_14
REMARK                            x       y       z     vdW  Elec       q    Type
REMARK                         _______ _______ _______ _____ _____    ______ ____
ROOT
ATOM      1  S   UNL     1       2.960   3.195  18.295  0.00  0.00    +0.000 S 
ATOM      2  O   UNL     1       2.981   2.245  19.385  0.00  0.00    +0.000 OA
ATOM      3  O   UNL     1       2.159   2.976  17.111  0.00  0.00    +0.000 OA
ENDROOT
BRANCH   1   7
ATOM      4  C   UNL     1       1.783   7.246  20.086  0.00  0.00    +0.000 A 
ATOM      5  C   UNL     1       2.426   7.188  18.839  0.00  0.00    +0.000 A 
ATOM      6  C   UNL     1       2.810   5.957  18.285  0.00  0.00    +0.000 A 
ATOM      7  C   UNL     1       2.552   4.776  18.987  0.00  0.00    +0.000 A 
ATOM      8  C   UNL     1       1.899   4.815  20.217  0.00  0.00    +0.000 A 
ATOM      9  C   UNL     1       1.519   6.043  20.761  0.00  0.00    +0.000 A 
BRANCH   4  13
ATOM     10  C   UNL     1       0.340  11.956  20.701  0.00  0.00    +0.000 C 
ATOM     11  C   UNL     1       0.781  10.556  20.854  0.00  0.00    +0.000 A 
ATOM     12  N   UNL     1       1.025   9.642  19.934  0.00  0.00    +0.000 NA
ATOM     13  C   UNL     1       1.399   8.531  20.663  0.00  0.00    +0.000 A 
ATOM     14  C   UNL     1       1.361   8.837  22.002  0.00  0.00    +0.000 A 
ATOM     15  O   UNL     1       0.968  10.132  22.138  0.00  0.00    +0.000 OA
ENDBRANCH   4  13
ENDBRANCH   1   7
BRANCH   1  16
ATOM     16  N   UNL     1       4.577   3.383  17.813  0.00  0.00    +0.000 NA
ATOM     17  H   UNL     1       5.167   2.727  18.327  0.00  0.00    +0.000 HD
BRANCH  16  18
ATOM     18  C   UNL     1       4.815   3.511  16.363  0.00  0.00    +0.000 C 
BRANCH  18  19
ATOM     19  C   UNL     1       6.104   4.257  16.019  0.00  0.00    +0.000 C 
ATOM     20  C   UNL     1       5.824   5.717  15.502  0.00  0.00    +0.000 C 
ATOM     21  C   UNL     1       6.635   6.189  16.669  0.00  0.00    +0.000 A 
ATOM     22  C   UNL     1       7.135   7.312  17.287  0.00  0.00    +0.000 A 
ATOM     23  C   UNL     1       7.893   7.119  18.442  0.00  0.00    +0.000 A 
ATOM     24  C   UNL     1       8.123   5.820  18.937  0.00  0.00    +0.000 A 
ATOM     25  C   UNL     1       7.596   4.698  18.285  0.00  0.00    +0.000 A 
ATOM     26  C   UNL     1       6.848   4.919  17.152  0.00  0.00    +0.000 A 
ENDBRANCH  18  19
ENDBRANCH  16  18
ENDBRANCH   1  16
TORSDOF 5
ENDMDL
MODEL 7
REMARK VINA RESULT:      -8.3      2.941      7.372
REMARK  Name = 
REMARK  6 active torsions:
REMARK  status: ('A' for Active; 'I' for Inactive)
REMARK    1  A    between atoms: C_1  and  C_2
REMARK    2  A    between atoms: C_4  and  C_5
REMARK    3  A    between atoms: C_8  and  S_9
REMARK    4  A    between atoms: S_9  and  N_12
REMARK    5  A    between atoms: N_12  and  C_13
REMARK    6  A    between atoms: C_13  and  C_14
REMARK                            x       y       z     vdW  Elec       q    Type
REMARK                         _______ _______ _______ _____ _____    ______ ____
ROOT
ATOM      1  S   UNL     1       4.596   5.535  17.336  0.00  0.00    +0.000 S 
ATOM      2  O   UNL     1       4.869   6.140  16.052  0.00  0.00    +0.000 OA
ATOM      3  O   UNL     1       5.660   5.117  18.222  0.00  0.00    +0.000 OA
ENDROOT
BRANCH   1   7
ATOM      4  C   UNL     1       1.702   8.278  19.596  0.00  0.00    +0.000 A 
ATOM      5  C   UNL     1       2.225   8.676  18.356  0.00  0.00    +0.000 A 
ATOM      6  C   UNL     1       3.126   7.857  17.660  0.00  0.00    +0.000 A 
ATOM      7  C   UNL     1       3.511   6.631  18.211  0.00  0.00    +0.000 A 
ATOM      8  C   UNL     1       2.987   6.213  19.433  0.00  0.00    +0.000 A 
ATOM      9  C   UNL     1       2.090   7.033  20.119  0.00  0.00    +0.000 A 
BRANCH   4  13
ATOM     10  C   UNL     1      -0.964  10.485  23.155  0.00  0.00    +0.000 C 
ATOM     11  C   UNL     1      -0.338  10.040  21.894  0.00  0.00    +0.000 A 
ATOM     12  N   UNL     1       0.580   9.114  21.689  0.00  0.00    +0.000 NA
ATOM     13  C   UNL     1       0.775   9.141  20.322  0.00  0.00    +0.000 A 
ATOM     14  C   UNL     1      -0.044  10.095  19.769  0.00  0.00    +0.000 A 
ATOM     15  O   UNL     1      -0.764  10.677  20.765  0.00  0.00    +0.000 OA
ENDBRANCH   4  13
ENDBRANCH   1   7
BRANCH   1  16
ATOM     16  N   UNL     1       3.615   4.187  17.016  0.00  0.00    +0.000 NA
ATOM     17  H   UNL     1       3.054   4.361  16.180  0.00  0.00    +0.000 HD
BRANCH  16  18
ATOM     18  C   UNL     1       4.264   2.866  17.128  0.00  0.00    +0.000 C 
BRANCH  18  19
ATOM     19  C   UNL     1       3.643   1.969  18.199  0.00  0.00    +0.000 C 
ATOM     20  C   UNL     1       4.446   2.019  19.552  0.00  0.00    +0.000 C 
ATOM     21  C   UNL     1       3.184   2.529  20.177  0.00  0.00    +0.000 A 
ATOM     22  C   UNL     1       2.622   2.925  21.368  0.00  0.00    +0.000 A 
ATOM     23  C   UNL     1       1.286   3.329  21.339  0.00  0.00    +0.000 A 
ATOM     24  C   UNL     1       0.565   3.324  20.129  0.00  0.00    +0.000 A 
ATOM     25  C   UNL     1       1.169   2.917  18.933  0.00  0.00    +0.000 A 
ATOM     26  C   UNL     1       2.488   2.530  18.991  0.00  0.00    +0.000 A 
ENDBRANCH  18  19
ENDBRANCH  16  18
ENDBRANCH   1  16
TORSDOF 5
ENDMDL
MODEL 8
REMARK VINA RESULT:      -8.3      2.857      6.702
REMARK  Name = 
REMARK  6 active torsions:
REMARK  status: ('A' for Active; 'I' for Inactive)
REMARK    1  A    between atoms: C_1  and  C_2
REMARK    2  A    between atoms: C_4  and  C_5
REMARK    3  A    between atoms: C_8  and  S_9
REMARK    4  A    between atoms: S_9  and  N_12
REMARK    5  A    between atoms: N_12  and  C_13
REMARK    6  A    between atoms: C_13  and  C_14
REMARK                            x       y       z     vdW  Elec       q    Type
REMARK                         _______ _______ _______ _____ _____    ______ ____
ROOT
ATOM      1  S   UNL     1       6.174   4.706  17.294  0.00  0.00    +0.000 S 
ATOM      2  O   UNL     1       6.582   5.358  16.070  0.00  0.00    +0.000 OA
ATOM      3  O   UNL     1       7.126   4.371  18.331  0.00  0.00    +0.000 OA
ENDROOT
BRANCH   1   7
ATOM      4  C   UNL     1       2.875   7.328  19.095  0.00  0.00    +0.000 A 
ATOM      5  C   UNL     1       3.445   6.295  19.854  0.00  0.00    +0.000 A 
ATOM      6  C   UNL     1       4.443   5.471  19.312  0.00  0.00    +0.000 A 
ATOM      7  C   UNL     1       4.870   5.680  17.998  0.00  0.00    +0.000 A 
ATOM      8  C   UNL     1       4.327   6.713  17.236  0.00  0.00    +0.000 A 
ATOM      9  C   UNL     1       3.336   7.529  17.783  0.00  0.00    +0.000 A 
BRANCH   4  13
ATOM     10  C   UNL     1      -0.461   9.395  22.136  0.00  0.00    +0.000 C 
ATOM     11  C   UNL     1       0.415   9.008  21.012  0.00  0.00    +0.000 A 
ATOM     12  N   UNL     1       1.341   8.070  20.948  0.00  0.00    +0.000 NA
ATOM     13  C   UNL     1       1.827   8.173  19.660  0.00  0.00    +0.000 A 
ATOM     14  C   UNL     1       1.160   9.181  19.007  0.00  0.00    +0.000 A 
ATOM     15  O   UNL     1       0.252   9.723  19.861  0.00  0.00    +0.000 OA
ENDBRANCH   4  13
ENDBRANCH   1   7
BRANCH   1  16
ATOM     16  N   UNL     1       5.385   3.280  16.820  0.00  0.00    +0.000 NA
ATOM     17  H   UNL     1       5.786   2.484  17.319  0.00  0.00    +0.000 HD
BRANCH  16  18
ATOM     18  C   UNL     1       3.914   3.346  16.729  0.00  0.00    +0.000 C 
BRANCH  18  19
ATOM     19  C   UNL     1       3.200   2.322  17.612  0.00  0.00    +0.000 C 
ATOM     20  C   UNL     1       4.110   1.824  18.796  0.00  0.00    +0.000 C 
ATOM     21  C   UNL     1       3.061   2.373  19.713  0.00  0.00    +0.000 A 
ATOM     22  C   UNL     1       2.714   2.517  21.036  0.00  0.00    +0.000 A 
ATOM     23  C   UNL     1       1.511   3.168  21.312  0.00  0.00    +0.000 A 
ATOM     24  C   UNL     1       0.704   3.652  20.264  0.00  0.00    +0.000 A 
ATOM     25  C   UNL     1       1.089   3.492  18.928  0.00  0.00    +0.000 A 
ATOM     26  C   UNL     1       2.282   2.851  18.686  0.00  0.00    +0.000 A 
ENDBRANCH  18  19
ENDBRANCH  16  18
ENDBRANCH   1  16
TORSDOF 5
ENDMDL
MODEL 9
REMARK VINA RESULT:      -8.1      2.606      6.804
REMARK  Name = 
REMARK  6 active torsions:
REMARK  status: ('A' for Active; 'I' for Inactive)
REMARK    1  A    between atoms: C_1  and  C_2
REMARK    2  A    between atoms: C_4  and  C_5
REMARK    3  A    between atoms: C_8  and  S_9
REMARK    4  A    between atoms: S_9  and  N_12
REMARK    5  A    between atoms: N_12  and  C_13
REMARK    6  A    between atoms: C_13  and  C_14
REMARK                            x       y       z     vdW  Elec       q    Type
REMARK                         _______ _______ _______ _____ _____    ______ ____
ROOT
ATOM      1  S   UNL     1       3.108   2.986  18.654  0.00  0.00    +0.000 S 
ATOM      2  O   UNL     1       3.373   2.167  19.816  0.00  0.00    +0.000 OA
ATOM      3  O   UNL     1       2.225   2.543  17.597  0.00  0.00    +0.000 OA
ENDROOT
BRANCH   1   7
ATOM      4  C   UNL     1       1.816   7.109  20.183  0.00  0.00    +0.000 A 
ATOM      5  C   UNL     1       1.423   5.949  20.869  0.00  0.00    +0.000 A 
ATOM      6  C   UNL     1       1.794   4.679  20.404  0.00  0.00    +0.000 A 
ATOM      7  C   UNL     1       2.561   4.568  19.241  0.00  0.00    +0.000 A 
ATOM      8  C   UNL     1       2.974   5.709  18.557  0.00  0.00    +0.000 A 
ATOM      9  C   UNL     1       2.602   6.970  19.027  0.00  0.00    +0.000 A 
BRANCH   4  13
ATOM     10  C   UNL     1       0.313  11.833  20.448  0.00  0.00    +0.000 C 
ATOM     11  C   UNL     1       0.772  10.453  20.705  0.00  0.00    +0.000 A 
ATOM     12  N   UNL     1       1.028   9.477  19.854  0.00  0.00    +0.000 NA
ATOM     13  C   UNL     1       1.415   8.428  20.664  0.00  0.00    +0.000 A 
ATOM     14  C   UNL     1       1.371   8.831  21.976  0.00  0.00    +0.000 A 
ATOM     15  O   UNL     1       0.961  10.127  22.016  0.00  0.00    +0.000 OA
ENDBRANCH   4  13
ENDBRANCH   1   7
BRANCH   1  16
ATOM     16  N   UNL     1       4.623   3.325  17.969  0.00  0.00    +0.000 NA
ATOM     17  H   UNL     1       5.318   2.670  18.331  0.00  0.00    +0.000 HD
BRANCH  16  18
ATOM     18  C   UNL     1       4.640   3.589  16.518  0.00  0.00    +0.000 C 
BRANCH  18  19
ATOM     19  C   UNL     1       5.867   4.374  16.053  0.00  0.00    +0.000 C 
ATOM     20  C   UNL     1       5.499   5.833  15.593  0.00  0.00    +0.000 C 
ATOM     21  C   UNL     1       6.416   6.308  16.677  0.00  0.00    +0.000 A 
ATOM     22  C   UNL     1       6.951   7.435  17.259  0.00  0.00    +0.000 A 
ATOM     23  C   UNL     1       7.830   7.245  18.325  0.00  0.00    +0.000 A 
ATOM     24  C   UNL     1       8.143   5.945  18.771  0.00  0.00    +0.000 A 
ATOM     25  C   UNL     1       7.578   4.820  18.158  0.00  0.00    +0.000 A 
ATOM     26  C   UNL     1       6.709   5.038  17.114  0.00  0.00    +0.000 A 
ENDBRANCH  18  19
ENDBRANCH  16  18
ENDBRANCH   1  16
TORSDOF 5
ENDMDL
