MODEL 1
REMARK VINA RESULT:      -8.0      0.000      0.000
REMARK  Name = 
REMARK  6 active torsions:
REMARK  status: ('A' for Active; 'I' for Inactive)
REMARK    1  A    between atoms: C_1  and  C_2
REMARK    2  A    between atoms: C_5  and  C_6
REMARK    3  A    between atoms: N_15  and  C_16
REMARK    4  A    between atoms: C_18  and  N_19
REMARK    5  A    between atoms: C_20  and  C_22
REMARK    6  A    between atoms: C_25  and  C_26
REMARK                            x       y       z     vdW  Elec       q    Type
REMARK                         _______ _______ _______ _____ _____    ______ ____
ROOT
ATOM      1  C   UNL     1      -0.165  14.123  18.656  0.00  0.00    +0.000 C 
ATOM      2  C   UNL     1       0.291  12.692  18.586  0.00  0.00    +0.000 A 
ATOM      3  C   UNL     1       1.680  12.458  18.473  0.00  0.00    +0.000 A 
ATOM      4  C   UNL     1       2.202  11.162  18.464  0.00  0.00    +0.000 A 
ATOM      5  C   UNL     1       1.352  10.063  18.552  0.00  0.00    +0.000 A 
ATOM      6  C   UNL     1      -0.026  10.305  18.570  0.00  0.00    +0.000 A 
ATOM      7  C   UNL     1      -0.588  11.593  18.638  0.00  0.00    +0.000 A 
ENDROOT
BRANCH   5   8
ATOM      8  C   UNL     1       1.913   8.702  18.615  0.00  0.00    +0.000 A 
ATOM      9  N   UNL     1       2.592   8.144  17.625  0.00  0.00    +0.000 NA
ATOM     10  C   UNL     1       3.012   6.921  18.075  0.00  0.00    +0.000 A 
ATOM     11  C   UNL     1       3.770   5.947  17.412  0.00  0.00    +0.000 A 
ATOM     12  C   UNL     1       4.092   4.785  18.112  0.00  0.00    +0.000 A 
ATOM     13  F   UNL     1       4.821   3.839  17.498  0.00  0.00    +0.000 F 
ATOM     14  C   UNL     1       3.685   4.578  19.424  0.00  0.00    +0.000 A 
ATOM     15  C   UNL     1       2.921   5.535  20.094  0.00  0.00    +0.000 A 
ATOM     16  C   UNL     1       2.601   6.704  19.385  0.00  0.00    +0.000 A 
ATOM     17  N   UNL     1       1.904   7.849  19.714  0.00  0.00    +0.000 N 
ATOM     18  C   UNL     1       1.348   8.114  21.022  0.00  0.00    +0.000 C 
ENDBRANCH   5   8
BRANCH   7  19
ATOM     19  N   UNL     1      -1.995  11.770  18.799  0.00  0.00    +0.000 N 
ATOM     20  C   UNL     1      -2.967  11.535  17.835  0.00  0.00    +0.000 C 
ATOM     21  O   UNL     1      -2.765  11.278  16.647  0.00  0.00    +0.000 OA
ATOM     22  H   UNL     1      -2.352  12.027  19.716  0.00  0.00    +0.000 HD
BRANCH  20  23
ATOM     23  C   UNL     1      -4.422  11.605  18.294  0.00  0.00    +0.000 C 
ATOM     24  C   UNL     1      -5.437  11.627  17.172  0.00  0.00    +0.000 C 
ATOM     25  C   UNL     1      -6.717  11.907  17.944  0.00  0.00    +0.000 C 
ATOM     26  C   UNL     1      -6.264  12.786  19.119  0.00  0.00    +0.000 C 
ATOM     27  N   UNL     1      -4.783  12.823  19.053  0.00  0.00    +0.000 NA
ATOM     28  H   UNL     1      -4.394  12.769  19.995  0.00  0.00    +0.000 HD
BRANCH  26  29
ATOM     29  C   UNL     1      -6.691  12.232  20.456  0.00  0.00    +0.000 C 
ATOM     30  C   UNL     1      -7.392  13.087  21.485  0.00  0.00    +0.000 C 
ATOM     31  C   UNL     1      -5.963  12.678  21.700  0.00  0.00    +0.000 C 
ENDBRANCH  26  29
ENDBRANCH  20  23
ENDBRANCH   7  19
TORSDOF 4
ENDMDL
MODEL 2
REMARK VINA RESULT:      -7.9      4.715     10.568
REMARK  Name = 
REMARK  6 active torsions:
REMARK  status: ('A' for Active; 'I' for Inactive)
REMARK    1  A    between atoms: C_1  and  C_2
REMARK    2  A    between atoms: C_5  and  C_6
REMARK    3  A    between atoms: N_15  and  C_16
REMARK    4  A    between atoms: C_18  and  N_19
REMARK    5  A    between atoms: C_20  and  C_22
REMARK    6  A    between atoms: C_25  and  C_26
REMARK                            x       y       z     vdW  Elec       q    Type
REMARK                         _______ _______ _______ _____ _____    ______ ____
ROOT
ATOM      1  C   UNL     1       3.523   2.906  20.289  0.00  0.00    +0.000 C 
ATOM      2  C   UNL     1       2.964   4.295  20.161  0.00  0.00    +0.000 A 
ATOM      3  C   UNL     1       2.002   4.698  21.114  0.00  0.00    +0.000 A 
ATOM      4  C   UNL     1       1.471   5.991  21.111  0.00  0.00    +0.000 A 
ATOM      5  C   UNL     1       1.875   6.913  20.149  0.00  0.00    +0.000 A 
ATOM      6  C   UNL     1       2.758   6.474  19.156  0.00  0.00    +0.000 A 
ATOM      7  C   UNL     1       3.357   5.202  19.157  0.00  0.00    +0.000 A 
ENDROOT
BRANCH   5   8
ATOM      8  C   UNL     1       1.367   8.296  20.196  0.00  0.00    +0.000 A 
ATOM      9  N   UNL     1       0.898   8.865  21.295  0.00  0.00    +0.000 NA
ATOM     10  C   UNL     1       0.595  10.160  20.969  0.00  0.00    +0.000 A 
ATOM     11  C   UNL     1       0.075  11.178  21.779  0.00  0.00    +0.000 A 
ATOM     12  C   UNL     1      -0.118  12.433  21.204  0.00  0.00    +0.000 A 
ATOM     13  F   UNL     1      -0.612  13.425  21.962  0.00  0.00    +0.000 F 
ATOM     14  C   UNL     1       0.186  12.688  19.873  0.00  0.00    +0.000 A 
ATOM     15  C   UNL     1       0.696  11.682  19.051  0.00  0.00    +0.000 A 
ATOM     16  C   UNL     1       0.891  10.420  19.635  0.00  0.00    +0.000 A 
ATOM     17  N   UNL     1       1.383   9.223  19.159  0.00  0.00    +0.000 N 
ATOM     18  C   UNL     1       1.899   9.031  17.823  0.00  0.00    +0.000 C 
ENDBRANCH   5   8
BRANCH   7  19
ATOM     19  N   UNL     1       4.359   4.864  18.197  0.00  0.00    +0.000 N 
ATOM     20  C   UNL     1       4.173   4.104  17.050  0.00  0.00    +0.000 C 
ATOM     21  O   UNL     1       3.154   3.480  16.749  0.00  0.00    +0.000 OA
ATOM     22  H   UNL     1       5.289   5.259  18.306  0.00  0.00    +0.000 HD
BRANCH  20  23
ATOM     23  C   UNL     1       5.343   4.037  16.072  0.00  0.00    +0.000 C 
ATOM     24  C   UNL     1       6.590   4.763  16.528  0.00  0.00    +0.000 C 
ATOM     25  C   UNL     1       7.448   4.683  15.276  0.00  0.00    +0.000 C 
ATOM     26  C   UNL     1       6.436   4.723  14.121  0.00  0.00    +0.000 C 
ATOM     27  N   UNL     1       5.095   4.660  14.753  0.00  0.00    +0.000 NA
ATOM     28  H   UNL     1       4.481   4.061  14.199  0.00  0.00    +0.000 HD
BRANCH  26  29
ATOM     29  C   UNL     1       6.595   3.563  13.170  0.00  0.00    +0.000 C 
ATOM     30  C   UNL     1       6.917   3.771  11.708  0.00  0.00    +0.000 C 
ATOM     31  C   UNL     1       5.540   3.330  12.115  0.00  0.00    +0.000 C 
ENDBRANCH  26  29
ENDBRANCH  20  23
ENDBRANCH   7  19
TORSDOF 4
ENDMDL
MODEL 3
REMARK VINA RESULT:      -7.9      4.118      6.965
REMARK  Name = 
REMARK  6 active torsions:
REMARK  status: ('A' for Active; 'I' for Inactive)
REMARK    1  A    between atoms: C_1  and  C_2
REMARK    2  A    between atoms: C_5  and  C_6
REMARK    3  A    between atoms: N_15  and  C_16
REMARK    4  A    between atoms: C_18  and  N_19
REMARK    5  A    between atoms: C_20  and  C_22
REMARK    6  A    between atoms: C_25  and  C_26
REMARK                            x       y       z     vdW  Elec       q    Type
REMARK                         _______ _______ _______ _____ _____    ______ ____
ROOT
ATOM      1  C   UNL     1       1.624   4.415  20.983  0.00  0.00    +0.000 C 
ATOM      2  C   UNL     1       2.583   4.537  19.832  0.00  0.00    +0.000 A 
ATOM      3  C   UNL     1       3.194   3.351  19.367  0.00  0.00    +0.000 A 
ATOM      4  C   UNL     1       4.052   3.357  18.264  0.00  0.00    +0.000 A 
ATOM      5  C   UNL     1       4.336   4.549  17.603  0.00  0.00    +0.000 A 
ATOM      6  C   UNL     1       3.799   5.729  18.129  0.00  0.00    +0.000 A 
ATOM      7  C   UNL     1       2.888   5.759  19.200  0.00  0.00    +0.000 A 
ENDROOT
BRANCH   5   8
ATOM      8  C   UNL     1       5.182   4.538  16.396  0.00  0.00    +0.000 A 
ATOM      9  N   UNL     1       4.911   3.819  15.320  0.00  0.00    +0.000 NA
ATOM     10  C   UNL     1       5.870   4.122  14.390  0.00  0.00    +0.000 A 
ATOM     11  C   UNL     1       6.024   3.634  13.086  0.00  0.00    +0.000 A 
ATOM     12  C   UNL     1       7.081   4.132  12.326  0.00  0.00    +0.000 A 
ATOM     13  F   UNL     1       7.247   3.681  11.072  0.00  0.00    +0.000 F 
ATOM     14  C   UNL     1       7.965   5.080  12.825  0.00  0.00    +0.000 A 
ATOM     15  C   UNL     1       7.829   5.569  14.125  0.00  0.00    +0.000 A 
ATOM     16  C   UNL     1       6.762   5.066  14.886  0.00  0.00    +0.000 A 
ATOM     17  N   UNL     1       6.309   5.320  16.164  0.00  0.00    +0.000 N 
ATOM     18  C   UNL     1       6.886   6.307  17.049  0.00  0.00    +0.000 C 
ENDBRANCH   5   8
BRANCH   7  19
ATOM     19  N   UNL     1       2.265   6.980  19.598  0.00  0.00    +0.000 N 
ATOM     20  C   UNL     1       2.025   8.081  18.786  0.00  0.00    +0.000 C 
ATOM     21  O   UNL     1       2.438   8.240  17.636  0.00  0.00    +0.000 OA
ATOM     22  H   UNL     1       1.892   7.051  20.541  0.00  0.00    +0.000 HD
BRANCH  20  23
ATOM     23  C   UNL     1       1.169   9.198  19.377  0.00  0.00    +0.000 C 
ATOM     24  C   UNL     1       1.357  10.550  18.724  0.00  0.00    +0.000 C 
ATOM     25  C   UNL     1       0.552  11.439  19.660  0.00  0.00    +0.000 C 
ATOM     26  C   UNL     1       0.714  10.781  21.038  0.00  0.00    +0.000 C 
ATOM     27  N   UNL     1       1.437   9.509  20.799  0.00  0.00    +0.000 NA
ATOM     28  H   UNL     1       1.047   8.774  21.390  0.00  0.00    +0.000 HD
BRANCH  26  29
ATOM     29  C   UNL     1      -0.610  10.487  21.699  0.00  0.00    +0.000 C 
ATOM     30  C   UNL     1      -1.033  11.174  22.976  0.00  0.00    +0.000 C 
ATOM     31  C   UNL     1      -0.625   9.729  23.004  0.00  0.00    +0.000 C 
ENDBRANCH  26  29
ENDBRANCH  20  23
ENDBRANCH   7  19
TORSDOF 4
ENDMDL
MODEL 4
REMARK VINA RESULT:      -7.8      4.911     10.679
REMARK  Name = 
REMARK  6 active torsions:
REMARK  status: ('A' for Active; 'I' for Inactive)
REMARK    1  A    between atoms: C_1  and  C_2
REMARK    2  A    between atoms: C_5  and  C_6
REMARK    3  A    between atoms: N_15  and  C_16
REMARK    4  A    between atoms: C_18  and  N_19
REMARK    5  A    between atoms: C_20  and  C_22
REMARK    6  A    between atoms: C_25  and  C_26
REMARK                            x       y       z     vdW  Elec       q    Type
REMARK                         _______ _______ _______ _____ _____    ______ ____
ROOT
ATOM      1  C   UNL     1       3.831   2.496  19.359  0.00  0.00    +0.000 C 
ATOM      2  C   UNL     1       3.159   3.827  19.547  0.00  0.00    +0.000 A 
ATOM      3  C   UNL     1       2.399   4.010  20.724  0.00  0.00    +0.000 A 
ATOM      4  C   UNL     1       1.789   5.233  21.014  0.00  0.00    +0.000 A 
ATOM      5  C   UNL     1       1.906   6.302  20.130  0.00  0.00    +0.000 A 
ATOM      6  C   UNL     1       2.582   6.080  18.925  0.00  0.00    +0.000 A 
ATOM      7  C   UNL     1       3.257   4.885  18.622  0.00  0.00    +0.000 A 
ENDROOT
BRANCH   5   8
ATOM      8  C   UNL     1       1.322   7.611  20.476  0.00  0.00    +0.000 A 
ATOM      9  N   UNL     1       0.772   7.878  21.649  0.00  0.00    +0.000 NA
ATOM     10  C   UNL     1       0.414   9.200  21.625  0.00  0.00    +0.000 A 
ATOM     11  C   UNL     1      -0.198   9.969  22.623  0.00  0.00    +0.000 A 
ATOM     12  C   UNL     1      -0.432  11.317  22.354  0.00  0.00    +0.000 A 
ATOM     13  F   UNL     1      -1.014  12.075  23.297  0.00  0.00    +0.000 F 
ATOM     14  C   UNL     1      -0.079  11.899  21.143  0.00  0.00    +0.000 A 
ATOM     15  C   UNL     1       0.523  11.143  20.136  0.00  0.00    +0.000 A 
ATOM     16  C   UNL     1       0.758   9.786  20.412  0.00  0.00    +0.000 A 
ATOM     17  N   UNL     1       1.337   8.761  19.694  0.00  0.00    +0.000 N 
ATOM     18  C   UNL     1       1.925   8.919  18.383  0.00  0.00    +0.000 C 
ENDBRANCH   5   8
BRANCH   7  19
ATOM     19  N   UNL     1       4.049   4.770  17.439  0.00  0.00    +0.000 N 
ATOM     20  C   UNL     1       5.435   4.829  17.371  0.00  0.00    +0.000 C 
ATOM     21  O   UNL     1       6.196   5.133  18.292  0.00  0.00    +0.000 OA
ATOM     22  H   UNL     1       3.584   4.558  16.561  0.00  0.00    +0.000 HD
BRANCH  20  23
ATOM     23  C   UNL     1       6.073   4.485  16.028  0.00  0.00    +0.000 C 
ATOM     24  C   UNL     1       7.347   5.243  15.721  0.00  0.00    +0.000 C 
ATOM     25  C   UNL     1       7.586   4.835  14.276  0.00  0.00    +0.000 C 
ATOM     26  C   UNL     1       6.175   4.650  13.697  0.00  0.00    +0.000 C 
ATOM     27  N   UNL     1       5.244   4.794  14.842  0.00  0.00    +0.000 NA
ATOM     28  H   UNL     1       4.490   4.111  14.761  0.00  0.00    +0.000 HD
BRANCH  26  29
ATOM     29  C   UNL     1       5.982   3.295  13.063  0.00  0.00    +0.000 C 
ATOM     30  C   UNL     1       6.515   2.977  11.685  0.00  0.00    +0.000 C 
ATOM     31  C   UNL     1       5.039   3.162  11.892  0.00  0.00    +0.000 C 
ENDBRANCH  26  29
ENDBRANCH  20  23
ENDBRANCH   7  19
TORSDOF 4
ENDMDL
MODEL 5
REMARK VINA RESULT:      -7.8      4.513     10.417
REMARK  Name = 
REMARK  6 active torsions:
REMARK  status: ('A' for Active; 'I' for Inactive)
REMARK    1  A    between atoms: C_1  and  C_2
REMARK    2  A    between atoms: C_5  and  C_6
REMARK    3  A    between atoms: N_15  and  C_16
REMARK    4  A    between atoms: C_18  and  N_19
REMARK    5  A    between atoms: C_20  and  C_22
REMARK    6  A    between atoms: C_25  and  C_26
REMARK                            x       y       z     vdW  Elec       q    Type
REMARK                         _______ _______ _______ _____ _____    ______ ____
ROOT
ATOM      1  C   UNL     1       3.300   3.263  20.256  0.00  0.00    +0.000 C 
ATOM      2  C   UNL     1       2.804   4.672  20.083  0.00  0.00    +0.000 A 
ATOM      3  C   UNL     1       1.834   5.136  21.000  0.00  0.00    +0.000 A 
ATOM      4  C   UNL     1       1.360   6.450  20.954  0.00  0.00    +0.000 A 
ATOM      5  C   UNL     1       1.829   7.332  19.985  0.00  0.00    +0.000 A 
ATOM      6  C   UNL     1       2.719   6.834  19.028  0.00  0.00    +0.000 A 
ATOM      7  C   UNL     1       3.263   5.538  19.072  0.00  0.00    +0.000 A 
ENDROOT
BRANCH   5   8
ATOM      8  C   UNL     1       1.380   8.736  19.989  0.00  0.00    +0.000 A 
ATOM      9  N   UNL     1       1.106   9.418  18.889  0.00  0.00    +0.000 NA
ATOM     10  C   UNL     1       0.653  10.647  19.289  0.00  0.00    +0.000 A 
ATOM     11  C   UNL     1       0.228  11.730  18.509  0.00  0.00    +0.000 A 
ATOM     12  C   UNL     1      -0.219  12.872  19.172  0.00  0.00    +0.000 A 
ATOM     13  F   UNL     1      -0.635  13.923  18.445  0.00  0.00    +0.000 F 
ATOM     14  C   UNL     1      -0.250  12.957  20.557  0.00  0.00    +0.000 A 
ATOM     15  C   UNL     1       0.179  11.889  21.347  0.00  0.00    +0.000 A 
ATOM     16  C   UNL     1       0.627  10.740  20.676  0.00  0.00    +0.000 A 
ATOM     17  N   UNL     1       1.091   9.514  21.105  0.00  0.00    +0.000 N 
ATOM     18  C   UNL     1       1.167   9.114  22.492  0.00  0.00    +0.000 C 
ENDBRANCH   5   8
BRANCH   7  19
ATOM     19  N   UNL     1       4.276   5.137  18.149  0.00  0.00    +0.000 N 
ATOM     20  C   UNL     1       4.102   4.302  17.052  0.00  0.00    +0.000 C 
ATOM     21  O   UNL     1       3.086   3.659  16.782  0.00  0.00    +0.000 OA
ATOM     22  H   UNL     1       5.205   5.538  18.241  0.00  0.00    +0.000 HD
BRANCH  20  23
ATOM     23  C   UNL     1       5.283   4.170  16.094  0.00  0.00    +0.000 C 
ATOM     24  C   UNL     1       6.548   4.862  16.553  0.00  0.00    +0.000 C 
ATOM     25  C   UNL     1       7.421   4.721  15.316  0.00  0.00    +0.000 C 
ATOM     26  C   UNL     1       6.429   4.769  14.145  0.00  0.00    +0.000 C 
ATOM     27  N   UNL     1       5.078   4.769  14.757  0.00  0.00    +0.000 NA
ATOM     28  H   UNL     1       4.451   4.179  14.209  0.00  0.00    +0.000 HD
BRANCH  26  29
ATOM     29  C   UNL     1       6.560   3.582  13.224  0.00  0.00    +0.000 C 
ATOM     30  C   UNL     1       6.915   3.743  11.764  0.00  0.00    +0.000 C 
ATOM     31  C   UNL     1       5.515   3.364  12.156  0.00  0.00    +0.000 C 
ENDBRANCH  26  29
ENDBRANCH  20  23
ENDBRANCH   7  19
TORSDOF 4
ENDMDL
MODEL 6
REMARK VINA RESULT:      -7.7      3.766      6.912
REMARK  Name = 
REMARK  6 active torsions:
REMARK  status: ('A' for Active; 'I' for Inactive)
REMARK    1  A    between atoms: C_1  and  C_2
REMARK    2  A    between atoms: C_5  and  C_6
REMARK    3  A    between atoms: N_15  and  C_16
REMARK    4  A    between atoms: C_18  and  N_19
REMARK    5  A    between atoms: C_20  and  C_22
REMARK    6  A    between atoms: C_25  and  C_26
REMARK                            x       y       z     vdW  Elec       q    Type
REMARK                         _______ _______ _______ _____ _____    ______ ____
ROOT
ATOM      1  C   UNL     1       1.627   4.587  20.984  0.00  0.00    +0.000 C 
ATOM      2  C   UNL     1       2.597   4.673  19.839  0.00  0.00    +0.000 A 
ATOM      3  C   UNL     1       3.081   3.458  19.305  0.00  0.00    +0.000 A 
ATOM      4  C   UNL     1       3.938   3.438  18.202  0.00  0.00    +0.000 A 
ATOM      5  C   UNL     1       4.347   4.629  17.609  0.00  0.00    +0.000 A 
ATOM      6  C   UNL     1       3.935   5.827  18.203  0.00  0.00    +0.000 A 
ATOM      7  C   UNL     1       3.029   5.890  19.277  0.00  0.00    +0.000 A 
ENDROOT
BRANCH   5   8
ATOM      8  C   UNL     1       5.192   4.598  16.401  0.00  0.00    +0.000 A 
ATOM      9  N   UNL     1       4.927   3.849  15.343  0.00  0.00    +0.000 NA
ATOM     10  C   UNL     1       5.880   4.141  14.405  0.00  0.00    +0.000 A 
ATOM     11  C   UNL     1       6.038   3.622  13.113  0.00  0.00    +0.000 A 
ATOM     12  C   UNL     1       7.088   4.114  12.338  0.00  0.00    +0.000 A 
ATOM     13  F   UNL     1       7.257   3.634  11.095  0.00  0.00    +0.000 F 
ATOM     14  C   UNL     1       7.961   5.085  12.811  0.00  0.00    +0.000 A 
ATOM     15  C   UNL     1       7.821   5.605  14.099  0.00  0.00    +0.000 A 
ATOM     16  C   UNL     1       6.762   5.107  14.875  0.00  0.00    +0.000 A 
ATOM     17  N   UNL     1       6.308   5.388  16.147  0.00  0.00    +0.000 N 
ATOM     18  C   UNL     1       6.874   6.404  17.005  0.00  0.00    +0.000 C 
ENDBRANCH   5   8
BRANCH   7  19
ATOM     19  N   UNL     1       2.536   7.146  19.745  0.00  0.00    +0.000 N 
ATOM     20  C   UNL     1       1.922   8.125  18.975  0.00  0.00    +0.000 C 
ATOM     21  O   UNL     1       1.834   8.134  17.746  0.00  0.00    +0.000 OA
ATOM     22  H   UNL     1       2.564   7.337  20.743  0.00  0.00    +0.000 HD
BRANCH  20  23
ATOM     23  C   UNL     1       1.300   9.300  19.725  0.00  0.00    +0.000 C 
ATOM     24  C   UNL     1       0.561   8.921  20.991  0.00  0.00    +0.000 C 
ATOM     25  C   UNL     1      -0.090  10.247  21.354  0.00  0.00    +0.000 C 
ATOM     26  C   UNL     1      -0.371  10.913  19.999  0.00  0.00    +0.000 C 
ATOM     27  N   UNL     1       0.261  10.042  18.979  0.00  0.00    +0.000 NA
ATOM     28  H   UNL     1       0.700  10.617  18.258  0.00  0.00    +0.000 HD
BRANCH  26  29
ATOM     29  C   UNL     1       0.214  12.301  19.903  0.00  0.00    +0.000 C 
ATOM     30  C   UNL     1      -0.642  13.506  19.591  0.00  0.00    +0.000 C 
ATOM     31  C   UNL     1       0.300  12.968  18.552  0.00  0.00    +0.000 C 
ENDBRANCH  26  29
ENDBRANCH  20  23
ENDBRANCH   7  19
TORSDOF 4
ENDMDL
MODEL 7
REMARK VINA RESULT:      -7.5      3.821      5.254
REMARK  Name = 
REMARK  6 active torsions:
REMARK  status: ('A' for Active; 'I' for Inactive)
REMARK    1  A    between atoms: C_1  and  C_2
REMARK    2  A    between atoms: C_5  and  C_6
REMARK    3  A    between atoms: N_15  and  C_16
REMARK    4  A    between atoms: C_18  and  N_19
REMARK    5  A    between atoms: C_20  and  C_22
REMARK    6  A    between atoms: C_25  and  C_26
REMARK                            x       y       z     vdW  Elec       q    Type
REMARK                         _______ _______ _______ _____ _____    ______ ____
ROOT
ATOM      1  C   UNL     1      -1.224  12.050  22.736  0.00  0.00    +0.000 C 
ATOM      2  C   UNL     1      -0.399  10.977  22.082  0.00  0.00    +0.000 A 
ATOM      3  C   UNL     1      -0.397   9.700  22.686  0.00  0.00    +0.000 A 
ATOM      4  C   UNL     1       0.292   8.626  22.116  0.00  0.00    +0.000 A 
ATOM      5  C   UNL     1       1.009   8.800  20.936  0.00  0.00    +0.000 A 
ATOM      6  C   UNL     1       1.075  10.090  20.398  0.00  0.00    +0.000 A 
ATOM      7  C   UNL     1       0.352  11.183  20.908  0.00  0.00    +0.000 A 
ENDROOT
BRANCH   5   8
ATOM      8  C   UNL     1       1.672   7.647  20.301  0.00  0.00    +0.000 A 
ATOM      9  N   UNL     1       1.726   6.443  20.847  0.00  0.00    +0.000 NA
ATOM     10  C   UNL     1       2.348   5.626  19.941  0.00  0.00    +0.000 A 
ATOM     11  C   UNL     1       2.642   4.260  20.037  0.00  0.00    +0.000 A 
ATOM     12  C   UNL     1       3.262   3.650  18.948  0.00  0.00    +0.000 A 
ATOM     13  F   UNL     1       3.551   2.340  19.016  0.00  0.00    +0.000 F 
ATOM     14  C   UNL     1       3.589   4.353  17.796  0.00  0.00    +0.000 A 
ATOM     15  C   UNL     1       3.310   5.717  17.689  0.00  0.00    +0.000 A 
ATOM     16  C   UNL     1       2.683   6.326  18.788  0.00  0.00    +0.000 A 
ATOM     17  N   UNL     1       2.244   7.611  19.034  0.00  0.00    +0.000 N 
ATOM     18  C   UNL     1       2.310   8.689  18.073  0.00  0.00    +0.000 C 
ENDBRANCH   5   8
BRANCH   7  19
ATOM     19  N   UNL     1       0.348  12.439  20.230  0.00  0.00    +0.000 N 
ATOM     20  C   UNL     1       1.238  13.485  20.436  0.00  0.00    +0.000 C 
ATOM     21  O   UNL     1       2.081  13.556  21.333  0.00  0.00    +0.000 OA
ATOM     22  H   UNL     1      -0.316  12.582  19.474  0.00  0.00    +0.000 HD
BRANCH  20  23
ATOM     23  C   UNL     1       1.163  14.656  19.459  0.00  0.00    +0.000 C 
ATOM     24  C   UNL     1       2.505  15.201  19.022  0.00  0.00    +0.000 C 
ATOM     25  C   UNL     1       2.078  16.443  18.256  0.00  0.00    +0.000 C 
ATOM     26  C   UNL     1       0.810  16.918  18.982  0.00  0.00    +0.000 C 
ATOM     27  N   UNL     1       0.498  15.869  19.984  0.00  0.00    +0.000 NA
ATOM     28  H   UNL     1      -0.511  15.719  20.023  0.00  0.00    +0.000 HD
BRANCH  26  29
ATOM     29  C   UNL     1      -0.364  17.084  18.050  0.00  0.00    +0.000 C 
ATOM     30  C   UNL     1      -0.661  18.401  17.371  0.00  0.00    +0.000 C 
ATOM     31  C   UNL     1      -1.538  17.923  18.493  0.00  0.00    +0.000 C 
ENDBRANCH  26  29
ENDBRANCH  20  23
ENDBRANCH   7  19
TORSDOF 4
ENDMDL
MODEL 8
REMARK VINA RESULT:      -7.4      4.409     10.111
REMARK  Name = 
REMARK  6 active torsions:
REMARK  status: ('A' for Active; 'I' for Inactive)
REMARK    1  A    between atoms: C_1  and  C_2
REMARK    2  A    between atoms: C_5  and  C_6
REMARK    3  A    between atoms: N_15  and  C_16
REMARK    4  A    between atoms: C_18  and  N_19
REMARK    5  A    between atoms: C_20  and  C_22
REMARK    6  A    between atoms: C_25  and  C_26
REMARK                            x       y       z     vdW  Elec       q    Type
REMARK                         _______ _______ _______ _____ _____    ______ ____
ROOT
ATOM      1  C   UNL     1       2.030   4.768  21.051  0.00  0.00    +0.000 C 
ATOM      2  C   UNL     1       1.755   6.184  20.627  0.00  0.00    +0.000 A 
ATOM      3  C   UNL     1       0.714   6.870  21.292  0.00  0.00    +0.000 A 
ATOM      4  C   UNL     1       0.427   8.208  21.008  0.00  0.00    +0.000 A 
ATOM      5  C   UNL     1       1.160   8.893  20.043  0.00  0.00    +0.000 A 
ATOM      6  C   UNL     1       2.125   8.176  19.328  0.00  0.00    +0.000 A 
ATOM      7  C   UNL     1       2.483   6.849  19.621  0.00  0.00    +0.000 A 
ENDROOT
BRANCH   5   8
ATOM      8  C   UNL     1       0.900  10.324  19.801  0.00  0.00    +0.000 A 
ATOM      9  N   UNL     1       1.587  11.298  20.375  0.00  0.00    +0.000 NA
ATOM     10  C   UNL     1       1.115  12.474  19.854  0.00  0.00    +0.000 A 
ATOM     11  C   UNL     1       1.515  13.788  20.129  0.00  0.00    +0.000 A 
ATOM     12  C   UNL     1       0.887  14.818  19.432  0.00  0.00    +0.000 A 
ATOM     13  F   UNL     1       1.257  16.086  19.676  0.00  0.00    +0.000 F 
ATOM     14  C   UNL     1      -0.106  14.575  18.492  0.00  0.00    +0.000 A 
ATOM     15  C   UNL     1      -0.522  13.271  18.214  0.00  0.00    +0.000 A 
ATOM     16  C   UNL     1       0.115  12.236  18.917  0.00  0.00    +0.000 A 
ATOM     17  N   UNL     1      -0.007  10.862  18.895  0.00  0.00    +0.000 N 
ATOM     18  C   UNL     1      -0.884  10.140  18.002  0.00  0.00    +0.000 C 
ENDBRANCH   5   8
BRANCH   7  19
ATOM     19  N   UNL     1       3.574   6.219  18.950  0.00  0.00    +0.000 N 
ATOM     20  C   UNL     1       3.478   5.279  17.932  0.00  0.00    +0.000 C 
ATOM     21  O   UNL     1       2.445   4.731  17.543  0.00  0.00    +0.000 OA
ATOM     22  H   UNL     1       4.520   6.517  19.173  0.00  0.00    +0.000 HD
BRANCH  20  23
ATOM     23  C   UNL     1       4.778   4.890  17.231  0.00  0.00    +0.000 C 
ATOM     24  C   UNL     1       6.036   5.222  18.003  0.00  0.00    +0.000 C 
ATOM     25  C   UNL     1       7.104   4.913  16.966  0.00  0.00    +0.000 C 
ATOM     26  C   UNL     1       6.438   5.256  15.625  0.00  0.00    +0.000 C 
ATOM     27  N   UNL     1       5.024   5.573  15.942  0.00  0.00    +0.000 NA
ATOM     28  H   UNL     1       4.414   5.183  15.223  0.00  0.00    +0.000 HD
BRANCH  26  29
ATOM     29  C   UNL     1       6.485   4.111  14.644  0.00  0.00    +0.000 C 
ATOM     30  C   UNL     1       6.832   4.323  13.189  0.00  0.00    +0.000 C 
ATOM     31  C   UNL     1       5.416   4.011  13.583  0.00  0.00    +0.000 C 
ENDBRANCH  26  29
ENDBRANCH  20  23
ENDBRANCH   7  19
TORSDOF 4
ENDMDL
MODEL 9
REMARK VINA RESULT:      -7.2      3.416      4.801
REMARK  Name = 
REMARK  6 active torsions:
REMARK  status: ('A' for Active; 'I' for Inactive)
REMARK    1  A    between atoms: C_1  and  C_2
REMARK    2  A    between atoms: C_5  and  C_6
REMARK    3  A    between atoms: N_15  and  C_16
REMARK    4  A    between atoms: C_18  and  N_19
REMARK    5  A    between atoms: C_20  and  C_22
REMARK    6  A    between atoms: C_25  and  C_26
REMARK                            x       y       z     vdW  Elec       q    Type
REMARK                         _______ _______ _______ _____ _____    ______ ____
ROOT
ATOM      1  C   UNL     1      -1.106  11.875  22.512  0.00  0.00    +0.000 C 
ATOM      2  C   UNL     1      -0.294  10.760  21.915  0.00  0.00    +0.000 A 
ATOM      3  C   UNL     1      -0.450   9.472  22.473  0.00  0.00    +0.000 A 
ATOM      4  C   UNL     1       0.217   8.364  21.945  0.00  0.00    +0.000 A 
ATOM      5  C   UNL     1       1.069   8.512  20.854  0.00  0.00    +0.000 A 
ATOM      6  C   UNL     1       1.287   9.806  20.369  0.00  0.00    +0.000 A 
ATOM      7  C   UNL     1       0.593  10.937  20.835  0.00  0.00    +0.000 A 
ENDROOT
BRANCH   5   8
ATOM      8  C   UNL     1       1.712   7.328  20.256  0.00  0.00    +0.000 A 
ATOM      9  N   UNL     1       1.739   6.139  20.836  0.00  0.00    +0.000 NA
ATOM     10  C   UNL     1       2.349   5.285  19.957  0.00  0.00    +0.000 A 
ATOM     11  C   UNL     1       2.615   3.916  20.094  0.00  0.00    +0.000 A 
ATOM     12  C   UNL     1       3.229   3.263  19.026  0.00  0.00    +0.000 A 
ATOM     13  F   UNL     1       3.491   1.950  19.133  0.00  0.00    +0.000 F 
ATOM     14  C   UNL     1       3.576   3.927  17.857  0.00  0.00    +0.000 A 
ATOM     15  C   UNL     1       3.325   5.292  17.710  0.00  0.00    +0.000 A 
ATOM     16  C   UNL     1       2.705   5.946  18.787  0.00  0.00    +0.000 A 
ATOM     17  N   UNL     1       2.291   7.245  18.994  0.00  0.00    +0.000 N 
ATOM     18  C   UNL     1       2.383   8.294  18.004  0.00  0.00    +0.000 C 
ENDBRANCH   5   8
BRANCH   7  19
ATOM     19  N   UNL     1       0.754  12.207  20.203  0.00  0.00    +0.000 N 
ATOM     20  C   UNL     1       0.011  12.691  19.134  0.00  0.00    +0.000 C 
ATOM     21  O   UNL     1      -0.804  12.052  18.467  0.00  0.00    +0.000 OA
ATOM     22  H   UNL     1       1.423  12.864  20.594  0.00  0.00    +0.000 HD
BRANCH  20  23
ATOM     23  C   UNL     1       0.229  14.153  18.751  0.00  0.00    +0.000 C 
ATOM     24  C   UNL     1       1.661  14.629  18.866  0.00  0.00    +0.000 C 
ATOM     25  C   UNL     1       1.490  16.121  18.629  0.00  0.00    +0.000 C 
ATOM     26  C   UNL     1       0.108  16.442  19.215  0.00  0.00    +0.000 C 
ATOM     27  N   UNL     1      -0.486  15.136  19.593  0.00  0.00    +0.000 NA
ATOM     28  H   UNL     1      -1.480  15.129  19.360  0.00  0.00    +0.000 HD
BRANCH  26  29
ATOM     29  C   UNL     1      -0.796  17.134  18.225  0.00  0.00    +0.000 C 
ATOM     30  C   UNL     1      -0.757  18.631  18.023  0.00  0.00    +0.000 C 
ATOM     31  C   UNL     1      -1.918  18.002  18.740  0.00  0.00    +0.000 C 
ENDBRANCH  26  29
ENDBRANCH  20  23
ENDBRANCH   7  19
TORSDOF 4
ENDMDL
