MODEL 1
REMARK VINA RESULT:      -9.4      0.000      0.000
REMARK  Name = 
REMARK  6 active torsions:
REMARK  status: ('A' for Active; 'I' for Inactive)
REMARK    1  A    between atoms: C_1  and  C_2
REMARK    2  A    between atoms: C_5  and  C_6
REMARK    3  A    between atoms: C_9  and  N_10
REMARK    4  A    between atoms: C_11  and  C_13
REMARK    5  A    between atoms: C_17  and  N_18
REMARK    6  A    between atoms: C_19  and  C_21
REMARK                            x       y       z     vdW  Elec       q    Type
REMARK                         _______ _______ _______ _____ _____    ______ ____
ROOT
ATOM      1  C   UNL     1       3.653   4.298  19.287  0.00  0.00    +0.000 A 
ATOM      2  C   UNL     1       3.198   3.037  19.675  0.00  0.00    +0.000 A 
ATOM      3  C   UNL     1       2.067   2.939  20.483  0.00  0.00    +0.000 A 
ATOM      4  C   UNL     1       1.413   4.090  20.931  0.00  0.00    +0.000 A 
ATOM      5  C   UNL     1       1.872   5.364  20.590  0.00  0.00    +0.000 A 
ATOM      6  C   UNL     1       2.970   5.457  19.726  0.00  0.00    +0.000 A 
ENDROOT
BRANCH   1   8
ATOM      7  N   UNL     1       4.878   5.108  17.294  0.00  0.00    +0.000 N 
ATOM      8  C   UNL     1       4.925   4.494  18.535  0.00  0.00    +0.000 C 
ATOM      9  O   UNL     1       5.940   4.040  19.055  0.00  0.00    +0.000 OA
ATOM     10  H   UNL     1       3.985   5.336  16.878  0.00  0.00    +0.000 HD
BRANCH   7  16
ATOM     11  C   UNL     1       5.420   3.920  14.391  0.00  0.00    +0.000 C 
ATOM     12  C   UNL     1       6.190   4.859  15.243  0.00  0.00    +0.000 A 
ATOM     13  N   UNL     1       7.390   5.347  14.810  0.00  0.00    +0.000 N 
ATOM     14  N   UNL     1       8.000   6.144  15.681  0.00  0.00    +0.000 NA
ATOM     15  C   UNL     1       7.156   6.218  16.730  0.00  0.00    +0.000 A 
ATOM     16  C   UNL     1       6.001   5.388  16.511  0.00  0.00    +0.000 A 
ATOM     17  H   UNL     1       7.858   5.167  13.927  0.00  0.00    +0.000 HD
BRANCH  15  18
ATOM     18  C   UNL     1       7.479   7.134  17.880  0.00  0.00    +0.000 C 
ATOM     19  F   UNL     1       8.300   6.540  18.802  0.00  0.00    +0.000 F 
ATOM     20  F   UNL     1       8.167   8.235  17.458  0.00  0.00    +0.000 F 
ENDBRANCH  15  18
ENDBRANCH   7  16
ENDBRANCH   1   8
BRANCH   5  21
ATOM     21  N   UNL     1       1.304   6.560  21.107  0.00  0.00    +0.000 N 
ATOM     22  C   UNL     1       1.426   7.808  20.508  0.00  0.00    +0.000 C 
ATOM     23  O   UNL     1       2.010   8.038  19.453  0.00  0.00    +0.000 OA
ATOM     24  H   UNL     1       0.616   6.455  21.843  0.00  0.00    +0.000 HD
BRANCH  22  25
ATOM     25  C   UNL     1       0.750   8.968  21.162  0.00  0.00    +0.000 A 
ATOM     26  C   UNL     1       0.237  10.064  20.457  0.00  0.00    +0.000 A 
ATOM     27  C   UNL     1      -0.496  11.044  21.133  0.00  0.00    +0.000 A 
ATOM     28  C   UNL     1      -0.717  10.930  22.504  0.00  0.00    +0.000 A 
ATOM     29  F   UNL     1      -1.455  11.853  23.137  0.00  0.00    +0.000 F 
ATOM     30  C   UNL     1      -0.201   9.862  23.222  0.00  0.00    +0.000 A 
ATOM     31  C   UNL     1       0.530   8.881  22.551  0.00  0.00    +0.000 A 
ENDBRANCH  22  25
ENDBRANCH   5  21
TORSDOF 5
ENDMDL
MODEL 2
REMARK VINA RESULT:      -9.2      1.782      2.368
REMARK  Name = 
REMARK  6 active torsions:
REMARK  status: ('A' for Active; 'I' for Inactive)
REMARK    1  A    between atoms: C_1  and  C_2
REMARK    2  A    between atoms: C_5  and  C_6
REMARK    3  A    between atoms: C_9  and  N_10
REMARK    4  A    between atoms: C_11  and  C_13
REMARK    5  A    between atoms: C_17  and  N_18
REMARK    6  A    between atoms: C_19  and  C_21
REMARK                            x       y       z     vdW  Elec       q    Type
REMARK                         _______ _______ _______ _____ _____    ______ ____
ROOT
ATOM      1  C   UNL     1       3.621   4.367  19.148  0.00  0.00    +0.000 A 
ATOM      2  C   UNL     1       3.089   3.122  19.484  0.00  0.00    +0.000 A 
ATOM      3  C   UNL     1       1.954   3.060  20.291  0.00  0.00    +0.000 A 
ATOM      4  C   UNL     1       1.374   4.229  20.790  0.00  0.00    +0.000 A 
ATOM      5  C   UNL     1       1.912   5.486  20.502  0.00  0.00    +0.000 A 
ATOM      6  C   UNL     1       3.013   5.547  19.639  0.00  0.00    +0.000 A 
ENDROOT
BRANCH   1   8
ATOM      7  N   UNL     1       4.883   5.127  17.158  0.00  0.00    +0.000 N 
ATOM      8  C   UNL     1       4.903   4.515  18.402  0.00  0.00    +0.000 C 
ATOM      9  O   UNL     1       5.898   4.028  18.927  0.00  0.00    +0.000 OA
ATOM     10  H   UNL     1       4.000   5.385  16.738  0.00  0.00    +0.000 HD
BRANCH   7  16
ATOM     11  C   UNL     1       7.236   7.129  17.924  0.00  0.00    +0.000 C 
ATOM     12  C   UNL     1       7.028   6.235  16.759  0.00  0.00    +0.000 A 
ATOM     13  N   UNL     1       7.944   6.208  15.746  0.00  0.00    +0.000 N 
ATOM     14  N   UNL     1       7.622   5.400  14.741  0.00  0.00    +0.000 NA
ATOM     15  C   UNL     1       6.455   4.838  15.113  0.00  0.00    +0.000 A 
ATOM     16  C   UNL     1       6.018   5.364  16.379  0.00  0.00    +0.000 A 
ATOM     17  H   UNL     1       8.814   6.728  15.674  0.00  0.00    +0.000 HD
BRANCH  15  18
ATOM     18  C   UNL     1       5.836   3.771  14.249  0.00  0.00    +0.000 C 
ATOM     19  F   UNL     1       4.670   4.188  13.665  0.00  0.00    +0.000 F 
ATOM     20  F   UNL     1       6.653   3.444  13.204  0.00  0.00    +0.000 F 
ENDBRANCH  15  18
ENDBRANCH   7  16
ENDBRANCH   1   8
BRANCH   5  21
ATOM     21  N   UNL     1       1.419   6.691  21.071  0.00  0.00    +0.000 N 
ATOM     22  C   UNL     1       1.456   7.929  20.439  0.00  0.00    +0.000 C 
ATOM     23  O   UNL     1       1.886   8.138  19.309  0.00  0.00    +0.000 OA
ATOM     24  H   UNL     1       0.842   6.601  21.898  0.00  0.00    +0.000 HD
BRANCH  22  25
ATOM     25  C   UNL     1       0.876   9.101  21.160  0.00  0.00    +0.000 A 
ATOM     26  C   UNL     1       0.814  10.391  20.618  0.00  0.00    +0.000 A 
ATOM     27  C   UNL     1       0.138  11.402  21.306  0.00  0.00    +0.000 A 
ATOM     28  C   UNL     1      -0.473  11.129  22.528  0.00  0.00    +0.000 A 
ATOM     29  F   UNL     1      -1.153  12.094  23.162  0.00  0.00    +0.000 F 
ATOM     30  C   UNL     1      -0.405   9.862  23.090  0.00  0.00    +0.000 A 
ATOM     31  C   UNL     1       0.267   8.850  22.405  0.00  0.00    +0.000 A 
ENDBRANCH  22  25
ENDBRANCH   5  21
TORSDOF 5
ENDMDL
MODEL 3
REMARK VINA RESULT:      -9.1      3.692      5.330
REMARK  Name = 
REMARK  6 active torsions:
REMARK  status: ('A' for Active; 'I' for Inactive)
REMARK    1  A    between atoms: C_1  and  C_2
REMARK    2  A    between atoms: C_5  and  C_6
REMARK    3  A    between atoms: C_9  and  N_10
REMARK    4  A    between atoms: C_11  and  C_13
REMARK    5  A    between atoms: C_17  and  N_18
REMARK    6  A    between atoms: C_19  and  C_21
REMARK                            x       y       z     vdW  Elec       q    Type
REMARK                         _______ _______ _______ _____ _____    ______ ____
ROOT
ATOM      1  C   UNL     1       2.003   7.946  19.335  0.00  0.00    +0.000 A 
ATOM      2  C   UNL     1       2.278   8.475  18.073  0.00  0.00    +0.000 A 
ATOM      3  C   UNL     1       1.823   9.753  17.755  0.00  0.00    +0.000 A 
ATOM      4  C   UNL     1       1.067  10.486  18.674  0.00  0.00    +0.000 A 
ATOM      5  C   UNL     1       0.744   9.963  19.928  0.00  0.00    +0.000 A 
ATOM      6  C   UNL     1       1.257   8.706  20.267  0.00  0.00    +0.000 A 
ENDROOT
BRANCH   1   8
ATOM      7  N   UNL     1       3.061   5.771  18.808  0.00  0.00    +0.000 N 
ATOM      8  C   UNL     1       2.340   6.542  19.705  0.00  0.00    +0.000 C 
ATOM      9  O   UNL     1       1.900   6.142  20.778  0.00  0.00    +0.000 OA
ATOM     10  H   UNL     1       3.273   6.134  17.888  0.00  0.00    +0.000 HD
BRANCH   7  16
ATOM     11  C   UNL     1       6.091   4.842  19.111  0.00  0.00    +0.000 C 
ATOM     12  C   UNL     1       4.808   4.101  19.192  0.00  0.00    +0.000 A 
ATOM     13  N   UNL     1       4.811   2.752  19.404  0.00  0.00    +0.000 N 
ATOM     14  N   UNL     1       3.603   2.199  19.414  0.00  0.00    +0.000 NA
ATOM     15  C   UNL     1       2.752   3.229  19.232  0.00  0.00    +0.000 A 
ATOM     16  C   UNL     1       3.476   4.459  19.052  0.00  0.00    +0.000 A 
ATOM     17  H   UNL     1       5.610   2.141  19.544  0.00  0.00    +0.000 HD
BRANCH  15  18
ATOM     18  C   UNL     1       1.268   2.985  19.293  0.00  0.00    +0.000 C 
ATOM     19  F   UNL     1       0.914   1.789  18.727  0.00  0.00    +0.000 F 
ATOM     20  F   UNL     1       0.832   2.903  20.585  0.00  0.00    +0.000 F 
ENDBRANCH  15  18
ENDBRANCH   7  16
ENDBRANCH   1   8
BRANCH   5  21
ATOM     21  N   UNL     1      -0.108  10.627  20.852  0.00  0.00    +0.000 N 
ATOM     22  C   UNL     1       0.205  11.824  21.486  0.00  0.00    +0.000 C 
ATOM     23  O   UNL     1       1.232  12.473  21.313  0.00  0.00    +0.000 OA
ATOM     24  H   UNL     1      -1.067  10.306  20.897  0.00  0.00    +0.000 HD
BRANCH  22  25
ATOM     25  C   UNL     1      -0.807  12.411  22.414  0.00  0.00    +0.000 A 
ATOM     26  C   UNL     1      -0.757  13.730  22.882  0.00  0.00    +0.000 A 
ATOM     27  C   UNL     1      -1.814  14.238  23.643  0.00  0.00    +0.000 A 
ATOM     28  C   UNL     1      -2.914  13.435  23.935  0.00  0.00    +0.000 A 
ATOM     29  F   UNL     1      -3.941  13.942  24.631  0.00  0.00    +0.000 F 
ATOM     30  C   UNL     1      -2.973  12.121  23.496  0.00  0.00    +0.000 A 
ATOM     31  C   UNL     1      -1.921  11.611  22.735  0.00  0.00    +0.000 A 
ENDBRANCH  22  25
ENDBRANCH   5  21
TORSDOF 5
ENDMDL
MODEL 4
REMARK VINA RESULT:      -8.9      4.565      9.672
REMARK  Name = 
REMARK  6 active torsions:
REMARK  status: ('A' for Active; 'I' for Inactive)
REMARK    1  A    between atoms: C_1  and  C_2
REMARK    2  A    between atoms: C_5  and  C_6
REMARK    3  A    between atoms: C_9  and  N_10
REMARK    4  A    between atoms: C_11  and  C_13
REMARK    5  A    between atoms: C_17  and  N_18
REMARK    6  A    between atoms: C_19  and  C_21
REMARK                            x       y       z     vdW  Elec       q    Type
REMARK                         _______ _______ _______ _____ _____    ______ ____
ROOT
ATOM      1  C   UNL     1      -0.059  10.006  19.464  0.00  0.00    +0.000 A 
ATOM      2  C   UNL     1      -0.172   9.708  20.822  0.00  0.00    +0.000 A 
ATOM      3  C   UNL     1       0.721   8.808  21.400  0.00  0.00    +0.000 A 
ATOM      4  C   UNL     1       1.699   8.180  20.623  0.00  0.00    +0.000 A 
ATOM      5  C   UNL     1       1.807   8.431  19.253  0.00  0.00    +0.000 A 
ATOM      6  C   UNL     1       0.949   9.384  18.690  0.00  0.00    +0.000 A 
ENDROOT
BRANCH   1   8
ATOM      7  N   UNL     1      -2.322  10.347  18.519  0.00  0.00    +0.000 N 
ATOM      8  C   UNL     1      -1.052  10.854  18.745  0.00  0.00    +0.000 C 
ATOM      9  O   UNL     1      -0.652  11.943  18.347  0.00  0.00    +0.000 OA
ATOM     10  H   UNL     1      -2.533   9.389  18.764  0.00  0.00    +0.000 HD
BRANCH   7  16
ATOM     11  C   UNL     1      -4.305  12.355  19.994  0.00  0.00    +0.000 C 
ATOM     12  C   UNL     1      -4.185  11.932  18.576  0.00  0.00    +0.000 A 
ATOM     13  N   UNL     1      -5.062  12.412  17.645  0.00  0.00    +0.000 N 
ATOM     14  N   UNL     1      -4.877  11.926  16.422  0.00  0.00    +0.000 NA
ATOM     15  C   UNL     1      -3.810  11.110  16.534  0.00  0.00    +0.000 A 
ATOM     16  C   UNL     1      -3.354  11.056  17.897  0.00  0.00    +0.000 A 
ATOM     17  H   UNL     1      -5.822  13.072  17.780  0.00  0.00    +0.000 HD
BRANCH  15  18
ATOM     18  C   UNL     1      -3.242  10.457  15.302  0.00  0.00    +0.000 C 
ATOM     19  F   UNL     1      -2.533   9.322  15.595  0.00  0.00    +0.000 F 
ATOM     20  F   UNL     1      -4.233  10.041  14.460  0.00  0.00    +0.000 F 
ENDBRANCH  15  18
ENDBRANCH   7  16
ENDBRANCH   1   8
BRANCH   5  21
ATOM     21  N   UNL     1       2.714   7.740  18.405  0.00  0.00    +0.000 N 
ATOM     22  C   UNL     1       2.826   6.356  18.339  0.00  0.00    +0.000 C 
ATOM     23  O   UNL     1       2.146   5.556  18.975  0.00  0.00    +0.000 OA
ATOM     24  H   UNL     1       3.161   8.285  17.678  0.00  0.00    +0.000 HD
BRANCH  22  25
ATOM     25  C   UNL     1       3.812   5.778  17.379  0.00  0.00    +0.000 A 
ATOM     26  C   UNL     1       4.720   6.550  16.642  0.00  0.00    +0.000 A 
ATOM     27  C   UNL     1       5.695   5.921  15.863  0.00  0.00    +0.000 A 
ATOM     28  C   UNL     1       5.766   4.530  15.820  0.00  0.00    +0.000 A 
ATOM     29  F   UNL     1       6.730   3.935  15.103  0.00  0.00    +0.000 F 
ATOM     30  C   UNL     1       4.864   3.749  16.528  0.00  0.00    +0.000 A 
ATOM     31  C   UNL     1       3.890   4.373  17.307  0.00  0.00    +0.000 A 
ENDBRANCH  22  25
ENDBRANCH   5  21
TORSDOF 5
ENDMDL
MODEL 5
REMARK VINA RESULT:      -8.8      3.593      5.194
REMARK  Name = 
REMARK  6 active torsions:
REMARK  status: ('A' for Active; 'I' for Inactive)
REMARK    1  A    between atoms: C_1  and  C_2
REMARK    2  A    between atoms: C_5  and  C_6
REMARK    3  A    between atoms: C_9  and  N_10
REMARK    4  A    between atoms: C_11  and  C_13
REMARK    5  A    between atoms: C_17  and  N_18
REMARK    6  A    between atoms: C_19  and  C_21
REMARK                            x       y       z     vdW  Elec       q    Type
REMARK                         _______ _______ _______ _____ _____    ______ ____
ROOT
ATOM      1  C   UNL     1       2.105   7.921  19.152  0.00  0.00    +0.000 A 
ATOM      2  C   UNL     1       2.635   8.507  18.002  0.00  0.00    +0.000 A 
ATOM      3  C   UNL     1       2.185   9.766  17.607  0.00  0.00    +0.000 A 
ATOM      4  C   UNL     1       1.187  10.422  18.333  0.00  0.00    +0.000 A 
ATOM      5  C   UNL     1       0.611   9.839  19.465  0.00  0.00    +0.000 A 
ATOM      6  C   UNL     1       1.111   8.604  19.894  0.00  0.00    +0.000 A 
ENDROOT
BRANCH   1   8
ATOM      7  N   UNL     1       3.184   5.738  18.708  0.00  0.00    +0.000 N 
ATOM      8  C   UNL     1       2.436   6.528  19.566  0.00  0.00    +0.000 C 
ATOM      9  O   UNL     1       1.969   6.153  20.637  0.00  0.00    +0.000 OA
ATOM     10  H   UNL     1       3.420   6.079  17.786  0.00  0.00    +0.000 HD
BRANCH   7  16
ATOM     11  C   UNL     1       6.197   4.849  19.223  0.00  0.00    +0.000 C 
ATOM     12  C   UNL     1       4.919   4.094  19.229  0.00  0.00    +0.000 A 
ATOM     13  N   UNL     1       4.924   2.747  19.459  0.00  0.00    +0.000 N 
ATOM     14  N   UNL     1       3.724   2.180  19.396  0.00  0.00    +0.000 NA
ATOM     15  C   UNL     1       2.875   3.197  19.144  0.00  0.00    +0.000 A 
ATOM     16  C   UNL     1       3.596   4.434  18.997  0.00  0.00    +0.000 A 
ATOM     17  H   UNL     1       5.719   2.148  19.659  0.00  0.00    +0.000 HD
BRANCH  15  18
ATOM     18  C   UNL     1       1.393   2.937  19.111  0.00  0.00    +0.000 C 
ATOM     19  F   UNL     1       0.769   3.337  20.263  0.00  0.00    +0.000 F 
ATOM     20  F   UNL     1       0.786   3.653  18.119  0.00  0.00    +0.000 F 
ENDBRANCH  15  18
ENDBRANCH   7  16
ENDBRANCH   1   8
BRANCH   5  21
ATOM     21  N   UNL     1      -0.476  10.420  20.171  0.00  0.00    +0.000 N 
ATOM     22  C   UNL     1      -0.351  11.455  21.091  0.00  0.00    +0.000 C 
ATOM     23  O   UNL     1       0.699  12.016  21.391  0.00  0.00    +0.000 OA
ATOM     24  H   UNL     1      -1.406  10.194  19.839  0.00  0.00    +0.000 HD
BRANCH  22  25
ATOM     25  C   UNL     1      -1.594  11.975  21.734  0.00  0.00    +0.000 A 
ATOM     26  C   UNL     1      -2.603  12.651  21.035  0.00  0.00    +0.000 A 
ATOM     27  C   UNL     1      -3.792  12.990  21.688  0.00  0.00    +0.000 A 
ATOM     28  C   UNL     1      -3.974  12.656  23.028  0.00  0.00    +0.000 A 
ATOM     29  F   UNL     1      -5.133  12.949  23.634  0.00  0.00    +0.000 F 
ATOM     30  C   UNL     1      -2.978  12.004  23.740  0.00  0.00    +0.000 A 
ATOM     31  C   UNL     1      -1.791  11.663  23.093  0.00  0.00    +0.000 A 
ENDBRANCH  22  25
ENDBRANCH   5  21
TORSDOF 5
ENDMDL
MODEL 6
REMARK VINA RESULT:      -8.8      3.670      5.414
REMARK  Name = 
REMARK  6 active torsions:
REMARK  status: ('A' for Active; 'I' for Inactive)
REMARK    1  A    between atoms: C_1  and  C_2
REMARK    2  A    between atoms: C_5  and  C_6
REMARK    3  A    between atoms: C_9  and  N_10
REMARK    4  A    between atoms: C_11  and  C_13
REMARK    5  A    between atoms: C_17  and  N_18
REMARK    6  A    between atoms: C_19  and  C_21
REMARK                            x       y       z     vdW  Elec       q    Type
REMARK                         _______ _______ _______ _____ _____    ______ ____
ROOT
ATOM      1  C   UNL     1       1.996   8.058  19.273  0.00  0.00    +0.000 A 
ATOM      2  C   UNL     1       2.523   8.686  18.144  0.00  0.00    +0.000 A 
ATOM      3  C   UNL     1       2.049   9.944  17.779  0.00  0.00    +0.000 A 
ATOM      4  C   UNL     1       1.030  10.559  18.513  0.00  0.00    +0.000 A 
ATOM      5  C   UNL     1       0.458   9.933  19.623  0.00  0.00    +0.000 A 
ATOM      6  C   UNL     1       0.981   8.698  20.024  0.00  0.00    +0.000 A 
ENDROOT
BRANCH   1   8
ATOM      7  N   UNL     1       3.105   5.902  18.771  0.00  0.00    +0.000 N 
ATOM      8  C   UNL     1       2.354   6.661  19.654  0.00  0.00    +0.000 C 
ATOM      9  O   UNL     1       1.905   6.256  20.721  0.00  0.00    +0.000 OA
ATOM     10  H   UNL     1       3.325   6.267  17.854  0.00  0.00    +0.000 HD
BRANCH   7  16
ATOM     11  C   UNL     1       6.144   5.041  19.163  0.00  0.00    +0.000 C 
ATOM     12  C   UNL     1       4.876   4.271  19.205  0.00  0.00    +0.000 A 
ATOM     13  N   UNL     1       4.904   2.922  19.416  0.00  0.00    +0.000 N 
ATOM     14  N   UNL     1       3.708   2.342  19.390  0.00  0.00    +0.000 NA
ATOM     15  C   UNL     1       2.840   3.353  19.183  0.00  0.00    +0.000 A 
ATOM     16  C   UNL     1       3.542   4.599  19.026  0.00  0.00    +0.000 A 
ATOM     17  H   UNL     1       5.712   2.329  19.579  0.00  0.00    +0.000 HD
BRANCH  15  18
ATOM     18  C   UNL     1       1.361   3.077  19.200  0.00  0.00    +0.000 C 
ATOM     19  F   UNL     1       1.072   1.776  18.883  0.00  0.00    +0.000 F 
ATOM     20  F   UNL     1       0.837   3.256  20.449  0.00  0.00    +0.000 F 
ENDBRANCH  15  18
ENDBRANCH   7  16
ENDBRANCH   1   8
BRANCH   5  21
ATOM     21  N   UNL     1      -0.649  10.472  20.334  0.00  0.00    +0.000 N 
ATOM     22  C   UNL     1      -0.551  11.470  21.296  0.00  0.00    +0.000 C 
ATOM     23  O   UNL     1       0.486  12.033  21.635  0.00  0.00    +0.000 OA
ATOM     24  H   UNL     1      -1.570  10.247  19.979  0.00  0.00    +0.000 HD
BRANCH  22  25
ATOM     25  C   UNL     1      -1.811  11.948  21.939  0.00  0.00    +0.000 A 
ATOM     26  C   UNL     1      -2.133  11.713  23.282  0.00  0.00    +0.000 A 
ATOM     27  C   UNL     1      -3.270  12.306  23.838  0.00  0.00    +0.000 A 
ATOM     28  C   UNL     1      -4.081  13.129  23.060  0.00  0.00    +0.000 A 
ATOM     29  F   UNL     1      -5.147  13.726  23.612  0.00  0.00    +0.000 F 
ATOM     30  C   UNL     1      -3.789  13.358  21.724  0.00  0.00    +0.000 A 
ATOM     31  C   UNL     1      -2.654  12.770  21.166  0.00  0.00    +0.000 A 
ENDBRANCH  22  25
ENDBRANCH   5  21
TORSDOF 5
ENDMDL
MODEL 7
REMARK VINA RESULT:      -8.7      0.515      1.164
REMARK  Name = 
REMARK  6 active torsions:
REMARK  status: ('A' for Active; 'I' for Inactive)
REMARK    1  A    between atoms: C_1  and  C_2
REMARK    2  A    between atoms: C_5  and  C_6
REMARK    3  A    between atoms: C_9  and  N_10
REMARK    4  A    between atoms: C_11  and  C_13
REMARK    5  A    between atoms: C_17  and  N_18
REMARK    6  A    between atoms: C_19  and  C_21
REMARK                            x       y       z     vdW  Elec       q    Type
REMARK                         _______ _______ _______ _____ _____    ______ ____
ROOT
ATOM      1  C   UNL     1       3.799   4.211  19.360  0.00  0.00    +0.000 A 
ATOM      2  C   UNL     1       3.413   2.970  19.868  0.00  0.00    +0.000 A 
ATOM      3  C   UNL     1       2.327   2.896  20.737  0.00  0.00    +0.000 A 
ATOM      4  C   UNL     1       1.651   4.056  21.128  0.00  0.00    +0.000 A 
ATOM      5  C   UNL     1       2.043   5.314  20.666  0.00  0.00    +0.000 A 
ATOM      6  C   UNL     1       3.094   5.377  19.743  0.00  0.00    +0.000 A 
ENDROOT
BRANCH   1   8
ATOM      7  N   UNL     1       4.915   5.036  17.309  0.00  0.00    +0.000 N 
ATOM      8  C   UNL     1       5.025   4.391  18.531  0.00  0.00    +0.000 C 
ATOM      9  O   UNL     1       6.058   3.899  18.973  0.00  0.00    +0.000 OA
ATOM     10  H   UNL     1       4.003   5.296  16.958  0.00  0.00    +0.000 HD
BRANCH   7  16
ATOM     11  C   UNL     1       5.323   3.763  14.420  0.00  0.00    +0.000 C 
ATOM     12  C   UNL     1       6.122   4.738  15.202  0.00  0.00    +0.000 A 
ATOM     13  N   UNL     1       7.292   5.227  14.693  0.00  0.00    +0.000 N 
ATOM     14  N   UNL     1       7.935   6.058  15.505  0.00  0.00    +0.000 NA
ATOM     15  C   UNL     1       7.145   6.155  16.594  0.00  0.00    +0.000 A 
ATOM     16  C   UNL     1       5.992   5.305  16.460  0.00  0.00    +0.000 A 
ATOM     17  H   UNL     1       7.716   5.025  13.792  0.00  0.00    +0.000 HD
BRANCH  15  18
ATOM     18  C   UNL     1       7.513   7.111  17.696  0.00  0.00    +0.000 C 
ATOM     19  F   UNL     1       6.655   8.176  17.769  0.00  0.00    +0.000 F 
ATOM     20  F   UNL     1       7.430   6.512  18.921  0.00  0.00    +0.000 F 
ENDBRANCH  15  18
ENDBRANCH   7  16
ENDBRANCH   1   8
BRANCH   5  21
ATOM     21  N   UNL     1       1.454   6.526  21.118  0.00  0.00    +0.000 N 
ATOM     22  C   UNL     1       1.494   7.726  20.416  0.00  0.00    +0.000 C 
ATOM     23  O   UNL     1       2.011   7.889  19.315  0.00  0.00    +0.000 OA
ATOM     24  H   UNL     1       0.812   6.457  21.897  0.00  0.00    +0.000 HD
BRANCH  22  25
ATOM     25  C   UNL     1       0.806   8.909  21.012  0.00  0.00    +0.000 A 
ATOM     26  C   UNL     1       0.206   8.900  22.278  0.00  0.00    +0.000 A 
ATOM     27  C   UNL     1      -0.302  10.086  22.815  0.00  0.00    +0.000 A 
ATOM     28  C   UNL     1      -0.212  11.275  22.094  0.00  0.00    +0.000 A 
ATOM     29  F   UNL     1      -0.665  12.415  22.633  0.00  0.00    +0.000 F 
ATOM     30  C   UNL     1       0.361  11.299  20.831  0.00  0.00    +0.000 A 
ATOM     31  C   UNL     1       0.870  10.118  20.293  0.00  0.00    +0.000 A 
ENDBRANCH  22  25
ENDBRANCH   5  21
TORSDOF 5
ENDMDL
MODEL 8
REMARK VINA RESULT:      -8.6      4.213      9.714
REMARK  Name = 
REMARK  6 active torsions:
REMARK  status: ('A' for Active; 'I' for Inactive)
REMARK    1  A    between atoms: C_1  and  C_2
REMARK    2  A    between atoms: C_5  and  C_6
REMARK    3  A    between atoms: C_9  and  N_10
REMARK    4  A    between atoms: C_11  and  C_13
REMARK    5  A    between atoms: C_17  and  N_18
REMARK    6  A    between atoms: C_19  and  C_21
REMARK                            x       y       z     vdW  Elec       q    Type
REMARK                         _______ _______ _______ _____ _____    ______ ____
ROOT
ATOM      1  C   UNL     1      -0.197  10.091  19.402  0.00  0.00    +0.000 A 
ATOM      2  C   UNL     1      -0.294   9.897  20.781  0.00  0.00    +0.000 A 
ATOM      3  C   UNL     1       0.621   9.061  21.418  0.00  0.00    +0.000 A 
ATOM      4  C   UNL     1       1.604   8.393  20.682  0.00  0.00    +0.000 A 
ATOM      5  C   UNL     1       1.697   8.539  19.296  0.00  0.00    +0.000 A 
ATOM      6  C   UNL     1       0.817   9.430  18.669  0.00  0.00    +0.000 A 
ENDROOT
BRANCH   1   8
ATOM      7  N   UNL     1      -2.411  10.250  18.307  0.00  0.00    +0.000 N 
ATOM      8  C   UNL     1      -1.211  10.863  18.629  0.00  0.00    +0.000 C 
ATOM      9  O   UNL     1      -0.885  11.992  18.278  0.00  0.00    +0.000 OA
ATOM     10  H   UNL     1      -2.550   9.271  18.521  0.00  0.00    +0.000 HD
BRANCH   7  16
ATOM     11  C   UNL     1      -3.006   9.940  15.195  0.00  0.00    +0.000 C 
ATOM     12  C   UNL     1      -3.690  10.701  16.270  0.00  0.00    +0.000 A 
ATOM     13  N   UNL     1      -4.776  11.475  15.974  0.00  0.00    +0.000 N 
ATOM     14  N   UNL     1      -5.271  12.139  17.013  0.00  0.00    +0.000 NA
ATOM     15  C   UNL     1      -4.502  11.767  18.057  0.00  0.00    +0.000 A 
ATOM     16  C   UNL     1      -3.458  10.876  17.625  0.00  0.00    +0.000 A 
ATOM     17  H   UNL     1      -5.229  11.602  15.074  0.00  0.00    +0.000 HD
BRANCH  15  18
ATOM     18  C   UNL     1      -4.845  12.250  19.441  0.00  0.00    +0.000 C 
ATOM     19  F   UNL     1      -5.698  11.399  20.092  0.00  0.00    +0.000 F 
ATOM     20  F   UNL     1      -3.735  12.307  20.235  0.00  0.00    +0.000 F 
ENDBRANCH  15  18
ENDBRANCH   7  16
ENDBRANCH   1   8
BRANCH   5  21
ATOM     21  N   UNL     1       2.610   7.801  18.496  0.00  0.00    +0.000 N 
ATOM     22  C   UNL     1       2.761   6.420  18.549  0.00  0.00    +0.000 C 
ATOM     23  O   UNL     1       2.114   5.661  19.265  0.00  0.00    +0.000 OA
ATOM     24  H   UNL     1       3.030   8.292  17.716  0.00  0.00    +0.000 HD
BRANCH  22  25
ATOM     25  C   UNL     1       3.748   5.787  17.625  0.00  0.00    +0.000 A 
ATOM     26  C   UNL     1       3.875   4.403  17.457  0.00  0.00    +0.000 A 
ATOM     27  C   UNL     1       4.734   3.898  16.476  0.00  0.00    +0.000 A 
ATOM     28  C   UNL     1       5.462   4.768  15.669  0.00  0.00    +0.000 A 
ATOM     29  F   UNL     1       6.253   4.277  14.704  0.00  0.00    +0.000 F 
ATOM     30  C   UNL     1       5.364   6.142  15.834  0.00  0.00    +0.000 A 
ATOM     31  C   UNL     1       4.507   6.650  16.810  0.00  0.00    +0.000 A 
ENDBRANCH  22  25
ENDBRANCH   5  21
TORSDOF 5
ENDMDL
MODEL 9
REMARK VINA RESULT:      -8.6      3.907      7.553
REMARK  Name = 
REMARK  6 active torsions:
REMARK  status: ('A' for Active; 'I' for Inactive)
REMARK    1  A    between atoms: C_1  and  C_2
REMARK    2  A    between atoms: C_5  and  C_6
REMARK    3  A    between atoms: C_9  and  N_10
REMARK    4  A    between atoms: C_11  and  C_13
REMARK    5  A    between atoms: C_17  and  N_18
REMARK    6  A    between atoms: C_19  and  C_21
REMARK                            x       y       z     vdW  Elec       q    Type
REMARK                         _______ _______ _______ _____ _____    ______ ____
ROOT
ATOM      1  C   UNL     1       5.762   4.782  17.518  0.00  0.00    +0.000 A 
ATOM      2  C   UNL     1       6.045   4.156  16.303  0.00  0.00    +0.000 A 
ATOM      3  C   UNL     1       6.887   4.788  15.390  0.00  0.00    +0.000 A 
ATOM      4  C   UNL     1       7.414   6.052  15.669  0.00  0.00    +0.000 A 
ATOM      5  C   UNL     1       7.114   6.717  16.860  0.00  0.00    +0.000 A 
ATOM      6  C   UNL     1       6.320   6.051  17.802  0.00  0.00    +0.000 A 
ENDROOT
BRANCH   1   8
ATOM      7  N   UNL     1       3.451   4.640  18.394  0.00  0.00    +0.000 N 
ATOM      8  C   UNL     1       4.772   4.234  18.489  0.00  0.00    +0.000 C 
ATOM      9  O   UNL     1       5.215   3.488  19.356  0.00  0.00    +0.000 OA
ATOM     10  H   UNL     1       3.191   5.359  17.732  0.00  0.00    +0.000 HD
BRANCH   7  16
ATOM     11  C   UNL     1       1.852   6.402  20.509  0.00  0.00    +0.000 C 
ATOM     12  C   UNL     1       1.741   4.977  20.111  0.00  0.00    +0.000 A 
ATOM     13  N   UNL     1       0.831   4.166  20.727  0.00  0.00    +0.000 N 
ATOM     14  N   UNL     1       0.858   2.904  20.313  0.00  0.00    +0.000 NA
ATOM     15  C   UNL     1       1.806   2.876  19.354  0.00  0.00    +0.000 A 
ATOM     16  C   UNL     1       2.421   4.170  19.213  0.00  0.00    +0.000 A 
ATOM     17  H   UNL     1       0.161   4.410  21.451  0.00  0.00    +0.000 HD
BRANCH  15  18
ATOM     18  C   UNL     1       2.040   1.609  18.577  0.00  0.00    +0.000 C 
ATOM     19  F   UNL     1       2.148   1.838  17.230  0.00  0.00    +0.000 F 
ATOM     20  F   UNL     1       3.223   1.023  18.927  0.00  0.00    +0.000 F 
ENDBRANCH  15  18
ENDBRANCH   7  16
ENDBRANCH   1   8
BRANCH   5  21
ATOM     21  N   UNL     1       7.541   8.043  17.139  0.00  0.00    +0.000 N 
ATOM     22  C   UNL     1       8.301   8.405  18.246  0.00  0.00    +0.000 C 
ATOM     23  O   UNL     1       8.723   7.634  19.102  0.00  0.00    +0.000 OA
ATOM     24  H   UNL     1       7.446   8.718  16.391  0.00  0.00    +0.000 HD
BRANCH  22  25
ATOM     25  C   UNL     1       8.692   9.839  18.388  0.00  0.00    +0.000 A 
ATOM     26  C   UNL     1       8.290  10.844  17.498  0.00  0.00    +0.000 A 
ATOM     27  C   UNL     1       8.592  12.180  17.776  0.00  0.00    +0.000 A 
ATOM     28  C   UNL     1       9.291  12.512  18.935  0.00  0.00    +0.000 A 
ATOM     29  F   UNL     1       9.541  13.799  19.214  0.00  0.00    +0.000 F 
ATOM     30  C   UNL     1       9.714  11.529  19.817  0.00  0.00    +0.000 A 
ATOM     31  C   UNL     1       9.413  10.195  19.544  0.00  0.00    +0.000 A 
ENDBRANCH  22  25
ENDBRANCH   5  21
TORSDOF 5
ENDMDL
