MODEL 1
REMARK VINA RESULT:      -9.5      0.000      0.000
REMARK  Name = 
REMARK  5 active torsions:
REMARK  status: ('A' for Active; 'I' for Inactive)
REMARK    1  A    between atoms: C_4  and  C_5
REMARK    2  A    between atoms: C_5  and  C_6
REMARK    3  A    between atoms: N_17  and  C_18
REMARK    4  A    between atoms: C_18  and  C_19
REMARK    5  A    between atoms: C_22  and  C_23
REMARK                            x       y       z     vdW  Elec       q    Type
REMARK                         _______ _______ _______ _____ _____    ______ ____
ROOT
ATOM      1  O   UNL     1       2.007   2.244  19.779  0.00  0.00    +0.000 OA
ATOM      2  C   UNL     1       2.934   2.910  19.352  0.00  0.00    +0.000 C 
ATOM      3  N   UNL     1       3.796   2.491  18.368  0.00  0.00    +0.000 N 
ATOM      4  C   UNL     1       4.684   3.543  17.931  0.00  0.00    +0.000 C 
ATOM      5  C   UNL     1       4.322   4.622  18.956  0.00  0.00    +0.000 C 
ATOM      6  O   UNL     1       4.844   5.726  19.025  0.00  0.00    +0.000 OA
ATOM      7  N   UNL     1       3.275   4.175  19.711  0.00  0.00    +0.000 N 
ATOM      8  H   UNL     1       3.698   1.588  17.919  0.00  0.00    +0.000 HD
ENDROOT
BRANCH   4   9
ATOM      9  C   UNL     1       4.370   4.046  16.519  0.00  0.00    +0.000 C 
BRANCH   9  10
ATOM     10  C   UNL     1       5.585   4.546  15.796  0.00  0.00    +0.000 A 
ATOM     11  C   UNL     1       6.613   5.295  16.335  0.00  0.00    +0.000 A 
ATOM     12  N   UNL     1       7.550   5.507  15.359  0.00  0.00    +0.000 N 
ATOM     13  C   UNL     1       7.163   4.900  14.188  0.00  0.00    +0.000 A 
ATOM     14  C   UNL     1       7.820   4.820  12.953  0.00  0.00    +0.000 A 
ATOM     15  C   UNL     1       7.175   4.135  11.919  0.00  0.00    +0.000 A 
ATOM     16  C   UNL     1       5.917   3.569  12.109  0.00  0.00    +0.000 A 
ATOM     17  C   UNL     1       5.275   3.658  13.350  0.00  0.00    +0.000 A 
ATOM     18  C   UNL     1       5.914   4.322  14.418  0.00  0.00    +0.000 A 
ATOM     19  H   UNL     1       8.409   6.025  15.477  0.00  0.00    +0.000 HD
ENDBRANCH   9  10
ENDBRANCH   4   9
BRANCH   7  20
ATOM     20  C   UNL     1       2.636   4.918  20.775  0.00  0.00    +0.000 C 
BRANCH  20  21
ATOM     21  C   UNL     1       2.189   6.256  20.285  0.00  0.00    +0.000 A 
ATOM     22  N   UNL     1       2.370   6.816  19.103  0.00  0.00    +0.000 NA
ATOM     23  C   UNL     1       1.788   8.048  19.232  0.00  0.00    +0.000 A 
ATOM     24  C   UNL     1       1.250   8.205  20.493  0.00  0.00    +0.000 A 
ATOM     25  O   UNL     1       1.504   7.043  21.182  0.00  0.00    +0.000 OA
BRANCH  24  26
ATOM     26  C   UNL     1       0.545   9.282  21.181  0.00  0.00    +0.000 A 
ATOM     27  C   UNL     1       0.437  10.545  20.573  0.00  0.00    +0.000 A 
ATOM     28  C   UNL     1      -0.187  11.614  21.226  0.00  0.00    +0.000 A 
ATOM     29  C   UNL     1      -0.718  11.430  22.497  0.00  0.00    +0.000 A 
ATOM     30 CL   UNL     1      -1.459  12.751  23.313  0.00  0.00    +0.000 Cl
ATOM     31  C   UNL     1      -0.643  10.183  23.113  0.00  0.00    +0.000 A 
ATOM     32  C   UNL     1      -0.016   9.113  22.456  0.00  0.00    +0.000 A 
ENDBRANCH  24  26
ENDBRANCH  20  21
ENDBRANCH   7  20
TORSDOF 5
ENDMDL
MODEL 2
REMARK VINA RESULT:      -9.5      0.627      1.066
REMARK  Name = 
REMARK  5 active torsions:
REMARK  status: ('A' for Active; 'I' for Inactive)
REMARK    1  A    between atoms: C_4  and  C_5
REMARK    2  A    between atoms: C_5  and  C_6
REMARK    3  A    between atoms: N_17  and  C_18
REMARK    4  A    between atoms: C_18  and  C_19
REMARK    5  A    between atoms: C_22  and  C_23
REMARK                            x       y       z     vdW  Elec       q    Type
REMARK                         _______ _______ _______ _____ _____    ______ ____
ROOT
ATOM      1  O   UNL     1       1.134   3.225  19.349  0.00  0.00    +0.000 OA
ATOM      2  C   UNL     1       2.231   3.597  18.972  0.00  0.00    +0.000 C 
ATOM      3  N   UNL     1       2.920   3.032  17.927  0.00  0.00    +0.000 N 
ATOM      4  C   UNL     1       4.106   3.781  17.581  0.00  0.00    +0.000 C 
ATOM      5  C   UNL     1       4.105   4.799  18.725  0.00  0.00    +0.000 C 
ATOM      6  O   UNL     1       4.957   5.659  18.899  0.00  0.00    +0.000 OA
ATOM      7  N   UNL     1       2.962   4.636  19.455  0.00  0.00    +0.000 N 
ATOM      8  H   UNL     1       2.538   2.265  17.386  0.00  0.00    +0.000 HD
ENDROOT
BRANCH   4   9
ATOM      9  C   UNL     1       3.987   4.511  16.241  0.00  0.00    +0.000 C 
BRANCH   9  10
ATOM     10  C   UNL     1       5.317   4.752  15.590  0.00  0.00    +0.000 A 
ATOM     11  C   UNL     1       6.408   5.381  16.156  0.00  0.00    +0.000 A 
ATOM     12  N   UNL     1       7.437   5.358  15.252  0.00  0.00    +0.000 N 
ATOM     13  C   UNL     1       7.046   4.713  14.102  0.00  0.00    +0.000 A 
ATOM     14  C   UNL     1       7.771   4.421  12.940  0.00  0.00    +0.000 A 
ATOM     15  C   UNL     1       7.103   3.751  11.910  0.00  0.00    +0.000 A 
ATOM     16  C   UNL     1       5.761   3.404  12.033  0.00  0.00    +0.000 A 
ATOM     17  C   UNL     1       5.052   3.702  13.202  0.00  0.00    +0.000 A 
ATOM     18  C   UNL     1       5.707   4.356  14.267  0.00  0.00    +0.000 A 
ATOM     19  H   UNL     1       8.356   5.747  15.404  0.00  0.00    +0.000 HD
ENDBRANCH   9  10
ENDBRANCH   4   9
BRANCH   7  20
ATOM     20  C   UNL     1       2.588   5.425  20.609  0.00  0.00    +0.000 C 
BRANCH  20  21
ATOM     21  C   UNL     1       2.095   6.770  20.188  0.00  0.00    +0.000 A 
ATOM     22  N   UNL     1       2.318   7.426  19.065  0.00  0.00    +0.000 NA
ATOM     23  C   UNL     1       1.656   8.612  19.243  0.00  0.00    +0.000 A 
ATOM     24  C   UNL     1       1.031   8.643  20.472  0.00  0.00    +0.000 A 
ATOM     25  O   UNL     1       1.309   7.448  21.091  0.00  0.00    +0.000 OA
BRANCH  24  26
ATOM     26  C   UNL     1       0.221   9.625  21.186  0.00  0.00    +0.000 A 
ATOM     27  C   UNL     1      -0.081   9.424  22.545  0.00  0.00    +0.000 A 
ATOM     28  C   UNL     1      -0.895  10.319  23.247  0.00  0.00    +0.000 A 
ATOM     29  C   UNL     1      -1.416  11.433  22.598  0.00  0.00    +0.000 A 
ATOM     30 CL   UNL     1      -2.442  12.517  23.453  0.00  0.00    +0.000 Cl
ATOM     31  C   UNL     1      -1.114  11.666  21.259  0.00  0.00    +0.000 A 
ATOM     32  C   UNL     1      -0.297  10.767  20.557  0.00  0.00    +0.000 A 
ENDBRANCH  24  26
ENDBRANCH  20  21
ENDBRANCH   7  20
TORSDOF 5
ENDMDL
MODEL 3
REMARK VINA RESULT:      -9.3      6.426     10.432
REMARK  Name = 
REMARK  5 active torsions:
REMARK  status: ('A' for Active; 'I' for Inactive)
REMARK    1  A    between atoms: C_4  and  C_5
REMARK    2  A    between atoms: C_5  and  C_6
REMARK    3  A    between atoms: N_17  and  C_18
REMARK    4  A    between atoms: C_18  and  C_19
REMARK    5  A    between atoms: C_22  and  C_23
REMARK                            x       y       z     vdW  Elec       q    Type
REMARK                         _______ _______ _______ _____ _____    ______ ____
ROOT
ATOM      1  O   UNL     1      -1.918  14.297  20.001  0.00  0.00    +0.000 OA
ATOM      2  C   UNL     1      -2.857  13.818  20.611  0.00  0.00    +0.000 C 
ATOM      3  N   UNL     1      -4.149  13.794  20.145  0.00  0.00    +0.000 N 
ATOM      4  C   UNL     1      -5.023  13.009  20.985  0.00  0.00    +0.000 C 
ATOM      5  C   UNL     1      -4.063  12.712  22.141  0.00  0.00    +0.000 C 
ATOM      6  O   UNL     1      -4.354  12.084  23.149  0.00  0.00    +0.000 OA
ATOM      7  N   UNL     1      -2.826  13.190  21.816  0.00  0.00    +0.000 N 
ATOM      8  H   UNL     1      -4.397  14.169  19.237  0.00  0.00    +0.000 HD
ENDROOT
BRANCH   4   9
ATOM      9  C   UNL     1      -5.465  11.696  20.332  0.00  0.00    +0.000 C 
BRANCH   9  10
ATOM     10  C   UNL     1      -5.356  11.725  18.836  0.00  0.00    +0.000 A 
ATOM     11  C   UNL     1      -6.234  12.331  17.958  0.00  0.00    +0.000 A 
ATOM     12  N   UNL     1      -5.754  12.168  16.686  0.00  0.00    +0.000 N 
ATOM     13  C   UNL     1      -4.566  11.475  16.710  0.00  0.00    +0.000 A 
ATOM     14  C   UNL     1      -3.709  11.117  15.663  0.00  0.00    +0.000 A 
ATOM     15  C   UNL     1      -2.557  10.394  15.986  0.00  0.00    +0.000 A 
ATOM     16  C   UNL     1      -2.285  10.029  17.302  0.00  0.00    +0.000 A 
ATOM     17  C   UNL     1      -3.153  10.396  18.337  0.00  0.00    +0.000 A 
ATOM     18  C   UNL     1      -4.310  11.147  18.042  0.00  0.00    +0.000 A 
ATOM     19  H   UNL     1      -6.196  12.513  15.846  0.00  0.00    +0.000 HD
ENDBRANCH   9  10
ENDBRANCH   4   9
BRANCH   7  20
ATOM     20  C   UNL     1      -1.646  13.085  22.646  0.00  0.00    +0.000 C 
BRANCH  20  21
ATOM     21  C   UNL     1      -1.100  11.696  22.611  0.00  0.00    +0.000 A 
ATOM     22  N   UNL     1      -1.162  10.752  23.533  0.00  0.00    +0.000 NA
ATOM     23  C   UNL     1      -0.465   9.711  22.981  0.00  0.00    +0.000 A 
ATOM     24  C   UNL     1      -0.006  10.042  21.723  0.00  0.00    +0.000 A 
ATOM     25  O   UNL     1      -0.417  11.330  21.475  0.00  0.00    +0.000 OA
BRANCH  24  26
ATOM     26  C   UNL     1       0.784   9.356  20.705  0.00  0.00    +0.000 A 
ATOM     27  C   UNL     1       0.970   9.953  19.446  0.00  0.00    +0.000 A 
ATOM     28  C   UNL     1       1.678   9.302  18.431  0.00  0.00    +0.000 A 
ATOM     29  C   UNL     1       2.216   8.041  18.665  0.00  0.00    +0.000 A 
ATOM     30 CL   UNL     1       3.061   7.226  17.407  0.00  0.00    +0.000 Cl
ATOM     31  C   UNL     1       2.065   7.437  19.911  0.00  0.00    +0.000 A 
ATOM     32  C   UNL     1       1.354   8.092  20.926  0.00  0.00    +0.000 A 
ENDBRANCH  24  26
ENDBRANCH  20  21
ENDBRANCH   7  20
TORSDOF 5
ENDMDL
MODEL 4
REMARK VINA RESULT:      -9.1      4.053      6.797
REMARK  Name = 
REMARK  5 active torsions:
REMARK  status: ('A' for Active; 'I' for Inactive)
REMARK    1  A    between atoms: C_4  and  C_5
REMARK    2  A    between atoms: C_5  and  C_6
REMARK    3  A    between atoms: N_17  and  C_18
REMARK    4  A    between atoms: C_18  and  C_19
REMARK    5  A    between atoms: C_22  and  C_23
REMARK                            x       y       z     vdW  Elec       q    Type
REMARK                         _______ _______ _______ _____ _____    ______ ____
ROOT
ATOM      1  O   UNL     1       0.330   8.782  21.510  0.00  0.00    +0.000 OA
ATOM      2  C   UNL     1       1.018   8.690  20.509  0.00  0.00    +0.000 C 
ATOM      3  N   UNL     1       1.995   7.741  20.329  0.00  0.00    +0.000 N 
ATOM      4  C   UNL     1       2.528   7.748  18.987  0.00  0.00    +0.000 C 
ATOM      5  C   UNL     1       1.824   8.994  18.441  0.00  0.00    +0.000 C 
ATOM      6  O   UNL     1       1.979   9.451  17.318  0.00  0.00    +0.000 OA
ATOM      7  N   UNL     1       0.944   9.447  19.383  0.00  0.00    +0.000 N 
ATOM      8  H   UNL     1       2.191   7.036  21.030  0.00  0.00    +0.000 HD
ENDROOT
BRANCH   4   9
ATOM      9  C   UNL     1       2.114   6.522  18.169  0.00  0.00    +0.000 C 
BRANCH   9  10
ATOM     10  C   UNL     1       2.867   5.283  18.557  0.00  0.00    +0.000 A 
ATOM     11  C   UNL     1       4.045   4.828  17.997  0.00  0.00    +0.000 A 
ATOM     12  N   UNL     1       4.427   3.692  18.661  0.00  0.00    +0.000 N 
ATOM     13  C   UNL     1       3.526   3.397  19.657  0.00  0.00    +0.000 A 
ATOM     14  C   UNL     1       3.533   2.364  20.603  0.00  0.00    +0.000 A 
ATOM     15  C   UNL     1       2.465   2.303  21.504  0.00  0.00    +0.000 A 
ATOM     16  C   UNL     1       1.426   3.227  21.447  0.00  0.00    +0.000 A 
ATOM     17  C   UNL     1       1.436   4.254  20.497  0.00  0.00    +0.000 A 
ATOM     18  C   UNL     1       2.513   4.355  19.591  0.00  0.00    +0.000 A 
ATOM     19  H   UNL     1       5.255   3.150  18.461  0.00  0.00    +0.000 HD
ENDBRANCH   9  10
ENDBRANCH   4   9
BRANCH   7  20
ATOM     20  C   UNL     1       0.078  10.596  19.232  0.00  0.00    +0.000 C 
BRANCH  20  21
ATOM     21  C   UNL     1       0.686  11.800  19.871  0.00  0.00    +0.000 A 
ATOM     22  N   UNL     1       0.281  12.478  20.929  0.00  0.00    +0.000 NA
ATOM     23  C   UNL     1       1.189  13.497  21.032  0.00  0.00    +0.000 A 
ATOM     24  C   UNL     1       2.140  13.406  20.037  0.00  0.00    +0.000 A 
ATOM     25  O   UNL     1       1.822  12.304  19.280  0.00  0.00    +0.000 OA
BRANCH  24  26
ATOM     26  C   UNL     1       3.304  14.200  19.654  0.00  0.00    +0.000 A 
ATOM     27  C   UNL     1       4.093  14.806  20.648  0.00  0.00    +0.000 A 
ATOM     28  C   UNL     1       5.185  15.614  20.315  0.00  0.00    +0.000 A 
ATOM     29  C   UNL     1       5.506  15.824  18.979  0.00  0.00    +0.000 A 
ATOM     30 CL   UNL     1       6.830  16.842  18.568  0.00  0.00    +0.000 Cl
ATOM     31  C   UNL     1       4.754  15.217  17.976  0.00  0.00    +0.000 A 
ATOM     32  C   UNL     1       3.659  14.408  18.312  0.00  0.00    +0.000 A 
ENDBRANCH  24  26
ENDBRANCH  20  21
ENDBRANCH   7  20
TORSDOF 5
ENDMDL
MODEL 5
REMARK VINA RESULT:      -9.1      3.853      5.544
REMARK  Name = 
REMARK  5 active torsions:
REMARK  status: ('A' for Active; 'I' for Inactive)
REMARK    1  A    between atoms: C_4  and  C_5
REMARK    2  A    between atoms: C_5  and  C_6
REMARK    3  A    between atoms: N_17  and  C_18
REMARK    4  A    between atoms: C_18  and  C_19
REMARK    5  A    between atoms: C_22  and  C_23
REMARK                            x       y       z     vdW  Elec       q    Type
REMARK                         _______ _______ _______ _____ _____    ______ ____
ROOT
ATOM      1  O   UNL     1       0.169   8.722  21.338  0.00  0.00    +0.000 OA
ATOM      2  C   UNL     1       1.002   8.481  20.484  0.00  0.00    +0.000 C 
ATOM      3  N   UNL     1       2.017   7.566  20.633  0.00  0.00    +0.000 N 
ATOM      4  C   UNL     1       2.747   7.350  19.405  0.00  0.00    +0.000 C 
ATOM      5  C   UNL     1       2.105   8.434  18.535  0.00  0.00    +0.000 C 
ATOM      6  O   UNL     1       2.417   8.680  17.378  0.00  0.00    +0.000 OA
ATOM      7  N   UNL     1       1.082   9.009  19.234  0.00  0.00    +0.000 N 
ATOM      8  H   UNL     1       2.121   7.016  21.477  0.00  0.00    +0.000 HD
ENDROOT
BRANCH   4   9
ATOM      9  C   UNL     1       2.490   5.973  18.788  0.00  0.00    +0.000 C 
BRANCH   9  10
ATOM     10  C   UNL     1       3.751   5.192  18.562  0.00  0.00    +0.000 A 
ATOM     11  C   UNL     1       4.231   4.160  19.344  0.00  0.00    +0.000 A 
ATOM     12  N   UNL     1       5.382   3.686  18.774  0.00  0.00    +0.000 N 
ATOM     13  C   UNL     1       5.664   4.381  17.621  0.00  0.00    +0.000 A 
ATOM     14  C   UNL     1       6.706   4.217  16.701  0.00  0.00    +0.000 A 
ATOM     15  C   UNL     1       6.749   5.087  15.608  0.00  0.00    +0.000 A 
ATOM     16  C   UNL     1       5.798   6.092  15.454  0.00  0.00    +0.000 A 
ATOM     17  C   UNL     1       4.762   6.241  16.383  0.00  0.00    +0.000 A 
ATOM     18  C   UNL     1       4.680   5.361  17.482  0.00  0.00    +0.000 A 
ATOM     19  H   UNL     1       5.944   2.928  19.136  0.00  0.00    +0.000 HD
ENDBRANCH   9  10
ENDBRANCH   4   9
BRANCH   7  20
ATOM     20  C   UNL     1       0.222  10.063  18.742  0.00  0.00    +0.000 C 
BRANCH  20  21
ATOM     21  C   UNL     1       0.582  11.370  19.368  0.00  0.00    +0.000 A 
ATOM     22  N   UNL     1      -0.092  12.087  20.248  0.00  0.00    +0.000 NA
ATOM     23  C   UNL     1       0.689  13.197  20.432  0.00  0.00    +0.000 A 
ATOM     24  C   UNL     1       1.833  13.121  19.665  0.00  0.00    +0.000 A 
ATOM     25  O   UNL     1       1.773  11.935  18.974  0.00  0.00    +0.000 OA
BRANCH  24  26
ATOM     26  C   UNL     1       2.984  13.994  19.451  0.00  0.00    +0.000 A 
ATOM     27  C   UNL     1       3.374  14.324  18.141  0.00  0.00    +0.000 A 
ATOM     28  C   UNL     1       4.501  15.116  17.897  0.00  0.00    +0.000 A 
ATOM     29  C   UNL     1       5.252  15.594  18.965  0.00  0.00    +0.000 A 
ATOM     30 CL   UNL     1       6.655  16.543  18.666  0.00  0.00    +0.000 Cl
ATOM     31  C   UNL     1       4.874  15.299  20.273  0.00  0.00    +0.000 A 
ATOM     32  C   UNL     1       3.744  14.505  20.514  0.00  0.00    +0.000 A 
ENDBRANCH  24  26
ENDBRANCH  20  21
ENDBRANCH   7  20
TORSDOF 5
ENDMDL
MODEL 6
REMARK VINA RESULT:      -9.1      1.738      2.538
REMARK  Name = 
REMARK  5 active torsions:
REMARK  status: ('A' for Active; 'I' for Inactive)
REMARK    1  A    between atoms: C_4  and  C_5
REMARK    2  A    between atoms: C_5  and  C_6
REMARK    3  A    between atoms: N_17  and  C_18
REMARK    4  A    between atoms: C_18  and  C_19
REMARK    5  A    between atoms: C_22  and  C_23
REMARK                            x       y       z     vdW  Elec       q    Type
REMARK                         _______ _______ _______ _____ _____    ______ ____
ROOT
ATOM      1  O   UNL     1       1.060   4.137  17.565  0.00  0.00    +0.000 OA
ATOM      2  C   UNL     1       1.702   3.470  18.357  0.00  0.00    +0.000 C 
ATOM      3  N   UNL     1       2.609   2.504  17.994  0.00  0.00    +0.000 N 
ATOM      4  C   UNL     1       3.355   1.998  19.123  0.00  0.00    +0.000 C 
ATOM      5  C   UNL     1       2.606   2.704  20.257  0.00  0.00    +0.000 C 
ATOM      6  O   UNL     1       2.849   2.569  21.448  0.00  0.00    +0.000 OA
ATOM      7  N   UNL     1       1.693   3.561  19.712  0.00  0.00    +0.000 N 
ATOM      8  H   UNL     1       2.813   2.299  17.023  0.00  0.00    +0.000 HD
ENDROOT
BRANCH   4   9
ATOM      9  C   UNL     1       4.821   2.438  19.120  0.00  0.00    +0.000 C 
BRANCH   9  10
ATOM     10  C   UNL     1       5.008   3.837  18.615  0.00  0.00    +0.000 A 
ATOM     11  C   UNL     1       5.043   4.989  19.376  0.00  0.00    +0.000 A 
ATOM     12  N   UNL     1       5.277   6.051  18.543  0.00  0.00    +0.000 N 
ATOM     13  C   UNL     1       5.408   5.617  17.245  0.00  0.00    +0.000 A 
ATOM     14  C   UNL     1       5.689   6.336  16.077  0.00  0.00    +0.000 A 
ATOM     15  C   UNL     1       5.755   5.624  14.876  0.00  0.00    +0.000 A 
ATOM     16  C   UNL     1       5.531   4.250  14.845  0.00  0.00    +0.000 A 
ATOM     17  C   UNL     1       5.252   3.546  16.021  0.00  0.00    +0.000 A 
ATOM     18  C   UNL     1       5.204   4.236  17.251  0.00  0.00    +0.000 A 
ATOM     19  H   UNL     1       5.354   7.015  18.833  0.00  0.00    +0.000 HD
ENDBRANCH   9  10
ENDBRANCH   4   9
BRANCH   7  20
ATOM     20  C   UNL     1       0.805   4.422  20.462  0.00  0.00    +0.000 C 
BRANCH  20  21
ATOM     21  C   UNL     1       1.250   5.845  20.371  0.00  0.00    +0.000 A 
ATOM     22  N   UNL     1       2.312   6.349  19.771  0.00  0.00    +0.000 NA
ATOM     23  C   UNL     1       2.237   7.688  20.044  0.00  0.00    +0.000 A 
ATOM     24  C   UNL     1       1.116   7.971  20.796  0.00  0.00    +0.000 A 
ATOM     25  O   UNL     1       0.468   6.778  21.010  0.00  0.00    +0.000 OA
BRANCH  24  26
ATOM     26  C   UNL     1       0.549   9.184  21.377  0.00  0.00    +0.000 A 
ATOM     27  C   UNL     1      -0.194   9.107  22.568  0.00  0.00    +0.000 A 
ATOM     28  C   UNL     1      -0.793  10.241  23.125  0.00  0.00    +0.000 A 
ATOM     29  C   UNL     1      -0.653  11.474  22.497  0.00  0.00    +0.000 A 
ATOM     30 CL   UNL     1      -1.416  12.864  23.165  0.00  0.00    +0.000 Cl
ATOM     31  C   UNL     1       0.095  11.581  21.328  0.00  0.00    +0.000 A 
ATOM     32  C   UNL     1       0.695  10.442  20.772  0.00  0.00    +0.000 A 
ENDBRANCH  24  26
ENDBRANCH  20  21
ENDBRANCH   7  20
TORSDOF 5
ENDMDL
MODEL 7
REMARK VINA RESULT:      -9.1      4.300      6.973
REMARK  Name = 
REMARK  5 active torsions:
REMARK  status: ('A' for Active; 'I' for Inactive)
REMARK    1  A    between atoms: C_4  and  C_5
REMARK    2  A    between atoms: C_5  and  C_6
REMARK    3  A    between atoms: N_17  and  C_18
REMARK    4  A    between atoms: C_18  and  C_19
REMARK    5  A    between atoms: C_22  and  C_23
REMARK                            x       y       z     vdW  Elec       q    Type
REMARK                         _______ _______ _______ _____ _____    ______ ____
ROOT
ATOM      1  O   UNL     1       2.683  12.749  18.302  0.00  0.00    +0.000 OA
ATOM      2  C   UNL     1       1.959  11.769  18.305  0.00  0.00    +0.000 C 
ATOM      3  N   UNL     1       2.361  10.512  17.922  0.00  0.00    +0.000 N 
ATOM      4  C   UNL     1       1.360   9.508  18.195  0.00  0.00    +0.000 C 
ATOM      5  C   UNL     1       0.210  10.413  18.647  0.00  0.00    +0.000 C 
ATOM      6  O   UNL     1      -0.905  10.024  18.965  0.00  0.00    +0.000 OA
ATOM      7  N   UNL     1       0.665  11.699  18.713  0.00  0.00    +0.000 N 
ATOM      8  H   UNL     1       3.310  10.322  17.623  0.00  0.00    +0.000 HD
ENDROOT
BRANCH   4   9
ATOM      9  C   UNL     1       1.751   8.563  19.335  0.00  0.00    +0.000 C 
BRANCH   9  10
ATOM     10  C   UNL     1       2.458   7.332  18.852  0.00  0.00    +0.000 A 
ATOM     11  C   UNL     1       3.279   7.235  17.746  0.00  0.00    +0.000 A 
ATOM     12  N   UNL     1       3.762   5.955  17.678  0.00  0.00    +0.000 N 
ATOM     13  C   UNL     1       3.282   5.208  18.728  0.00  0.00    +0.000 A 
ATOM     14  C   UNL     1       3.537   3.877  19.080  0.00  0.00    +0.000 A 
ATOM     15  C   UNL     1       2.893   3.371  20.213  0.00  0.00    +0.000 A 
ATOM     16  C   UNL     1       2.015   4.160  20.950  0.00  0.00    +0.000 A 
ATOM     17  C   UNL     1       1.772   5.489  20.585  0.00  0.00    +0.000 A 
ATOM     18  C   UNL     1       2.428   6.033  19.461  0.00  0.00    +0.000 A 
ATOM     19  H   UNL     1       4.389   5.604  16.968  0.00  0.00    +0.000 HD
ENDBRANCH   9  10
ENDBRANCH   4   9
BRANCH   7  20
ATOM     20  C   UNL     1      -0.121  12.844  19.118  0.00  0.00    +0.000 C 
BRANCH  20  21
ATOM     21  C   UNL     1      -0.591  12.686  20.527  0.00  0.00    +0.000 A 
ATOM     22  N   UNL     1       0.102  12.377  21.608  0.00  0.00    +0.000 NA
ATOM     23  C   UNL     1      -0.841  12.334  22.599  0.00  0.00    +0.000 A 
ATOM     24  C   UNL     1      -2.091  12.633  22.098  0.00  0.00    +0.000 A 
ATOM     25  O   UNL     1      -1.936  12.866  20.752  0.00  0.00    +0.000 OA
BRANCH  24  26
ATOM     26  C   UNL     1      -3.432  12.718  22.668  0.00  0.00    +0.000 A 
ATOM     27  C   UNL     1      -4.521  13.055  21.845  0.00  0.00    +0.000 A 
ATOM     28  C   UNL     1      -5.811  13.195  22.368  0.00  0.00    +0.000 A 
ATOM     29  C   UNL     1      -6.030  12.995  23.726  0.00  0.00    +0.000 A 
ATOM     30 CL   UNL     1      -7.610  13.197  24.375  0.00  0.00    +0.000 Cl
ATOM     31  C   UNL     1      -4.972  12.639  24.559  0.00  0.00    +0.000 A 
ATOM     32  C   UNL     1      -3.680  12.499  24.032  0.00  0.00    +0.000 A 
ENDBRANCH  24  26
ENDBRANCH  20  21
ENDBRANCH   7  20
TORSDOF 5
ENDMDL
MODEL 8
REMARK VINA RESULT:      -8.9      3.540      5.833
REMARK  Name = 
REMARK  5 active torsions:
REMARK  status: ('A' for Active; 'I' for Inactive)
REMARK    1  A    between atoms: C_4  and  C_5
REMARK    2  A    between atoms: C_5  and  C_6
REMARK    3  A    between atoms: N_17  and  C_18
REMARK    4  A    between atoms: C_18  and  C_19
REMARK    5  A    between atoms: C_22  and  C_23
REMARK                            x       y       z     vdW  Elec       q    Type
REMARK                         _______ _______ _______ _____ _____    ______ ____
ROOT
ATOM      1  O   UNL     1       1.093   7.467  21.164  0.00  0.00    +0.000 OA
ATOM      2  C   UNL     1       1.689   7.824  20.163  0.00  0.00    +0.000 C 
ATOM      3  N   UNL     1       2.845   7.240  19.704  0.00  0.00    +0.000 N 
ATOM      4  C   UNL     1       3.235   7.738  18.406  0.00  0.00    +0.000 C 
ATOM      5  C   UNL     1       2.205   8.860  18.245  0.00  0.00    +0.000 C 
ATOM      6  O   UNL     1       2.141   9.622  17.291  0.00  0.00    +0.000 OA
ATOM      7  N   UNL     1       1.332   8.806  19.294  0.00  0.00    +0.000 N 
ATOM      8  H   UNL     1       3.269   6.450  20.175  0.00  0.00    +0.000 HD
ENDROOT
BRANCH   4   9
ATOM      9  C   UNL     1       3.056   6.709  17.287  0.00  0.00    +0.000 C 
BRANCH   9  10
ATOM     10  C   UNL     1       3.589   5.355  17.652  0.00  0.00    +0.000 A 
ATOM     11  C   UNL     1       4.917   4.981  17.708  0.00  0.00    +0.000 A 
ATOM     12  N   UNL     1       4.982   3.678  18.124  0.00  0.00    +0.000 N 
ATOM     13  C   UNL     1       3.718   3.189  18.356  0.00  0.00    +0.000 A 
ATOM     14  C   UNL     1       3.308   1.935  18.826  0.00  0.00    +0.000 A 
ATOM     15  C   UNL     1       1.934   1.710  18.958  0.00  0.00    +0.000 A 
ATOM     16  C   UNL     1       1.011   2.694  18.617  0.00  0.00    +0.000 A 
ATOM     17  C   UNL     1       1.438   3.942  18.150  0.00  0.00    +0.000 A 
ATOM     18  C   UNL     1       2.819   4.205  18.030  0.00  0.00    +0.000 A 
ATOM     19  H   UNL     1       5.832   3.148  18.255  0.00  0.00    +0.000 HD
ENDBRANCH   9  10
ENDBRANCH   4   9
BRANCH   7  20
ATOM     20  C   UNL     1       0.204   9.691  19.489  0.00  0.00    +0.000 C 
BRANCH  20  21
ATOM     21  C   UNL     1       0.661  11.025  19.980  0.00  0.00    +0.000 A 
ATOM     22  N   UNL     1       1.168  11.352  21.154  0.00  0.00    +0.000 NA
ATOM     23  C   UNL     1       1.365  12.703  21.060  0.00  0.00    +0.000 A 
ATOM     24  C   UNL     1       0.985  13.167  19.818  0.00  0.00    +0.000 A 
ATOM     25  O   UNL     1       0.529  12.081  19.109  0.00  0.00    +0.000 OA
BRANCH  24  26
ATOM     26  C   UNL     1       0.955  14.478  19.177  0.00  0.00    +0.000 A 
ATOM     27  C   UNL     1       2.156  15.081  18.765  0.00  0.00    +0.000 A 
ATOM     28  C   UNL     1       2.169  16.358  18.193  0.00  0.00    +0.000 A 
ATOM     29  C   UNL     1       0.975  17.048  18.021  0.00  0.00    +0.000 A 
ATOM     30 CL   UNL     1       0.993  18.631  17.346  0.00  0.00    +0.000 Cl
ATOM     31  C   UNL     1      -0.231  16.464  18.401  0.00  0.00    +0.000 A 
ATOM     32  C   UNL     1      -0.241  15.184  18.974  0.00  0.00    +0.000 A 
ENDBRANCH  24  26
ENDBRANCH  20  21
ENDBRANCH   7  20
TORSDOF 5
ENDMDL
MODEL 9
REMARK VINA RESULT:      -8.9      3.676      6.343
REMARK  Name = 
REMARK  5 active torsions:
REMARK  status: ('A' for Active; 'I' for Inactive)
REMARK    1  A    between atoms: C_4  and  C_5
REMARK    2  A    between atoms: C_5  and  C_6
REMARK    3  A    between atoms: N_17  and  C_18
REMARK    4  A    between atoms: C_18  and  C_19
REMARK    5  A    between atoms: C_22  and  C_23
REMARK                            x       y       z     vdW  Elec       q    Type
REMARK                         _______ _______ _______ _____ _____    ______ ____
ROOT
ATOM      1  O   UNL     1       2.328  11.484  17.831  0.00  0.00    +0.000 OA
ATOM      2  C   UNL     1       1.901  10.470  18.353  0.00  0.00    +0.000 C 
ATOM      3  N   UNL     1       2.039   9.211  17.820  0.00  0.00    +0.000 N 
ATOM      4  C   UNL     1       1.602   8.177  18.728  0.00  0.00    +0.000 C 
ATOM      5  C   UNL     1       1.006   9.051  19.837  0.00  0.00    +0.000 C 
ATOM      6  O   UNL     1       0.462   8.627  20.847  0.00  0.00    +0.000 OA
ATOM      7  N   UNL     1       1.260  10.361  19.546  0.00  0.00    +0.000 N 
ATOM      8  H   UNL     1       2.531   9.050  16.948  0.00  0.00    +0.000 HD
ENDROOT
BRANCH   4   9
ATOM      9  C   UNL     1       2.757   7.345  19.292  0.00  0.00    +0.000 C 
BRANCH   9  10
ATOM     10  C   UNL     1       2.954   6.052  18.557  0.00  0.00    +0.000 A 
ATOM     11  C   UNL     1       3.830   5.824  17.514  0.00  0.00    +0.000 A 
ATOM     12  N   UNL     1       3.737   4.506  17.154  0.00  0.00    +0.000 N 
ATOM     13  C   UNL     1       2.823   3.857  17.951  0.00  0.00    +0.000 A 
ATOM     14  C   UNL     1       2.438   2.511  17.970  0.00  0.00    +0.000 A 
ATOM     15  C   UNL     1       1.463   2.128  18.896  0.00  0.00    +0.000 A 
ATOM     16  C   UNL     1       0.887   3.060  19.755  0.00  0.00    +0.000 A 
ATOM     17  C   UNL     1       1.285   4.401  19.724  0.00  0.00    +0.000 A 
ATOM     18  C   UNL     1       2.284   4.810  18.815  0.00  0.00    +0.000 A 
ATOM     19  H   UNL     1       4.268   4.063  16.418  0.00  0.00    +0.000 HD
ENDBRANCH   9  10
ENDBRANCH   4   9
BRANCH   7  20
ATOM     20  C   UNL     1       0.872  11.488  20.365  0.00  0.00    +0.000 C 
BRANCH  20  21
ATOM     21  C   UNL     1      -0.532  11.899  20.061  0.00  0.00    +0.000 A 
ATOM     22  N   UNL     1      -1.080  12.201  18.899  0.00  0.00    +0.000 NA
ATOM     23  C   UNL     1      -2.367  12.538  19.222  0.00  0.00    +0.000 A 
ATOM     24  C   UNL     1      -2.577  12.419  20.580  0.00  0.00    +0.000 A 
ATOM     25  O   UNL     1      -1.389  12.001  21.132  0.00  0.00    +0.000 OA
BRANCH  24  26
ATOM     26  C   UNL     1      -3.712  12.653  21.468  0.00  0.00    +0.000 A 
ATOM     27  C   UNL     1      -3.501  12.777  22.852  0.00  0.00    +0.000 A 
ATOM     28  C   UNL     1      -4.571  12.952  23.737  0.00  0.00    +0.000 A 
ATOM     29  C   UNL     1      -5.870  13.010  23.245  0.00  0.00    +0.000 A 
ATOM     30 CL   UNL     1      -7.188  13.195  24.334  0.00  0.00    +0.000 Cl
ATOM     31  C   UNL     1      -6.103  12.912  21.875  0.00  0.00    +0.000 A 
ATOM     32  C   UNL     1      -5.029  12.736  20.991  0.00  0.00    +0.000 A 
ENDBRANCH  24  26
ENDBRANCH  20  21
ENDBRANCH   7  20
TORSDOF 5
ENDMDL
