MODEL 1
REMARK VINA RESULT:      -8.2      0.000      0.000
REMARK  Name = 
REMARK  6 active torsions:
REMARK  status: ('A' for Active; 'I' for Inactive)
REMARK    1  A    between atoms: C_2  and  C_18
REMARK    2  A    between atoms: N_3  and  C_4
REMARK    3  A    between atoms: C_8  and  C_9
REMARK    4  A    between atoms: C_11  and  C_12
REMARK    5  A    between atoms: CA_22  and  C_23
REMARK    6  A    between atoms: C_23  and  OXT_25
REMARK                            x       y       z     vdW  Elec       q    Type
REMARK                         _______ _______ _______ _____ _____    ______ ____
ROOT
ATOM      1  C   UNL     1       4.268   4.452  17.658  0.00  0.00    +0.000 A 
ATOM      2  C   UNL     1       4.288   3.401  18.576  0.00  0.00    +0.000 A 
ATOM      3  C   UNL     1       3.648   3.526  19.809  0.00  0.00    +0.000 A 
ATOM      4  C   UNL     1       2.987   4.705  20.141  0.00  0.00    +0.000 A 
ATOM      5  C   UNL     1       2.977   5.790  19.252  0.00  0.00    +0.000 A 
ATOM      6  C   UNL     1       3.635   5.655  18.016  0.00  0.00    +0.000 A 
ENDROOT
BRANCH   5   7
ATOM      7  C   UNL     1       2.296   7.038  19.602  0.00  0.00    +0.000 A 
ATOM      8  N   UNL     1       1.981   8.047  18.812  0.00  0.00    +0.000 NA
ATOM      9  C   UNL     1       1.383   8.951  19.659  0.00  0.00    +0.000 A 
ATOM     10  N   UNL     1       1.286   8.548  20.929  0.00  0.00    +0.000 NA
ATOM     11  N   UNL     1       1.859   7.340  20.867  0.00  0.00    +0.000 N 
ATOM     12  H   UNL     1       1.912   6.776  21.705  0.00  0.00    +0.000 HD
BRANCH   9  13
ATOM     13  C   UNL     1       0.843  10.303  19.225  0.00  0.00    +0.000 C 
ATOM     14  C   UNL     1      -0.441  10.802  19.852  0.00  0.00    +0.000 C 
ATOM     15  C   UNL     1      -0.440  10.374  18.424  0.00  0.00    +0.000 C 
ENDBRANCH   9  13
ENDBRANCH   5   7
BRANCH   1  18
ATOM     16  O   UNL     1       6.803   5.633  16.648  0.00  0.00    +0.000 OA
ATOM     17  C   UNL     1       6.041   4.960  15.971  0.00  0.00    +0.000 C 
ATOM     18  N   UNL     1       4.856   4.361  16.377  0.00  0.00    +0.000 N 
ATOM     19  H   UNL     1       4.431   3.689  15.750  0.00  0.00    +0.000 HD
BRANCH  17  20
ATOM     20  C   UNL     1       6.435   4.674  14.566  0.00  0.00    +0.000 A 
ATOM     21  C   UNL     1       7.523   5.323  13.981  0.00  0.00    +0.000 A 
ATOM     22  C   UNL     1       7.821   5.032  12.661  0.00  0.00    +0.000 A 
ATOM     23  N   UNL     1       7.120   4.161  11.902  0.00  0.00    +0.000 NA
ATOM     24  CA  UNL     1       6.079   3.524  12.519  0.00  0.00    +0.000 A 
ATOM     25  C   UNL     1       5.710   3.731  13.837  0.00  0.00    +0.000 A 
BRANCH  24  26
ATOM     26  C   UNL     1       5.299   2.587  11.654  0.00  0.00    +0.000 C 
ATOM     27  O   UNL     1       4.222   2.844  11.151  0.00  0.00    +0.000 OA
BRANCH  26  28
ATOM     28  OXT UNL     1       5.965   1.418  11.486  0.00  0.00    +0.000 OA
ATOM     29  HXT UNL     1       6.220   1.059  12.367  0.00  0.00    +0.000 HD
ENDBRANCH  26  28
ENDBRANCH  24  26
ENDBRANCH  17  20
ENDBRANCH   1  18
TORSDOF 6
ENDMDL
MODEL 2
REMARK VINA RESULT:      -8.2      5.007      7.841
REMARK  Name = 
REMARK  6 active torsions:
REMARK  status: ('A' for Active; 'I' for Inactive)
REMARK    1  A    between atoms: C_2  and  C_18
REMARK    2  A    between atoms: N_3  and  C_4
REMARK    3  A    between atoms: C_8  and  C_9
REMARK    4  A    between atoms: C_11  and  C_12
REMARK    5  A    between atoms: CA_22  and  C_23
REMARK    6  A    between atoms: C_23  and  OXT_25
REMARK                            x       y       z     vdW  Elec       q    Type
REMARK                         _______ _______ _______ _____ _____    ______ ____
ROOT
ATOM      1  C   UNL     1       6.815   6.396  16.800  0.00  0.00    +0.000 A 
ATOM      2  C   UNL     1       7.070   5.813  15.559  0.00  0.00    +0.000 A 
ATOM      3  C   UNL     1       6.545   4.560  15.243  0.00  0.00    +0.000 A 
ATOM      4  C   UNL     1       5.766   3.873  16.170  0.00  0.00    +0.000 A 
ATOM      5  C   UNL     1       5.518   4.419  17.438  0.00  0.00    +0.000 A 
ATOM      6  C   UNL     1       6.063   5.679  17.746  0.00  0.00    +0.000 A 
ENDROOT
BRANCH   5   7
ATOM      7  C   UNL     1       4.713   3.693  18.421  0.00  0.00    +0.000 A 
ATOM      8  N   UNL     1       3.397   3.636  18.517  0.00  0.00    +0.000 NA
ATOM      9  C   UNL     1       3.184   2.842  19.620  0.00  0.00    +0.000 A 
ATOM     10  N   UNL     1       4.296   2.380  20.199  0.00  0.00    +0.000 NA
ATOM     11  N   UNL     1       5.242   2.922  19.423  0.00  0.00    +0.000 N 
ATOM     12  H   UNL     1       6.215   2.723  19.620  0.00  0.00    +0.000 HD
BRANCH   9  13
ATOM     13  C   UNL     1       1.812   2.476  20.158  0.00  0.00    +0.000 C 
ATOM     14  C   UNL     1       0.779   3.572  20.308  0.00  0.00    +0.000 C 
ATOM     15  C   UNL     1       1.389   2.968  21.526  0.00  0.00    +0.000 C 
ENDBRANCH   9  13
ENDBRANCH   5   7
BRANCH   1  18
ATOM     16  O   UNL     1       8.643   7.217  18.997  0.00  0.00    +0.000 OA
ATOM     17  C   UNL     1       8.123   7.994  18.211  0.00  0.00    +0.000 C 
ATOM     18  N   UNL     1       7.279   7.684  17.152  0.00  0.00    +0.000 N 
ATOM     19  H   UNL     1       7.076   8.417  16.484  0.00  0.00    +0.000 HD
BRANCH  17  20
ATOM     20  C   UNL     1       8.468   9.434  18.332  0.00  0.00    +0.000 A 
ATOM     21  C   UNL     1       7.993  10.365  17.408  0.00  0.00    +0.000 A 
ATOM     22  C   UNL     1       8.373  11.687  17.562  0.00  0.00    +0.000 A 
ATOM     23  N   UNL     1       9.180  12.131  18.551  0.00  0.00    +0.000 NA
ATOM     24  CA  UNL     1       9.603  11.194  19.452  0.00  0.00    +0.000 A 
ATOM     25  C   UNL     1       9.266   9.853  19.397  0.00  0.00    +0.000 A 
BRANCH  24  26
ATOM     26  C   UNL     1      10.518  11.701  20.520  0.00  0.00    +0.000 C 
ATOM     27  O   UNL     1      11.656  12.087  20.331  0.00  0.00    +0.000 OA
BRANCH  26  28
ATOM     28  OXT UNL     1       9.902  11.694  21.728  0.00  0.00    +0.000 OA
ATOM     29  HXT UNL     1      10.146  10.872  22.213  0.00  0.00    +0.000 HD
ENDBRANCH  26  28
ENDBRANCH  24  26
ENDBRANCH  17  20
ENDBRANCH   1  18
TORSDOF 6
ENDMDL
MODEL 3
REMARK VINA RESULT:      -8.0      5.013      7.701
REMARK  Name = 
REMARK  6 active torsions:
REMARK  status: ('A' for Active; 'I' for Inactive)
REMARK    1  A    between atoms: C_2  and  C_18
REMARK    2  A    between atoms: N_3  and  C_4
REMARK    3  A    between atoms: C_8  and  C_9
REMARK    4  A    between atoms: C_11  and  C_12
REMARK    5  A    between atoms: CA_22  and  C_23
REMARK    6  A    between atoms: C_23  and  OXT_25
REMARK                            x       y       z     vdW  Elec       q    Type
REMARK                         _______ _______ _______ _____ _____    ______ ____
ROOT
ATOM      1  C   UNL     1       6.668   6.575  16.812  0.00  0.00    +0.000 A 
ATOM      2  C   UNL     1       7.284   5.756  15.866  0.00  0.00    +0.000 A 
ATOM      3  C   UNL     1       6.720   4.530  15.514  0.00  0.00    +0.000 A 
ATOM      4  C   UNL     1       5.536   4.106  16.111  0.00  0.00    +0.000 A 
ATOM      5  C   UNL     1       4.909   4.893  17.089  0.00  0.00    +0.000 A 
ATOM      6  C   UNL     1       5.495   6.122  17.442  0.00  0.00    +0.000 A 
ENDROOT
BRANCH   5   7
ATOM      7  C   UNL     1       3.673   4.444  17.730  0.00  0.00    +0.000 A 
ATOM      8  N   UNL     1       3.345   4.508  19.007  0.00  0.00    +0.000 NA
ATOM      9  C   UNL     1       2.097   3.930  19.053  0.00  0.00    +0.000 A 
ATOM     10  N   UNL     1       1.620   3.535  17.870  0.00  0.00    +0.000 NA
ATOM     11  N   UNL     1       2.624   3.875  17.054  0.00  0.00    +0.000 N 
ATOM     12  H   UNL     1       2.532   3.706  16.060  0.00  0.00    +0.000 HD
BRANCH   9  13
ATOM     13  C   UNL     1       1.281   3.756  20.323  0.00  0.00    +0.000 C 
ATOM     14  C   UNL     1       2.007   3.742  21.651  0.00  0.00    +0.000 C 
ATOM     15  C   UNL     1       1.412   2.480  21.127  0.00  0.00    +0.000 C 
ENDBRANCH   9  13
ENDBRANCH   5   7
BRANCH   1  18
ATOM     16  O   UNL     1       8.612   7.320  18.934  0.00  0.00    +0.000 OA
ATOM     17  C   UNL     1       8.067   8.122  18.190  0.00  0.00    +0.000 C 
ATOM     18  N   UNL     1       7.169   7.847  17.167  0.00  0.00    +0.000 N 
ATOM     19  H   UNL     1       6.945   8.597  16.526  0.00  0.00    +0.000 HD
BRANCH  17  20
ATOM     20  C   UNL     1       8.440   9.554  18.325  0.00  0.00    +0.000 A 
ATOM     21  C   UNL     1       8.002  10.499  17.398  0.00  0.00    +0.000 A 
ATOM     22  C   UNL     1       8.407  11.812  17.565  0.00  0.00    +0.000 A 
ATOM     23  N   UNL     1       9.206  12.234  18.569  0.00  0.00    +0.000 NA
ATOM     24  CA  UNL     1       9.593  11.284  19.474  0.00  0.00    +0.000 A 
ATOM     25  C   UNL     1       9.229   9.950  19.406  0.00  0.00    +0.000 A 
BRANCH  24  26
ATOM     26  C   UNL     1      10.500  11.766  20.559  0.00  0.00    +0.000 C 
ATOM     27  O   UNL     1      10.125  12.286  21.594  0.00  0.00    +0.000 OA
BRANCH  26  28
ATOM     28  OXT UNL     1      11.797  11.526  20.249  0.00  0.00    +0.000 OA
ATOM     29  HXT UNL     1      12.116  10.749  20.764  0.00  0.00    +0.000 HD
ENDBRANCH  26  28
ENDBRANCH  24  26
ENDBRANCH  17  20
ENDBRANCH   1  18
TORSDOF 6
ENDMDL
MODEL 4
REMARK VINA RESULT:      -8.0      3.250      9.130
REMARK  Name = 
REMARK  6 active torsions:
REMARK  status: ('A' for Active; 'I' for Inactive)
REMARK    1  A    between atoms: C_2  and  C_18
REMARK    2  A    between atoms: N_3  and  C_4
REMARK    3  A    between atoms: C_8  and  C_9
REMARK    4  A    between atoms: C_11  and  C_12
REMARK    5  A    between atoms: CA_22  and  C_23
REMARK    6  A    between atoms: C_23  and  OXT_25
REMARK                            x       y       z     vdW  Elec       q    Type
REMARK                         _______ _______ _______ _____ _____    ______ ____
ROOT
ATOM      1  C   UNL     1       5.302   6.257  17.767  0.00  0.00    +0.000 A 
ATOM      2  C   UNL     1       6.178   5.722  18.711  0.00  0.00    +0.000 A 
ATOM      3  C   UNL     1       7.232   4.899  18.314  0.00  0.00    +0.000 A 
ATOM      4  C   UNL     1       7.417   4.597  16.968  0.00  0.00    +0.000 A 
ATOM      5  C   UNL     1       6.533   5.094  15.998  0.00  0.00    +0.000 A 
ATOM      6  C   UNL     1       5.468   5.913  16.414  0.00  0.00    +0.000 A 
ENDROOT
BRANCH   5   7
ATOM      7  C   UNL     1       6.714   4.766  14.583  0.00  0.00    +0.000 A 
ATOM      8  N   UNL     1       5.986   3.961  13.831  0.00  0.00    +0.000 NA
ATOM      9  C   UNL     1       6.611   4.005  12.606  0.00  0.00    +0.000 A 
ATOM     10  N   UNL     1       7.672   4.814  12.548  0.00  0.00    +0.000 NA
ATOM     11  N   UNL     1       7.712   5.286  13.800  0.00  0.00    +0.000 N 
ATOM     12  H   UNL     1       8.427   5.958  14.051  0.00  0.00    +0.000 HD
BRANCH   9  13
ATOM     13  C   UNL     1       6.152   3.229  11.383  0.00  0.00    +0.000 C 
ATOM     14  C   UNL     1       4.752   2.654  11.378  0.00  0.00    +0.000 C 
ATOM     15  C   UNL     1       5.921   1.737  11.487  0.00  0.00    +0.000 C 
ENDBRANCH   9  13
ENDBRANCH   5   7
BRANCH   1  18
ATOM     16  O   UNL     1       2.620   5.651  18.898  0.00  0.00    +0.000 OA
ATOM     17  C   UNL     1       3.009   6.774  18.619  0.00  0.00    +0.000 C 
ATOM     18  N   UNL     1       4.249   7.135  18.109  0.00  0.00    +0.000 N 
ATOM     19  H   UNL     1       4.484   8.120  18.099  0.00  0.00    +0.000 HD
BRANCH  17  20
ATOM     20  C   UNL     1       2.099   7.913  18.910  0.00  0.00    +0.000 A 
ATOM     21  C   UNL     1       1.758   8.831  17.917  0.00  0.00    +0.000 A 
ATOM     22  C   UNL     1       0.928   9.884  18.260  0.00  0.00    +0.000 A 
ATOM     23  N   UNL     1       0.432  10.081  19.502  0.00  0.00    +0.000 NA
ATOM     24  CA  UNL     1       0.766   9.146  20.442  0.00  0.00    +0.000 A 
ATOM     25  C   UNL     1       1.573   8.048  20.196  0.00  0.00    +0.000 A 
BRANCH  24  26
ATOM     26  C   UNL     1       0.230   9.398  21.813  0.00  0.00    +0.000 C 
ATOM     27  O   UNL     1      -0.589   8.696  22.376  0.00  0.00    +0.000 OA
BRANCH  26  28
ATOM     28  OXT UNL     1       0.796  10.502  22.358  0.00  0.00    +0.000 OA
ATOM     29  HXT UNL     1       0.418  11.305  21.932  0.00  0.00    +0.000 HD
ENDBRANCH  26  28
ENDBRANCH  24  26
ENDBRANCH  17  20
ENDBRANCH   1  18
TORSDOF 6
ENDMDL
MODEL 5
REMARK VINA RESULT:      -7.9      3.557      9.278
REMARK  Name = 
REMARK  6 active torsions:
REMARK  status: ('A' for Active; 'I' for Inactive)
REMARK    1  A    between atoms: C_2  and  C_18
REMARK    2  A    between atoms: N_3  and  C_4
REMARK    3  A    between atoms: C_8  and  C_9
REMARK    4  A    between atoms: C_11  and  C_12
REMARK    5  A    between atoms: CA_22  and  C_23
REMARK    6  A    between atoms: C_23  and  OXT_25
REMARK                            x       y       z     vdW  Elec       q    Type
REMARK                         _______ _______ _______ _____ _____    ______ ____
ROOT
ATOM      1  C   UNL     1       2.793   6.241  19.353  0.00  0.00    +0.000 A 
ATOM      2  C   UNL     1       2.752   5.098  20.151  0.00  0.00    +0.000 A 
ATOM      3  C   UNL     1       3.439   3.945  19.774  0.00  0.00    +0.000 A 
ATOM      4  C   UNL     1       4.171   3.920  18.590  0.00  0.00    +0.000 A 
ATOM      5  C   UNL     1       4.206   5.043  17.750  0.00  0.00    +0.000 A 
ATOM      6  C   UNL     1       3.499   6.196  18.138  0.00  0.00    +0.000 A 
ENDROOT
BRANCH   5   7
ATOM      7  C   UNL     1       4.961   5.017  16.497  0.00  0.00    +0.000 A 
ATOM      8  N   UNL     1       5.247   3.976  15.737  0.00  0.00    +0.000 NA
ATOM      9  C   UNL     1       5.986   4.515  14.710  0.00  0.00    +0.000 A 
ATOM     10  N   UNL     1       6.153   5.839  14.776  0.00  0.00    +0.000 NA
ATOM     11  N   UNL     1       5.493   6.132  15.903  0.00  0.00    +0.000 N 
ATOM     12  H   UNL     1       5.434   7.097  16.203  0.00  0.00    +0.000 HD
BRANCH   9  13
ATOM     13  C   UNL     1       6.568   3.710  13.560  0.00  0.00    +0.000 C 
ATOM     14  C   UNL     1       6.872   4.425  12.261  0.00  0.00    +0.000 C 
ATOM     15  C   UNL     1       5.733   3.465  12.321  0.00  0.00    +0.000 C 
ENDBRANCH   9  13
ENDBRANCH   5   7
BRANCH   1  18
ATOM     16  O   UNL     1       1.856   8.475  17.628  0.00  0.00    +0.000 OA
ATOM     17  C   UNL     1       1.762   8.462  18.846  0.00  0.00    +0.000 C 
ATOM     18  N   UNL     1       2.156   7.450  19.712  0.00  0.00    +0.000 N 
ATOM     19  H   UNL     1       1.849   7.511  20.675  0.00  0.00    +0.000 HD
BRANCH  17  20
ATOM     20  C   UNL     1       1.091   9.616  19.500  0.00  0.00    +0.000 A 
ATOM     21  C   UNL     1       0.949  10.833  18.833  0.00  0.00    +0.000 A 
ATOM     22  C   UNL     1       0.339  11.877  19.507  0.00  0.00    +0.000 A 
ATOM     23  N   UNL     1      -0.123  11.790  20.774  0.00  0.00    +0.000 NA
ATOM     24  CA  UNL     1       0.009  10.574  21.385  0.00  0.00    +0.000 A 
ATOM     25  C   UNL     1       0.588   9.465  20.792  0.00  0.00    +0.000 A 
BRANCH  24  26
ATOM     26  C   UNL     1      -0.482  10.508  22.794  0.00  0.00    +0.000 C 
ATOM     27  O   UNL     1      -1.508  11.025  23.195  0.00  0.00    +0.000 OA
BRANCH  26  28
ATOM     28  OXT UNL     1       0.359   9.776  23.566  0.00  0.00    +0.000 OA
ATOM     29  HXT UNL     1       0.789  10.364  24.227  0.00  0.00    +0.000 HD
ENDBRANCH  26  28
ENDBRANCH  24  26
ENDBRANCH  17  20
ENDBRANCH   1  18
TORSDOF 6
ENDMDL
MODEL 6
REMARK VINA RESULT:      -7.8      3.741      7.207
REMARK  Name = 
REMARK  6 active torsions:
REMARK  status: ('A' for Active; 'I' for Inactive)
REMARK    1  A    between atoms: C_2  and  C_18
REMARK    2  A    between atoms: N_3  and  C_4
REMARK    3  A    between atoms: C_8  and  C_9
REMARK    4  A    between atoms: C_11  and  C_12
REMARK    5  A    between atoms: CA_22  and  C_23
REMARK    6  A    between atoms: C_23  and  OXT_25
REMARK                            x       y       z     vdW  Elec       q    Type
REMARK                         _______ _______ _______ _____ _____    ______ ____
ROOT
ATOM      1  C   UNL     1       0.711  10.283  18.827  0.00  0.00    +0.000 A 
ATOM      2  C   UNL     1       1.374  11.495  19.023  0.00  0.00    +0.000 A 
ATOM      3  C   UNL     1       0.707  12.706  18.840  0.00  0.00    +0.000 A 
ATOM      4  C   UNL     1      -0.630  12.718  18.450  0.00  0.00    +0.000 A 
ATOM      5  C   UNL     1      -1.314  11.517  18.214  0.00  0.00    +0.000 A 
ATOM      6  C   UNL     1      -0.626  10.303  18.392  0.00  0.00    +0.000 A 
ENDROOT
BRANCH   5   7
ATOM      7  C   UNL     1      -2.714  11.525  17.789  0.00  0.00    +0.000 A 
ATOM      8  N   UNL     1      -3.797  11.583  18.543  0.00  0.00    +0.000 NA
ATOM      9  C   UNL     1      -4.830  11.539  17.635  0.00  0.00    +0.000 A 
ATOM     10  N   UNL     1      -4.448  11.483  16.356  0.00  0.00    +0.000 NA
ATOM     11  N   UNL     1      -3.116  11.483  16.478  0.00  0.00    +0.000 N 
ATOM     12  H   UNL     1      -2.544  11.465  15.643  0.00  0.00    +0.000 HD
BRANCH   9  13
ATOM     13  C   UNL     1      -6.301  11.570  18.011  0.00  0.00    +0.000 C 
ATOM     14  C   UNL     1      -6.669  11.709  19.473  0.00  0.00    +0.000 C 
ATOM     15  C   UNL     1      -6.903  10.411  18.779  0.00  0.00    +0.000 C 
ENDBRANCH   9  13
ENDBRANCH   5   7
BRANCH   1  18
ATOM     16  O   UNL     1       2.576   8.754  17.087  0.00  0.00    +0.000 OA
ATOM     17  C   UNL     1       2.175   8.364  18.174  0.00  0.00    +0.000 C 
ATOM     18  N   UNL     1       1.324   9.029  19.047  0.00  0.00    +0.000 N 
ATOM     19  H   UNL     1       1.228   8.657  19.983  0.00  0.00    +0.000 HD
BRANCH  17  20
ATOM     20  C   UNL     1       2.694   7.065  18.677  0.00  0.00    +0.000 A 
ATOM     21  C   UNL     1       2.203   6.506  19.857  0.00  0.00    +0.000 A 
ATOM     22  C   UNL     1       2.747   5.308  20.285  0.00  0.00    +0.000 A 
ATOM     23  N   UNL     1       3.730   4.648  19.632  0.00  0.00    +0.000 NA
ATOM     24  CA  UNL     1       4.166   5.213  18.465  0.00  0.00    +0.000 A 
ATOM     25  C   UNL     1       3.675   6.398  17.943  0.00  0.00    +0.000 A 
BRANCH  24  26
ATOM     26  C   UNL     1       5.272   4.483  17.775  0.00  0.00    +0.000 C 
ATOM     27  O   UNL     1       5.426   4.441  16.569  0.00  0.00    +0.000 OA
BRANCH  26  28
ATOM     28  OXT UNL     1       6.095   3.891  18.674  0.00  0.00    +0.000 OA
ATOM     29  HXT UNL     1       5.557   3.380  19.321  0.00  0.00    +0.000 HD
ENDBRANCH  26  28
ENDBRANCH  24  26
ENDBRANCH  17  20
ENDBRANCH   1  18
TORSDOF 6
ENDMDL
MODEL 7
REMARK VINA RESULT:      -7.8      0.952      1.278
REMARK  Name = 
REMARK  6 active torsions:
REMARK  status: ('A' for Active; 'I' for Inactive)
REMARK    1  A    between atoms: C_2  and  C_18
REMARK    2  A    between atoms: N_3  and  C_4
REMARK    3  A    between atoms: C_8  and  C_9
REMARK    4  A    between atoms: C_11  and  C_12
REMARK    5  A    between atoms: CA_22  and  C_23
REMARK    6  A    between atoms: C_23  and  OXT_25
REMARK                            x       y       z     vdW  Elec       q    Type
REMARK                         _______ _______ _______ _____ _____    ______ ____
ROOT
ATOM      1  C   UNL     1       4.156   4.590  17.625  0.00  0.00    +0.000 A 
ATOM      2  C   UNL     1       4.099   3.567  18.571  0.00  0.00    +0.000 A 
ATOM      3  C   UNL     1       3.429   3.756  19.780  0.00  0.00    +0.000 A 
ATOM      4  C   UNL     1       2.813   4.973  20.057  0.00  0.00    +0.000 A 
ATOM      5  C   UNL     1       2.879   6.031  19.139  0.00  0.00    +0.000 A 
ATOM      6  C   UNL     1       3.568   5.831  17.929  0.00  0.00    +0.000 A 
ENDROOT
BRANCH   5   7
ATOM      7  C   UNL     1       2.247   7.318  19.433  0.00  0.00    +0.000 A 
ATOM      8  N   UNL     1       1.891   7.804  20.608  0.00  0.00    +0.000 NA
ATOM      9  C   UNL     1       1.331   9.022  20.302  0.00  0.00    +0.000 A 
ATOM     10  N   UNL     1       1.343   9.332  19.002  0.00  0.00    +0.000 NA
ATOM     11  N   UNL     1       1.930   8.249  18.479  0.00  0.00    +0.000 N 
ATOM     12  H   UNL     1       2.093   8.211  17.480  0.00  0.00    +0.000 HD
BRANCH   9  13
ATOM     13  C   UNL     1       0.753   9.981  21.328  0.00  0.00    +0.000 C 
ATOM     14  C   UNL     1       0.383   9.439  22.693  0.00  0.00    +0.000 C 
ATOM     15  C   UNL     1      -0.696   9.844  21.748  0.00  0.00    +0.000 C 
ENDBRANCH   9  13
ENDBRANCH   5   7
BRANCH   1  18
ATOM     16  O   UNL     1       6.364   6.158  16.398  0.00  0.00    +0.000 OA
ATOM     17  C   UNL     1       5.798   5.225  15.850  0.00  0.00    +0.000 C 
ATOM     18  N   UNL     1       4.778   4.436  16.366  0.00  0.00    +0.000 N 
ATOM     19  H   UNL     1       4.538   3.592  15.862  0.00  0.00    +0.000 HD
BRANCH  17  20
ATOM     20  C   UNL     1       6.281   4.818  14.504  0.00  0.00    +0.000 A 
ATOM     21  C   UNL     1       7.447   5.363  13.966  0.00  0.00    +0.000 A 
ATOM     22  C   UNL     1       7.828   4.963  12.697  0.00  0.00    +0.000 A 
ATOM     23  N   UNL     1       7.135   4.079  11.944  0.00  0.00    +0.000 NA
ATOM     24  CA  UNL     1       6.013   3.546  12.516  0.00  0.00    +0.000 A 
ATOM     25  C   UNL     1       5.558   3.867  13.783  0.00  0.00    +0.000 A 
BRANCH  24  26
ATOM     26  C   UNL     1       5.248   2.594  11.656  0.00  0.00    +0.000 C 
ATOM     27  O   UNL     1       4.169   2.835  11.147  0.00  0.00    +0.000 OA
BRANCH  26  28
ATOM     28  OXT UNL     1       5.926   1.431  11.499  0.00  0.00    +0.000 OA
ATOM     29  HXT UNL     1       5.395   0.817  10.942  0.00  0.00    +0.000 HD
ENDBRANCH  26  28
ENDBRANCH  24  26
ENDBRANCH  17  20
ENDBRANCH   1  18
TORSDOF 6
ENDMDL
MODEL 8
REMARK VINA RESULT:      -7.8      5.007      7.834
REMARK  Name = 
REMARK  6 active torsions:
REMARK  status: ('A' for Active; 'I' for Inactive)
REMARK    1  A    between atoms: C_2  and  C_18
REMARK    2  A    between atoms: N_3  and  C_4
REMARK    3  A    between atoms: C_8  and  C_9
REMARK    4  A    between atoms: C_11  and  C_12
REMARK    5  A    between atoms: CA_22  and  C_23
REMARK    6  A    between atoms: C_23  and  OXT_25
REMARK                            x       y       z     vdW  Elec       q    Type
REMARK                         _______ _______ _______ _____ _____    ______ ____
ROOT
ATOM      1  C   UNL     1       0.943  10.203  18.715  0.00  0.00    +0.000 A 
ATOM      2  C   UNL     1       1.755  11.332  18.603  0.00  0.00    +0.000 A 
ATOM      3  C   UNL     1       1.193  12.608  18.565  0.00  0.00    +0.000 A 
ATOM      4  C   UNL     1      -0.188  12.768  18.630  0.00  0.00    +0.000 A 
ATOM      5  C   UNL     1      -1.033  11.651  18.710  0.00  0.00    +0.000 A 
ATOM      6  C   UNL     1      -0.453  10.369  18.737  0.00  0.00    +0.000 A 
ENDROOT
BRANCH   5   7
ATOM      7  C   UNL     1      -2.486  11.814  18.763  0.00  0.00    +0.000 A 
ATOM      8  N   UNL     1      -3.405  11.192  18.048  0.00  0.00    +0.000 NA
ATOM      9  C   UNL     1      -4.588  11.740  18.488  0.00  0.00    +0.000 A 
ATOM     10  N   UNL     1      -4.456  12.649  19.457  0.00  0.00    +0.000 NA
ATOM     11  N   UNL     1      -3.127  12.673  19.618  0.00  0.00    +0.000 N 
ATOM     12  H   UNL     1      -2.727  13.279  20.323  0.00  0.00    +0.000 HD
BRANCH   9  13
ATOM     13  C   UNL     1      -5.958  11.355  17.958  0.00  0.00    +0.000 C 
ATOM     14  C   UNL     1      -7.182  11.850  18.698  0.00  0.00    +0.000 C 
ATOM     15  C   UNL     1      -6.828  10.403  18.752  0.00  0.00    +0.000 C 
ENDBRANCH   9  13
ENDBRANCH   5   7
BRANCH   1  18
ATOM     16  O   UNL     1       1.460   8.536  21.123  0.00  0.00    +0.000 OA
ATOM     17  C   UNL     1       1.695   8.180  19.978  0.00  0.00    +0.000 C 
ATOM     18  N   UNL     1       1.462   8.892  18.808  0.00  0.00    +0.000 N 
ATOM     19  H   UNL     1       1.542   8.393  17.932  0.00  0.00    +0.000 HD
BRANCH  17  20
ATOM     20  C   UNL     1       2.226   6.807  19.777  0.00  0.00    +0.000 A 
ATOM     21  C   UNL     1       3.118   6.528  18.741  0.00  0.00    +0.000 A 
ATOM     22  C   UNL     1       3.555   5.223  18.591  0.00  0.00    +0.000 A 
ATOM     23  N   UNL     1       3.165   4.200  19.385  0.00  0.00    +0.000 NA
ATOM     24  CA  UNL     1       2.311   4.518  20.405  0.00  0.00    +0.000 A 
ATOM     25  C   UNL     1       1.831   5.793  20.651  0.00  0.00    +0.000 A 
BRANCH  24  26
ATOM     26  C   UNL     1       1.871   3.368  21.252  0.00  0.00    +0.000 C 
ATOM     27  O   UNL     1       2.485   2.939  22.211  0.00  0.00    +0.000 OA
BRANCH  26  28
ATOM     28  OXT UNL     1       0.682   2.879  20.823  0.00  0.00    +0.000 OA
ATOM     29  HXT UNL     1      -0.023   3.548  20.985  0.00  0.00    +0.000 HD
ENDBRANCH  26  28
ENDBRANCH  24  26
ENDBRANCH  17  20
ENDBRANCH   1  18
TORSDOF 6
ENDMDL
MODEL 9
REMARK VINA RESULT:      -7.7      3.974      9.144
REMARK  Name = 
REMARK  6 active torsions:
REMARK  status: ('A' for Active; 'I' for Inactive)
REMARK    1  A    between atoms: C_2  and  C_18
REMARK    2  A    between atoms: N_3  and  C_4
REMARK    3  A    between atoms: C_8  and  C_9
REMARK    4  A    between atoms: C_11  and  C_12
REMARK    5  A    between atoms: CA_22  and  C_23
REMARK    6  A    between atoms: C_23  and  OXT_25
REMARK                            x       y       z     vdW  Elec       q    Type
REMARK                         _______ _______ _______ _____ _____    ______ ____
ROOT
ATOM      1  C   UNL     1       2.491   6.873  19.113  0.00  0.00    +0.000 A 
ATOM      2  C   UNL     1       2.455   5.861  20.071  0.00  0.00    +0.000 A 
ATOM      3  C   UNL     1       3.198   4.693  19.898  0.00  0.00    +0.000 A 
ATOM      4  C   UNL     1       3.981   4.523  18.759  0.00  0.00    +0.000 A 
ATOM      5  C   UNL     1       4.013   5.510  17.763  0.00  0.00    +0.000 A 
ATOM      6  C   UNL     1       3.250   6.678  17.946  0.00  0.00    +0.000 A 
ENDROOT
BRANCH   5   7
ATOM      7  C   UNL     1       4.823   5.329  16.557  0.00  0.00    +0.000 A 
ATOM      8  N   UNL     1       5.002   4.228  15.851  0.00  0.00    +0.000 NA
ATOM      9  C   UNL     1       5.862   4.618  14.851  0.00  0.00    +0.000 A 
ATOM     10  N   UNL     1       6.206   5.908  14.881  0.00  0.00    +0.000 NA
ATOM     11  N   UNL     1       5.535   6.335  15.957  0.00  0.00    +0.000 N 
ATOM     12  H   UNL     1       5.594   7.311  16.220  0.00  0.00    +0.000 HD
BRANCH   9  13
ATOM     13  C   UNL     1       6.387   3.694  13.765  0.00  0.00    +0.000 C 
ATOM     14  C   UNL     1       6.790   4.298  12.437  0.00  0.00    +0.000 C 
ATOM     15  C   UNL     1       5.561   3.459  12.518  0.00  0.00    +0.000 C 
ENDBRANCH   9  13
ENDBRANCH   5   7
BRANCH   1  18
ATOM     16  O   UNL     1       1.403   8.148  21.570  0.00  0.00    +0.000 OA
ATOM     17  C   UNL     1       1.300   8.620  20.448  0.00  0.00    +0.000 C 
ATOM     18  N   UNL     1       1.798   8.096  19.262  0.00  0.00    +0.000 N 
ATOM     19  H   UNL     1       1.787   8.692  18.445  0.00  0.00    +0.000 HD
BRANCH  17  20
ATOM     20  C   UNL     1       0.632   9.941  20.313  0.00  0.00    +0.000 A 
ATOM     21  C   UNL     1       0.739  10.904  21.317  0.00  0.00    +0.000 A 
ATOM     22  C   UNL     1       0.070  12.104  21.143  0.00  0.00    +0.000 A 
ATOM     23  N   UNL     1      -0.686  12.396  20.061  0.00  0.00    +0.000 NA
ATOM     24  CA  UNL     1      -0.745  11.439  19.087  0.00  0.00    +0.000 A 
ATOM     25  C   UNL     1      -0.100  10.216  19.157  0.00  0.00    +0.000 A 
BRANCH  24  26
ATOM     26  C   UNL     1      -1.609  11.771  17.914  0.00  0.00    +0.000 C 
ATOM     27  O   UNL     1      -2.598  11.145  17.584  0.00  0.00    +0.000 OA
BRANCH  26  28
ATOM     28  OXT UNL     1      -1.155  12.879  17.279  0.00  0.00    +0.000 OA
ATOM     29  HXT UNL     1      -0.175  12.921  17.357  0.00  0.00    +0.000 HD
ENDBRANCH  26  28
ENDBRANCH  24  26
ENDBRANCH  17  20
ENDBRANCH   1  18
TORSDOF 6
ENDMDL
