MODEL 1
REMARK VINA RESULT:      -8.9      0.000      0.000
REMARK  Name = 
REMARK  4 active torsions:
REMARK  status: ('A' for Active; 'I' for Inactive)
REMARK    1  A    between atoms: C_2  and  C_3
REMARK    2  A    between atoms: C_5  and  C_6
REMARK    3  A    between atoms: C_6  and  N_7
REMARK    4  A    between atoms: C_16  and  C_17
REMARK                            x       y       z     vdW  Elec       q    Type
REMARK                         _______ _______ _______ _____ _____    ______ ____
ROOT
ATOM      1  O   UNL     1       6.235   3.710  19.014  0.00  0.00    +0.000 OA
ATOM      2  C   UNL     1       5.569   4.303  18.174  0.00  0.00    +0.000 C 
ATOM      3  N   UNL     1       4.207   4.591  18.331  0.00  0.00    +0.000 N 
ATOM      4  C   UNL     1       3.343   5.402  17.446  0.00  0.00    +0.000 C 
ATOM      5  C   UNL     1       1.992   5.618  18.136  0.00  0.00    +0.000 C 
ATOM      6  C   UNL     1       2.070   4.557  19.200  0.00  0.00    +0.000 A 
ATOM      7  C   UNL     1       1.059   4.148  20.056  0.00  0.00    +0.000 A 
ATOM      8  C   UNL     1       1.379   3.233  21.058  0.00  0.00    +0.000 A 
ATOM      9  C   UNL     1       2.684   2.741  21.195  0.00  0.00    +0.000 A 
ATOM     10  C   UNL     1       3.692   3.145  20.318  0.00  0.00    +0.000 A 
ATOM     11  C   UNL     1       3.372   4.049  19.324  0.00  0.00    +0.000 A 
ENDROOT
BRANCH   5  12
ATOM     12  C   UNL     1       1.863   7.023  18.677  0.00  0.00    +0.000 A 
ATOM     13  C   UNL     1       1.856   8.123  17.808  0.00  0.00    +0.000 A 
ATOM     14  C   UNL     1       1.667   9.412  18.297  0.00  0.00    +0.000 A 
ATOM     15  C   UNL     1       1.487   9.615  19.674  0.00  0.00    +0.000 A 
ATOM     16  C   UNL     1       1.539   8.532  20.553  0.00  0.00    +0.000 A 
ATOM     17  C   UNL     1       1.730   7.246  20.061  0.00  0.00    +0.000 A 
ENDBRANCH   5  12
BRANCH   2  18
ATOM     18  C   UNL     1       6.177   4.741  16.899  0.00  0.00    +0.000 A 
ATOM     19  C   UNL     1       6.181   4.086  15.645  0.00  0.00    +0.000 A 
ATOM     20  C   UNL     1       6.928   4.871  14.817  0.00  0.00    +0.000 A 
ATOM     21  O   UNL     1       7.364   5.947  15.511  0.00  0.00    +0.000 OA
ATOM     22  N   UNL     1       6.903   5.870  16.817  0.00  0.00    +0.000 NA
BRANCH  20  23
ATOM     23  C   UNL     1       7.299   4.733  13.400  0.00  0.00    +0.000 C 
BRANCH  23  24
ATOM     24  N   UNL     1       6.375   3.824  12.744  0.00  0.00    +0.000 N 
ATOM     25  C   UNL     1       6.710   2.683  12.072  0.00  0.00    +0.000 A 
ATOM     26  C   UNL     1       5.556   2.242  11.473  0.00  0.00    +0.000 A 
ATOM     27  C   UNL     1       4.565   3.148  11.893  0.00  0.00    +0.000 A 
ATOM     28  N   UNL     1       5.053   4.107  12.686  0.00  0.00    +0.000 NA
ENDBRANCH  23  24
ENDBRANCH  20  23
ENDBRANCH   2  18
TORSDOF 4
ENDMDL
MODEL 2
REMARK VINA RESULT:      -7.9      7.352     11.820
REMARK  Name = 
REMARK  4 active torsions:
REMARK  status: ('A' for Active; 'I' for Inactive)
REMARK    1  A    between atoms: C_2  and  C_3
REMARK    2  A    between atoms: C_5  and  C_6
REMARK    3  A    between atoms: C_6  and  N_7
REMARK    4  A    between atoms: C_16  and  C_17
REMARK                            x       y       z     vdW  Elec       q    Type
REMARK                         _______ _______ _______ _____ _____    ______ ____
ROOT
ATOM      1  O   UNL     1      -0.505   9.722  23.150  0.00  0.00    +0.000 OA
ATOM      2  C   UNL     1      -0.731  10.701  22.450  0.00  0.00    +0.000 C 
ATOM      3  N   UNL     1      -0.411  10.766  21.088  0.00  0.00    +0.000 N 
ATOM      4  C   UNL     1      -0.748  11.839  20.127  0.00  0.00    +0.000 C 
ATOM      5  C   UNL     1      -0.385  11.371  18.715  0.00  0.00    +0.000 C 
ATOM      6  C   UNL     1       0.509  10.206  19.048  0.00  0.00    +0.000 A 
ATOM      7  C   UNL     1       1.286   9.464  18.171  0.00  0.00    +0.000 A 
ATOM      8  C   UNL     1       1.945   8.342  18.670  0.00  0.00    +0.000 A 
ATOM      9  C   UNL     1       1.826   7.975  20.017  0.00  0.00    +0.000 A 
ATOM     10  C   UNL     1       1.056   8.738  20.896  0.00  0.00    +0.000 A 
ATOM     11  C   UNL     1       0.406   9.851  20.401  0.00  0.00    +0.000 A 
ENDROOT
BRANCH   5  12
ATOM     12  C   UNL     1      -1.614  10.994  17.921  0.00  0.00    +0.000 A 
ATOM     13  C   UNL     1      -1.577   9.920  17.020  0.00  0.00    +0.000 A 
ATOM     14  C   UNL     1      -2.726   9.526  16.340  0.00  0.00    +0.000 A 
ATOM     15  C   UNL     1      -3.931  10.213  16.553  0.00  0.00    +0.000 A 
ATOM     16  C   UNL     1      -3.967  11.312  17.412  0.00  0.00    +0.000 A 
ATOM     17  C   UNL     1      -2.818  11.704  18.088  0.00  0.00    +0.000 A 
ENDBRANCH   5  12
BRANCH   2  18
ATOM     18  C   UNL     1      -1.348  11.915  23.025  0.00  0.00    +0.000 A 
ATOM     19  C   UNL     1      -2.716  12.188  23.266  0.00  0.00    +0.000 A 
ATOM     20  C   UNL     1      -2.762  13.465  23.743  0.00  0.00    +0.000 A 
ATOM     21  O   UNL     1      -1.503  13.957  23.797  0.00  0.00    +0.000 OA
ATOM     22  N   UNL     1      -0.613  12.995  23.344  0.00  0.00    +0.000 NA
BRANCH  20  23
ATOM     23  C   UNL     1      -3.884  14.315  24.174  0.00  0.00    +0.000 C 
BRANCH  23  24
ATOM     24  N   UNL     1      -5.125  13.785  23.637  0.00  0.00    +0.000 N 
ATOM     25  C   UNL     1      -5.757  14.213  22.503  0.00  0.00    +0.000 A 
ATOM     26  C   UNL     1      -6.966  13.563  22.474  0.00  0.00    +0.000 A 
ATOM     27  C   UNL     1      -6.947  12.720  23.600  0.00  0.00    +0.000 A 
ATOM     28  N   UNL     1      -5.817  12.835  24.306  0.00  0.00    +0.000 NA
ENDBRANCH  23  24
ENDBRANCH  20  23
ENDBRANCH   2  18
TORSDOF 4
ENDMDL
MODEL 3
REMARK VINA RESULT:      -7.9      7.412     11.835
REMARK  Name = 
REMARK  4 active torsions:
REMARK  status: ('A' for Active; 'I' for Inactive)
REMARK    1  A    between atoms: C_2  and  C_3
REMARK    2  A    between atoms: C_5  and  C_6
REMARK    3  A    between atoms: C_6  and  N_7
REMARK    4  A    between atoms: C_16  and  C_17
REMARK                            x       y       z     vdW  Elec       q    Type
REMARK                         _______ _______ _______ _____ _____    ______ ____
ROOT
ATOM      1  O   UNL     1      -0.629   9.869  23.313  0.00  0.00    +0.000 OA
ATOM      2  C   UNL     1      -0.817  10.833  22.581  0.00  0.00    +0.000 C 
ATOM      3  N   UNL     1      -0.477  10.849  21.222  0.00  0.00    +0.000 N 
ATOM      4  C   UNL     1      -0.768  11.903  20.226  0.00  0.00    +0.000 C 
ATOM      5  C   UNL     1      -0.399  11.384  18.833  0.00  0.00    +0.000 C 
ATOM      6  C   UNL     1       0.456  10.205  19.213  0.00  0.00    +0.000 A 
ATOM      7  C   UNL     1       1.224   9.415  18.371  0.00  0.00    +0.000 A 
ATOM      8  C   UNL     1       1.843   8.290  18.912  0.00  0.00    +0.000 A 
ATOM      9  C   UNL     1       1.695   7.967  20.267  0.00  0.00    +0.000 A 
ATOM     10  C   UNL     1       0.935   8.776  21.112  0.00  0.00    +0.000 A 
ATOM     11  C   UNL     1       0.324   9.892  20.575  0.00  0.00    +0.000 A 
ENDROOT
BRANCH   5  12
ATOM     12  C   UNL     1      -1.627  11.019  18.033  0.00  0.00    +0.000 A 
ATOM     13  C   UNL     1      -2.842  11.684  18.251  0.00  0.00    +0.000 A 
ATOM     14  C   UNL     1      -3.956  11.399  17.467  0.00  0.00    +0.000 A 
ATOM     15  C   UNL     1      -3.866  10.434  16.452  0.00  0.00    +0.000 A 
ATOM     16  C   UNL     1      -2.675   9.734  16.258  0.00  0.00    +0.000 A 
ATOM     17  C   UNL     1      -1.564  10.019  17.043  0.00  0.00    +0.000 A 
ENDBRANCH   5  12
BRANCH   2  18
ATOM     18  C   UNL     1      -1.408  12.081  23.111  0.00  0.00    +0.000 A 
ATOM     19  C   UNL     1      -2.765  12.378  23.380  0.00  0.00    +0.000 A 
ATOM     20  C   UNL     1      -2.787  13.678  23.792  0.00  0.00    +0.000 A 
ATOM     21  O   UNL     1      -1.524  14.161  23.781  0.00  0.00    +0.000 OA
ATOM     22  N   UNL     1      -0.655  13.170  23.350  0.00  0.00    +0.000 NA
BRANCH  20  23
ATOM     23  C   UNL     1      -3.889  14.558  24.213  0.00  0.00    +0.000 C 
BRANCH  23  24
ATOM     24  N   UNL     1      -4.944  14.523  23.215  0.00  0.00    +0.000 N 
ATOM     25  C   UNL     1      -6.178  13.956  23.370  0.00  0.00    +0.000 A 
ATOM     26  C   UNL     1      -6.773  14.000  22.133  0.00  0.00    +0.000 A 
ATOM     27  C   UNL     1      -5.845  14.666  21.312  0.00  0.00    +0.000 A 
ATOM     28  N   UNL     1      -4.733  15.007  21.970  0.00  0.00    +0.000 NA
ENDBRANCH  23  24
ENDBRANCH  20  23
ENDBRANCH   2  18
TORSDOF 4
ENDMDL
MODEL 4
REMARK VINA RESULT:      -7.7      1.779      4.014
REMARK  Name = 
REMARK  4 active torsions:
REMARK  status: ('A' for Active; 'I' for Inactive)
REMARK    1  A    between atoms: C_2  and  C_3
REMARK    2  A    between atoms: C_5  and  C_6
REMARK    3  A    between atoms: C_6  and  N_7
REMARK    4  A    between atoms: C_16  and  C_17
REMARK                            x       y       z     vdW  Elec       q    Type
REMARK                         _______ _______ _______ _____ _____    ______ ____
ROOT
ATOM      1  O   UNL     1       3.189   8.447  16.657  0.00  0.00    +0.000 OA
ATOM      2  C   UNL     1       3.751   7.586  17.323  0.00  0.00    +0.000 C 
ATOM      3  N   UNL     1       3.269   7.126  18.555  0.00  0.00    +0.000 N 
ATOM      4  C   UNL     1       3.794   6.013  19.376  0.00  0.00    +0.000 C 
ATOM      5  C   UNL     1       2.817   5.741  20.523  0.00  0.00    +0.000 C 
ATOM      6  C   UNL     1       2.005   7.007  20.481  0.00  0.00    +0.000 A 
ATOM      7  C   UNL     1       1.051   7.426  21.395  0.00  0.00    +0.000 A 
ATOM      8  C   UNL     1       0.322   8.577  21.100  0.00  0.00    +0.000 A 
ATOM      9  C   UNL     1       0.547   9.289  19.915  0.00  0.00    +0.000 A 
ATOM     10  C   UNL     1       1.521   8.870  19.008  0.00  0.00    +0.000 A 
ATOM     11  C   UNL     1       2.245   7.732  19.303  0.00  0.00    +0.000 A 
ENDROOT
BRANCH   5  12
ATOM     12  C   UNL     1       2.010   4.487  20.279  0.00  0.00    +0.000 A 
ATOM     13  C   UNL     1       1.496   4.208  19.004  0.00  0.00    +0.000 A 
ATOM     14  C   UNL     1       0.813   3.021  18.759  0.00  0.00    +0.000 A 
ATOM     15  C   UNL     1       0.632   2.094  19.797  0.00  0.00    +0.000 A 
ATOM     16  C   UNL     1       1.100   2.382  21.080  0.00  0.00    +0.000 A 
ATOM     17  C   UNL     1       1.780   3.570  21.322  0.00  0.00    +0.000 A 
ENDBRANCH   5  12
BRANCH   2  18
ATOM     18  C   UNL     1       5.020   6.984  16.861  0.00  0.00    +0.000 A 
ATOM     19  C   UNL     1       5.228   5.757  16.187  0.00  0.00    +0.000 A 
ATOM     20  C   UNL     1       6.579   5.634  16.047  0.00  0.00    +0.000 A 
ATOM     21  O   UNL     1       7.176   6.715  16.599  0.00  0.00    +0.000 OA
ATOM     22  N   UNL     1       6.207   7.562  17.116  0.00  0.00    +0.000 NA
BRANCH  20  23
ATOM     23  C   UNL     1       7.414   4.588  15.434  0.00  0.00    +0.000 C 
BRANCH  23  24
ATOM     24  N   UNL     1       7.097   4.482  14.021  0.00  0.00    +0.000 N 
ATOM     25  C   UNL     1       6.217   3.602  13.458  0.00  0.00    +0.000 A 
ATOM     26  C   UNL     1       6.364   3.735  12.099  0.00  0.00    +0.000 A 
ATOM     27  C   UNL     1       7.311   4.763  11.939  0.00  0.00    +0.000 A 
ATOM     28  N   UNL     1       7.750   5.239  13.109  0.00  0.00    +0.000 NA
ENDBRANCH  23  24
ENDBRANCH  20  23
ENDBRANCH   2  18
TORSDOF 4
ENDMDL
MODEL 5
REMARK VINA RESULT:      -7.5      4.367      7.858
REMARK  Name = 
REMARK  4 active torsions:
REMARK  status: ('A' for Active; 'I' for Inactive)
REMARK    1  A    between atoms: C_2  and  C_3
REMARK    2  A    between atoms: C_5  and  C_6
REMARK    3  A    between atoms: C_6  and  N_7
REMARK    4  A    between atoms: C_16  and  C_17
REMARK                            x       y       z     vdW  Elec       q    Type
REMARK                         _______ _______ _______ _____ _____    ______ ____
ROOT
ATOM      1  O   UNL     1       3.031  10.535  17.820  0.00  0.00    +0.000 OA
ATOM      2  C   UNL     1       2.072   9.946  18.304  0.00  0.00    +0.000 C 
ATOM      3  N   UNL     1       0.874  10.580  18.655  0.00  0.00    +0.000 N 
ATOM      4  C   UNL     1      -0.380   9.953  19.126  0.00  0.00    +0.000 C 
ATOM      5  C   UNL     1      -1.479  11.019  19.173  0.00  0.00    +0.000 C 
ATOM      6  C   UNL     1      -0.637  12.265  19.102  0.00  0.00    +0.000 A 
ATOM      7  C   UNL     1      -1.058  13.575  19.266  0.00  0.00    +0.000 A 
ATOM      8  C   UNL     1      -0.135  14.593  19.034  0.00  0.00    +0.000 A 
ATOM      9  C   UNL     1       1.179  14.301  18.646  0.00  0.00    +0.000 A 
ATOM     10  C   UNL     1       1.599  12.979  18.498  0.00  0.00    +0.000 A 
ATOM     11  C   UNL     1       0.684  11.971  18.732  0.00  0.00    +0.000 A 
ENDROOT
BRANCH   5  12
ATOM     12  C   UNL     1      -2.450  10.868  18.025  0.00  0.00    +0.000 A 
ATOM     13  C   UNL     1      -3.706  11.489  18.069  0.00  0.00    +0.000 A 
ATOM     14  C   UNL     1      -4.574  11.410  16.984  0.00  0.00    +0.000 A 
ATOM     15  C   UNL     1      -4.192  10.697  15.837  0.00  0.00    +0.000 A 
ATOM     16  C   UNL     1      -2.964  10.037  15.801  0.00  0.00    +0.000 A 
ATOM     17  C   UNL     1      -2.100  10.116  16.887  0.00  0.00    +0.000 A 
ENDBRANCH   5  12
BRANCH   2  18
ATOM     18  C   UNL     1       2.137   8.494  18.576  0.00  0.00    +0.000 A 
ATOM     19  C   UNL     1       2.243   7.421  17.659  0.00  0.00    +0.000 A 
ATOM     20  C   UNL     1       2.198   6.284  18.410  0.00  0.00    +0.000 A 
ATOM     21  O   UNL     1       2.071   6.625  19.713  0.00  0.00    +0.000 OA
ATOM     22  N   UNL     1       2.025   8.006  19.825  0.00  0.00    +0.000 NA
BRANCH  20  23
ATOM     23  C   UNL     1       2.263   4.859  18.044  0.00  0.00    +0.000 C 
BRANCH  23  24
ATOM     24  N   UNL     1       2.120   4.046  19.239  0.00  0.00    +0.000 N 
ATOM     25  C   UNL     1       0.942   3.609  19.777  0.00  0.00    +0.000 A 
ATOM     26  C   UNL     1       1.265   3.033  20.981  0.00  0.00    +0.000 A 
ATOM     27  C   UNL     1       2.667   3.118  21.054  0.00  0.00    +0.000 A 
ATOM     28  N   UNL     1       3.200   3.717  19.985  0.00  0.00    +0.000 NA
ENDBRANCH  23  24
ENDBRANCH  20  23
ENDBRANCH   2  18
TORSDOF 4
ENDMDL
MODEL 6
REMARK VINA RESULT:      -7.5      3.961      7.059
REMARK  Name = 
REMARK  4 active torsions:
REMARK  status: ('A' for Active; 'I' for Inactive)
REMARK    1  A    between atoms: C_2  and  C_3
REMARK    2  A    between atoms: C_5  and  C_6
REMARK    3  A    between atoms: C_6  and  N_7
REMARK    4  A    between atoms: C_16  and  C_17
REMARK                            x       y       z     vdW  Elec       q    Type
REMARK                         _______ _______ _______ _____ _____    ______ ____
ROOT
ATOM      1  O   UNL     1       1.465   8.476  22.052  0.00  0.00    +0.000 OA
ATOM      2  C   UNL     1       1.304   8.754  20.870  0.00  0.00    +0.000 C 
ATOM      3  N   UNL     1       0.525   9.832  20.429  0.00  0.00    +0.000 N 
ATOM      4  C   UNL     1       0.364  10.329  19.045  0.00  0.00    +0.000 C 
ATOM      5  C   UNL     1      -0.403  11.653  19.081  0.00  0.00    +0.000 C 
ATOM      6  C   UNL     1      -0.966  11.591  20.475  0.00  0.00    +0.000 A 
ATOM      7  C   UNL     1      -1.895  12.447  21.047  0.00  0.00    +0.000 A 
ATOM      8  C   UNL     1      -2.188  12.286  22.400  0.00  0.00    +0.000 A 
ATOM      9  C   UNL     1      -1.562  11.289  23.160  0.00  0.00    +0.000 A 
ATOM     10  C   UNL     1      -0.640  10.422  22.573  0.00  0.00    +0.000 A 
ATOM     11  C   UNL     1      -0.354  10.580  21.231  0.00  0.00    +0.000 A 
ENDROOT
BRANCH   5  12
ATOM     12  C   UNL     1       0.512  12.832  18.840  0.00  0.00    +0.000 A 
ATOM     13  C   UNL     1       0.017  14.142  18.909  0.00  0.00    +0.000 A 
ATOM     14  C   UNL     1       0.871  15.230  18.757  0.00  0.00    +0.000 A 
ATOM     15  C   UNL     1       2.239  15.016  18.527  0.00  0.00    +0.000 A 
ATOM     16  C   UNL     1       2.733  13.717  18.410  0.00  0.00    +0.000 A 
ATOM     17  C   UNL     1       1.877  12.632  18.561  0.00  0.00    +0.000 A 
ENDBRANCH   5  12
BRANCH   2  18
ATOM     18  C   UNL     1       1.919   7.928  19.810  0.00  0.00    +0.000 A 
ATOM     19  C   UNL     1       2.372   6.589  19.876  0.00  0.00    +0.000 A 
ATOM     20  C   UNL     1       2.915   6.318  18.654  0.00  0.00    +0.000 A 
ATOM     21  O   UNL     1       2.808   7.418  17.875  0.00  0.00    +0.000 OA
ATOM     22  N   UNL     1       2.192   8.433  18.593  0.00  0.00    +0.000 NA
BRANCH  20  23
ATOM     23  C   UNL     1       3.546   5.107  18.104  0.00  0.00    +0.000 C 
BRANCH  23  24
ATOM     24  N   UNL     1       2.713   3.953  18.395  0.00  0.00    +0.000 N 
ATOM     25  C   UNL     1       1.401   3.800  18.045  0.00  0.00    +0.000 A 
ATOM     26  C   UNL     1       0.973   2.654  18.669  0.00  0.00    +0.000 A 
ATOM     27  C   UNL     1       2.113   2.154  19.323  0.00  0.00    +0.000 A 
ATOM     28  N   UNL     1       3.187   2.931  19.144  0.00  0.00    +0.000 NA
ENDBRANCH  23  24
ENDBRANCH  20  23
ENDBRANCH   2  18
TORSDOF 4
ENDMDL
MODEL 7
REMARK VINA RESULT:      -7.5      4.456      7.662
REMARK  Name = 
REMARK  4 active torsions:
REMARK  status: ('A' for Active; 'I' for Inactive)
REMARK    1  A    between atoms: C_2  and  C_3
REMARK    2  A    between atoms: C_5  and  C_6
REMARK    3  A    between atoms: C_6  and  N_7
REMARK    4  A    between atoms: C_16  and  C_17
REMARK                            x       y       z     vdW  Elec       q    Type
REMARK                         _______ _______ _______ _____ _____    ______ ____
ROOT
ATOM      1  O   UNL     1       3.073  10.238  17.748  0.00  0.00    +0.000 OA
ATOM      2  C   UNL     1       2.107   9.717  18.292  0.00  0.00    +0.000 C 
ATOM      3  N   UNL     1       0.961  10.425  18.673  0.00  0.00    +0.000 N 
ATOM      4  C   UNL     1      -0.302   9.882  19.219  0.00  0.00    +0.000 C 
ATOM      5  C   UNL     1      -1.340  11.006  19.278  0.00  0.00    +0.000 C 
ATOM      6  C   UNL     1      -0.438  12.202  19.129  0.00  0.00    +0.000 A 
ATOM      7  C   UNL     1      -0.782  13.538  19.268  0.00  0.00    +0.000 A 
ATOM      8  C   UNL     1       0.182  14.497  18.963  0.00  0.00    +0.000 A 
ATOM      9  C   UNL     1       1.460  14.122  18.527  0.00  0.00    +0.000 A 
ATOM     10  C   UNL     1       1.803  12.775  18.406  0.00  0.00    +0.000 A 
ATOM     11  C   UNL     1       0.848  11.826  18.713  0.00  0.00    +0.000 A 
ENDROOT
BRANCH   5  12
ATOM     12  C   UNL     1      -2.368  10.872  18.179  0.00  0.00    +0.000 A 
ATOM     13  C   UNL     1      -3.603  11.531  18.275  0.00  0.00    +0.000 A 
ATOM     14  C   UNL     1      -4.523  11.466  17.233  0.00  0.00    +0.000 A 
ATOM     15  C   UNL     1      -4.217  10.731  16.078  0.00  0.00    +0.000 A 
ATOM     16  C   UNL     1      -3.011  10.034  15.992  0.00  0.00    +0.000 A 
ATOM     17  C   UNL     1      -2.095  10.099  17.035  0.00  0.00    +0.000 A 
ENDBRANCH   5  12
BRANCH   2  18
ATOM     18  C   UNL     1       2.107   8.273  18.609  0.00  0.00    +0.000 A 
ATOM     19  C   UNL     1       2.111   7.640  19.875  0.00  0.00    +0.000 A 
ATOM     20  C   UNL     1       2.177   6.301  19.623  0.00  0.00    +0.000 A 
ATOM     21  O   UNL     1       2.212   6.110  18.284  0.00  0.00    +0.000 OA
ATOM     22  N   UNL     1       2.175   7.339  17.642  0.00  0.00    +0.000 NA
BRANCH  20  23
ATOM     23  C   UNL     1       2.211   5.132  20.516  0.00  0.00    +0.000 C 
BRANCH  23  24
ATOM     24  N   UNL     1       2.082   3.918  19.728  0.00  0.00    +0.000 N 
ATOM     25  C   UNL     1       0.911   3.301  19.389  0.00  0.00    +0.000 A 
ATOM     26  C   UNL     1       1.266   2.111  18.802  0.00  0.00    +0.000 A 
ATOM     27  C   UNL     1       2.672   2.128  18.778  0.00  0.00    +0.000 A 
ATOM     28  N   UNL     1       3.180   3.238  19.324  0.00  0.00    +0.000 NA
ENDBRANCH  23  24
ENDBRANCH  20  23
ENDBRANCH   2  18
TORSDOF 4
ENDMDL
MODEL 8
REMARK VINA RESULT:      -7.4      7.514     12.007
REMARK  Name = 
REMARK  4 active torsions:
REMARK  status: ('A' for Active; 'I' for Inactive)
REMARK    1  A    between atoms: C_2  and  C_3
REMARK    2  A    between atoms: C_5  and  C_6
REMARK    3  A    between atoms: C_6  and  N_7
REMARK    4  A    between atoms: C_16  and  C_17
REMARK                            x       y       z     vdW  Elec       q    Type
REMARK                         _______ _______ _______ _____ _____    ______ ____
ROOT
ATOM      1  O   UNL     1      -0.603   9.980  23.434  0.00  0.00    +0.000 OA
ATOM      2  C   UNL     1      -0.795  10.918  22.669  0.00  0.00    +0.000 C 
ATOM      3  N   UNL     1      -0.463  10.886  21.309  0.00  0.00    +0.000 N 
ATOM      4  C   UNL     1      -0.761  11.904  20.278  0.00  0.00    +0.000 C 
ATOM      5  C   UNL     1      -0.399  11.336  18.903  0.00  0.00    +0.000 C 
ATOM      6  C   UNL     1       0.458  10.171  19.319  0.00  0.00    +0.000 A 
ATOM      7  C   UNL     1       1.221   9.353  18.500  0.00  0.00    +0.000 A 
ATOM      8  C   UNL     1       1.844   8.248  19.076  0.00  0.00    +0.000 A 
ATOM      9  C   UNL     1       1.704   7.972  20.443  0.00  0.00    +0.000 A 
ATOM     10  C   UNL     1       0.948   8.810  21.263  0.00  0.00    +0.000 A 
ATOM     11  C   UNL     1       0.335   9.907  20.691  0.00  0.00    +0.000 A 
ENDROOT
BRANCH   5  12
ATOM     12  C   UNL     1      -1.632  10.943  18.123  0.00  0.00    +0.000 A 
ATOM     13  C   UNL     1      -2.876  11.520  18.419  0.00  0.00    +0.000 A 
ATOM     14  C   UNL     1      -3.999  11.213  17.657  0.00  0.00    +0.000 A 
ATOM     15  C   UNL     1      -3.889  10.314  16.585  0.00  0.00    +0.000 A 
ATOM     16  C   UNL     1      -2.667   9.699  16.311  0.00  0.00    +0.000 A 
ATOM     17  C   UNL     1      -1.547  10.006  17.075  0.00  0.00    +0.000 A 
ENDBRANCH   5  12
BRANCH   2  18
ATOM     18  C   UNL     1      -1.383  12.183  23.160  0.00  0.00    +0.000 A 
ATOM     19  C   UNL     1      -2.745  12.517  23.348  0.00  0.00    +0.000 A 
ATOM     20  C   UNL     1      -2.758  13.819  23.752  0.00  0.00    +0.000 A 
ATOM     21  O   UNL     1      -1.484  14.270  23.812  0.00  0.00    +0.000 OA
ATOM     22  N   UNL     1      -0.617  13.254  23.437  0.00  0.00    +0.000 NA
BRANCH  20  23
ATOM     23  C   UNL     1      -3.859  14.730  24.104  0.00  0.00    +0.000 C 
BRANCH  23  24
ATOM     24  N   UNL     1      -3.891  15.836  23.164  0.00  0.00    +0.000 N 
ATOM     25  C   UNL     1      -3.906  17.164  23.485  0.00  0.00    +0.000 A 
ATOM     26  C   UNL     1      -4.113  17.838  22.306  0.00  0.00    +0.000 A 
ATOM     27  C   UNL     1      -4.151  16.834  21.321  0.00  0.00    +0.000 A 
ATOM     28  N   UNL     1      -3.996  15.609  21.834  0.00  0.00    +0.000 NA
ENDBRANCH  23  24
ENDBRANCH  20  23
ENDBRANCH   2  18
TORSDOF 4
ENDMDL
MODEL 9
REMARK VINA RESULT:      -7.4      7.468     11.949
REMARK  Name = 
REMARK  4 active torsions:
REMARK  status: ('A' for Active; 'I' for Inactive)
REMARK    1  A    between atoms: C_2  and  C_3
REMARK    2  A    between atoms: C_5  and  C_6
REMARK    3  A    between atoms: C_6  and  N_7
REMARK    4  A    between atoms: C_16  and  C_17
REMARK                            x       y       z     vdW  Elec       q    Type
REMARK                         _______ _______ _______ _____ _____    ______ ____
ROOT
ATOM      1  O   UNL     1      -0.595   9.777  23.256  0.00  0.00    +0.000 OA
ATOM      2  C   UNL     1      -0.775  10.754  22.539  0.00  0.00    +0.000 C 
ATOM      3  N   UNL     1      -0.424  10.793  21.184  0.00  0.00    +0.000 N 
ATOM      4  C   UNL     1      -0.707  11.864  20.203  0.00  0.00    +0.000 C 
ATOM      5  C   UNL     1      -0.327  11.367  18.805  0.00  0.00    +0.000 C 
ATOM      6  C   UNL     1       0.523  10.181  19.171  0.00  0.00    +0.000 A 
ATOM      7  C   UNL     1       1.296   9.405  18.321  0.00  0.00    +0.000 A 
ATOM      8  C   UNL     1       1.910   8.270  18.848  0.00  0.00    +0.000 A 
ATOM      9  C   UNL     1       1.750   7.923  20.196  0.00  0.00    +0.000 A 
ATOM     10  C   UNL     1       0.984   8.719  21.049  0.00  0.00    +0.000 A 
ATOM     11  C   UNL     1       0.380   9.845  20.526  0.00  0.00    +0.000 A 
ENDROOT
BRANCH   5  12
ATOM     12  C   UNL     1      -1.549  11.018  17.988  0.00  0.00    +0.000 A 
ATOM     13  C   UNL     1      -1.516   9.951  17.078  0.00  0.00    +0.000 A 
ATOM     14  C   UNL     1      -2.660   9.583  16.377  0.00  0.00    +0.000 A 
ATOM     15  C   UNL     1      -3.857  10.288  16.576  0.00  0.00    +0.000 A 
ATOM     16  C   UNL     1      -3.889  11.379  17.445  0.00  0.00    +0.000 A 
ATOM     17  C   UNL     1      -2.744  11.746  18.143  0.00  0.00    +0.000 A 
ENDBRANCH   5  12
BRANCH   2  18
ATOM     18  C   UNL     1      -1.369  11.993  23.086  0.00  0.00    +0.000 A 
ATOM     19  C   UNL     1      -2.730  12.298  23.324  0.00  0.00    +0.000 A 
ATOM     20  C   UNL     1      -2.751  13.586  23.770  0.00  0.00    +0.000 A 
ATOM     21  O   UNL     1      -1.483  14.056  23.809  0.00  0.00    +0.000 OA
ATOM     22  N   UNL     1      -0.612  13.067  23.376  0.00  0.00    +0.000 NA
BRANCH  20  23
ATOM     23  C   UNL     1      -3.855  14.467  24.183  0.00  0.00    +0.000 C 
BRANCH  23  24
ATOM     24  N   UNL     1      -3.814  15.691  23.404  0.00  0.00    +0.000 N 
ATOM     25  C   UNL     1      -4.022  15.794  22.057  0.00  0.00    +0.000 A 
ATOM     26  C   UNL     1      -3.716  17.091  21.723  0.00  0.00    +0.000 A 
ATOM     27  C   UNL     1      -3.393  17.709  22.945  0.00  0.00    +0.000 A 
ATOM     28  N   UNL     1      -3.470  16.866  23.980  0.00  0.00    +0.000 NA
ENDBRANCH  23  24
ENDBRANCH  20  23
ENDBRANCH   2  18
TORSDOF 4
ENDMDL
