MODEL 1
REMARK VINA RESULT:      -8.5      0.000      0.000
REMARK  Name = 
REMARK  5 active torsions:
REMARK  status: ('A' for Active; 'I' for Inactive)
REMARK    1  A    between atoms: C_1  and  C_2
REMARK    2  A    between atoms: C_6  and  C_7
REMARK    3  A    between atoms: N_9  and  C_10
REMARK    4  A    between atoms: C_12  and  C_13
REMARK    5  A    between atoms: C_25  and  C_26
REMARK                            x       y       z     vdW  Elec       q    Type
REMARK                         _______ _______ _______ _____ _____    ______ ____
ROOT
ATOM      1  C   UNL     1       3.925   5.341  17.449  0.00  0.00    +0.000 A 
ATOM      2  C   UNL     1       3.366   6.623  17.570  0.00  0.00    +0.000 A 
ATOM      3  C   UNL     1       2.660   6.997  18.726  0.00  0.00    +0.000 A 
ATOM      4  C   UNL     1       2.515   6.053  19.749  0.00  0.00    +0.000 A 
ATOM      5  C   UNL     1       3.154   4.816  19.677  0.00  0.00    +0.000 A 
ATOM      6  C   UNL     1       3.891   4.457  18.542  0.00  0.00    +0.000 A 
ATOM      7  C   UNL     1       4.665   3.167  18.580  0.00  0.00    +0.000 C 
ENDROOT
BRANCH   3   8
ATOM      8  C   UNL     1       2.061   8.332  18.827  0.00  0.00    +0.000 A 
ATOM      9  N   UNL     1       2.114   9.265  17.893  0.00  0.00    +0.000 NA
ATOM     10  N   UNL     1       1.398  10.354  18.314  0.00  0.00    +0.000 NA
ATOM     11  C   UNL     1       0.930  10.101  19.518  0.00  0.00    +0.000 A 
ATOM     12  N   UNL     1       1.370   8.857  19.906  0.00  0.00    +0.000 N 
ATOM     13  C   UNL     1       1.183   8.233  21.201  0.00  0.00    +0.000 C 
ATOM     14  C   UNL     1       1.247   9.189  22.383  0.00  0.00    +0.000 C 
ATOM     15  C   UNL     1      -0.050   9.957  22.623  0.00  0.00    +0.000 C 
ATOM     16  C   UNL     1      -0.797  10.392  21.363  0.00  0.00    +0.000 C 
ATOM     17  C   UNL     1       0.100  11.049  20.319  0.00  0.00    +0.000 C 
ENDBRANCH   3   8
BRANCH   1  20
ATOM     18  C   UNL     1       5.748   5.546  15.817  0.00  0.00    +0.000 C 
ATOM     19  O   UNL     1       6.420   6.360  16.443  0.00  0.00    +0.000 OA
ATOM     20  N   UNL     1       4.533   5.005  16.223  0.00  0.00    +0.000 N 
ATOM     21  H   UNL     1       4.344   4.094  15.814  0.00  0.00    +0.000 HD
BRANCH  18  27
ATOM     22  C   UNL     1       4.961   2.799  11.883  0.00  0.00    +0.000 C 
ATOM     23  C   UNL     1       5.882   3.708  12.640  0.00  0.00    +0.000 A 
ATOM     24  C   UNL     1       7.114   4.076  12.102  0.00  0.00    +0.000 A 
ATOM     25  C   UNL     1       7.939   4.932  12.825  0.00  0.00    +0.000 A 
ATOM     26  C   UNL     1       7.509   5.411  14.056  0.00  0.00    +0.000 A 
ATOM     27  C   UNL     1       6.266   5.003  14.520  0.00  0.00    +0.000 A 
ATOM     28  N   UNL     1       5.448   4.145  13.849  0.00  0.00    +0.000 NA
ENDBRANCH  18  27
ENDBRANCH   1  20
TORSDOF 3
ENDMDL
MODEL 2
REMARK VINA RESULT:      -8.3      0.722      1.412
REMARK  Name = 
REMARK  5 active torsions:
REMARK  status: ('A' for Active; 'I' for Inactive)
REMARK    1  A    between atoms: C_1  and  C_2
REMARK    2  A    between atoms: C_6  and  C_7
REMARK    3  A    between atoms: N_9  and  C_10
REMARK    4  A    between atoms: C_12  and  C_13
REMARK    5  A    between atoms: C_25  and  C_26
REMARK                            x       y       z     vdW  Elec       q    Type
REMARK                         _______ _______ _______ _____ _____    ______ ____
ROOT
ATOM      1  C   UNL     1       3.697   5.548  17.701  0.00  0.00    +0.000 A 
ATOM      2  C   UNL     1       3.157   6.836  17.848  0.00  0.00    +0.000 A 
ATOM      3  C   UNL     1       2.438   7.191  19.001  0.00  0.00    +0.000 A 
ATOM      4  C   UNL     1       2.259   6.222  19.995  0.00  0.00    +0.000 A 
ATOM      5  C   UNL     1       2.878   4.977  19.900  0.00  0.00    +0.000 A 
ATOM      6  C   UNL     1       3.629   4.636  18.769  0.00  0.00    +0.000 A 
ATOM      7  C   UNL     1       4.380   3.332  18.784  0.00  0.00    +0.000 C 
ENDROOT
BRANCH   3   8
ATOM      8  C   UNL     1       1.859   8.533  19.128  0.00  0.00    +0.000 A 
ATOM      9  N   UNL     1       1.950   9.491  18.223  0.00  0.00    +0.000 NA
ATOM     10  N   UNL     1       1.243  10.580  18.661  0.00  0.00    +0.000 NA
ATOM     11  C   UNL     1       0.745  10.301  19.847  0.00  0.00    +0.000 A 
ATOM     12  N   UNL     1       1.154   9.038  20.207  0.00  0.00    +0.000 N 
ATOM     13  C   UNL     1       0.927   8.381  21.478  0.00  0.00    +0.000 C 
ATOM     14  C   UNL     1       0.981   9.300  22.690  0.00  0.00    +0.000 C 
ATOM     15  C   UNL     1      -0.307  10.084  22.923  0.00  0.00    +0.000 C 
ATOM     16  C   UNL     1      -1.018  10.568  21.660  0.00  0.00    +0.000 C 
ATOM     17  C   UNL     1      -0.087  11.239  20.657  0.00  0.00    +0.000 C 
ENDBRANCH   3   8
BRANCH   1  20
ATOM     18  C   UNL     1       5.659   5.518  16.225  0.00  0.00    +0.000 C 
ATOM     19  O   UNL     1       6.439   6.063  17.000  0.00  0.00    +0.000 OA
ATOM     20  N   UNL     1       4.321   5.235  16.476  0.00  0.00    +0.000 N 
ATOM     21  H   UNL     1       3.967   4.454  15.931  0.00  0.00    +0.000 HD
BRANCH  18  27
ATOM     22  C   UNL     1       9.010   5.812  12.714  0.00  0.00    +0.000 C 
ATOM     23  C   UNL     1       7.761   5.167  13.233  0.00  0.00    +0.000 A 
ATOM     24  C   UNL     1       7.161   4.121  12.534  0.00  0.00    +0.000 A 
ATOM     25  C   UNL     1       6.009   3.535  13.050  0.00  0.00    +0.000 A 
ATOM     26  C   UNL     1       5.495   3.995  14.256  0.00  0.00    +0.000 A 
ATOM     27  C   UNL     1       6.154   5.036  14.896  0.00  0.00    +0.000 A 
ATOM     28  N   UNL     1       7.267   5.648  14.402  0.00  0.00    +0.000 NA
ENDBRANCH  18  27
ENDBRANCH   1  20
TORSDOF 3
ENDMDL
MODEL 3
REMARK VINA RESULT:      -8.2      1.568      8.693
REMARK  Name = 
REMARK  5 active torsions:
REMARK  status: ('A' for Active; 'I' for Inactive)
REMARK    1  A    between atoms: C_1  and  C_2
REMARK    2  A    between atoms: C_6  and  C_7
REMARK    3  A    between atoms: N_9  and  C_10
REMARK    4  A    between atoms: C_12  and  C_13
REMARK    5  A    between atoms: C_25  and  C_26
REMARK                            x       y       z     vdW  Elec       q    Type
REMARK                         _______ _______ _______ _____ _____    ______ ____
ROOT
ATOM      1  C   UNL     1       3.108   5.612  18.303  0.00  0.00    +0.000 A 
ATOM      2  C   UNL     1       4.097   5.814  17.328  0.00  0.00    +0.000 A 
ATOM      3  C   UNL     1       4.756   4.726  16.731  0.00  0.00    +0.000 A 
ATOM      4  C   UNL     1       4.412   3.434  17.146  0.00  0.00    +0.000 A 
ATOM      5  C   UNL     1       3.361   3.225  18.038  0.00  0.00    +0.000 A 
ATOM      6  C   UNL     1       2.677   4.308  18.603  0.00  0.00    +0.000 A 
ATOM      7  C   UNL     1       1.470   4.016  19.453  0.00  0.00    +0.000 C 
ENDROOT
BRANCH   3   8
ATOM      8  C   UNL     1       5.805   4.955  15.731  0.00  0.00    +0.000 A 
ATOM      9  N   UNL     1       6.846   5.752  15.886  0.00  0.00    +0.000 NA
ATOM     10  N   UNL     1       7.636   5.670  14.771  0.00  0.00    +0.000 NA
ATOM     11  C   UNL     1       7.064   4.845  13.918  0.00  0.00    +0.000 A 
ATOM     12  N   UNL     1       5.877   4.412  14.460  0.00  0.00    +0.000 N 
ATOM     13  C   UNL     1       4.878   3.583  13.813  0.00  0.00    +0.000 C 
ATOM     14  C   UNL     1       4.696   3.849  12.326  0.00  0.00    +0.000 C 
ATOM     15  C   UNL     1       5.748   3.176  11.448  0.00  0.00    +0.000 C 
ATOM     16  C   UNL     1       7.163   3.150  12.025  0.00  0.00    +0.000 C 
ATOM     17  C   UNL     1       7.620   4.495  12.578  0.00  0.00    +0.000 C 
ENDBRANCH   3   8
BRANCH   1  20
ATOM     18  C   UNL     1       2.320   7.936  18.241  0.00  0.00    +0.000 C 
ATOM     19  O   UNL     1       2.549   8.141  17.053  0.00  0.00    +0.000 OA
ATOM     20  N   UNL     1       2.561   6.752  18.927  0.00  0.00    +0.000 N 
ATOM     21  H   UNL     1       1.958   6.627  19.736  0.00  0.00    +0.000 HD
BRANCH  18  27
ATOM     22  C   UNL     1       0.509   9.317  22.537  0.00  0.00    +0.000 C 
ATOM     23  C   UNL     1       0.816   9.665  21.112  0.00  0.00    +0.000 A 
ATOM     24  C   UNL     1       0.568  10.948  20.627  0.00  0.00    +0.000 A 
ATOM     25  C   UNL     1       0.877  11.242  19.303  0.00  0.00    +0.000 A 
ATOM     26  C   UNL     1       1.439  10.256  18.501  0.00  0.00    +0.000 A 
ATOM     27  C   UNL     1       1.663   9.005  19.061  0.00  0.00    +0.000 A 
ATOM     28  N   UNL     1       1.346   8.679  20.344  0.00  0.00    +0.000 NA
ENDBRANCH  18  27
ENDBRANCH   1  20
TORSDOF 3
ENDMDL
MODEL 4
REMARK VINA RESULT:      -8.1      1.647      8.755
REMARK  Name = 
REMARK  5 active torsions:
REMARK  status: ('A' for Active; 'I' for Inactive)
REMARK    1  A    between atoms: C_1  and  C_2
REMARK    2  A    between atoms: C_6  and  C_7
REMARK    3  A    between atoms: N_9  and  C_10
REMARK    4  A    between atoms: C_12  and  C_13
REMARK    5  A    between atoms: C_25  and  C_26
REMARK                            x       y       z     vdW  Elec       q    Type
REMARK                         _______ _______ _______ _____ _____    ______ ____
ROOT
ATOM      1  C   UNL     1       3.142   5.360  18.505  0.00  0.00    +0.000 A 
ATOM      2  C   UNL     1       4.130   5.634  17.547  0.00  0.00    +0.000 A 
ATOM      3  C   UNL     1       4.716   4.600  16.797  0.00  0.00    +0.000 A 
ATOM      4  C   UNL     1       4.300   3.286  17.042  0.00  0.00    +0.000 A 
ATOM      5  C   UNL     1       3.250   3.019  17.918  0.00  0.00    +0.000 A 
ATOM      6  C   UNL     1       2.638   4.054  18.637  0.00  0.00    +0.000 A 
ATOM      7  C   UNL     1       1.426   3.720  19.464  0.00  0.00    +0.000 C 
ENDROOT
BRANCH   3   8
ATOM      8  C   UNL     1       5.765   4.900  15.816  0.00  0.00    +0.000 A 
ATOM      9  N   UNL     1       6.769   5.737  16.006  0.00  0.00    +0.000 NA
ATOM     10  N   UNL     1       7.575   5.719  14.898  0.00  0.00    +0.000 NA
ATOM     11  C   UNL     1       7.048   4.894  14.017  0.00  0.00    +0.000 A 
ATOM     12  N   UNL     1       5.874   4.396  14.532  0.00  0.00    +0.000 N 
ATOM     13  C   UNL     1       4.920   3.544  13.851  0.00  0.00    +0.000 C 
ATOM     14  C   UNL     1       4.742   3.842  12.370  0.00  0.00    +0.000 C 
ATOM     15  C   UNL     1       5.832   3.240  11.487  0.00  0.00    +0.000 C 
ATOM     16  C   UNL     1       7.240   3.258  12.079  0.00  0.00    +0.000 C 
ATOM     17  C   UNL     1       7.633   4.605  12.674  0.00  0.00    +0.000 C 
ENDBRANCH   3   8
BRANCH   1  20
ATOM     18  C   UNL     1       2.120   7.581  18.726  0.00  0.00    +0.000 C 
ATOM     19  O   UNL     1       1.984   7.804  17.527  0.00  0.00    +0.000 OA
ATOM     20  N   UNL     1       2.672   6.434  19.287  0.00  0.00    +0.000 N 
ATOM     21  H   UNL     1       2.337   6.248  20.228  0.00  0.00    +0.000 HD
BRANCH  18  27
ATOM     22  C   UNL     1       0.352  12.026  19.595  0.00  0.00    +0.000 C 
ATOM     23  C   UNL     1       0.750  10.685  20.133  0.00  0.00    +0.000 A 
ATOM     24  C   UNL     1       0.564  10.379  21.480  0.00  0.00    +0.000 A 
ATOM     25  C   UNL     1       0.933   9.120  21.944  0.00  0.00    +0.000 A 
ATOM     26  C   UNL     1       1.461   8.195  21.052  0.00  0.00    +0.000 A 
ATOM     27  C   UNL     1       1.607   8.573  19.724  0.00  0.00    +0.000 A 
ATOM     28  N   UNL     1       1.282   9.806  19.246  0.00  0.00    +0.000 NA
ENDBRANCH  18  27
ENDBRANCH   1  20
TORSDOF 3
ENDMDL
MODEL 5
REMARK VINA RESULT:      -8.1      4.338      7.915
REMARK  Name = 
REMARK  5 active torsions:
REMARK  status: ('A' for Active; 'I' for Inactive)
REMARK    1  A    between atoms: C_1  and  C_2
REMARK    2  A    between atoms: C_6  and  C_7
REMARK    3  A    between atoms: N_9  and  C_10
REMARK    4  A    between atoms: C_12  and  C_13
REMARK    5  A    between atoms: C_25  and  C_26
REMARK                            x       y       z     vdW  Elec       q    Type
REMARK                         _______ _______ _______ _____ _____    ______ ____
ROOT
ATOM      1  C   UNL     1       0.114  11.471  19.305  0.00  0.00    +0.000 A 
ATOM      2  C   UNL     1      -1.199  11.419  19.799  0.00  0.00    +0.000 A 
ATOM      3  C   UNL     1      -1.884  12.593  20.153  0.00  0.00    +0.000 A 
ATOM      4  C   UNL     1      -1.218  13.816  20.017  0.00  0.00    +0.000 A 
ATOM      5  C   UNL     1       0.046  13.882  19.433  0.00  0.00    +0.000 A 
ATOM      6  C   UNL     1       0.714  12.715  19.042  0.00  0.00    +0.000 A 
ATOM      7  C   UNL     1       2.015  12.860  18.299  0.00  0.00    +0.000 C 
ENDROOT
BRANCH   3   8
ATOM      8  C   UNL     1      -3.247  12.520  20.691  0.00  0.00    +0.000 A 
ATOM      9  N   UNL     1      -3.571  12.623  21.967  0.00  0.00    +0.000 NA
ATOM     10  N   UNL     1      -4.934  12.563  22.084  0.00  0.00    +0.000 NA
ATOM     11  C   UNL     1      -5.446  12.393  20.883  0.00  0.00    +0.000 A 
ATOM     12  N   UNL     1      -4.414  12.304  19.978  0.00  0.00    +0.000 N 
ATOM     13  C   UNL     1      -4.522  12.005  18.564  0.00  0.00    +0.000 C 
ATOM     14  C   UNL     1      -5.604  10.994  18.207  0.00  0.00    +0.000 C 
ATOM     15  C   UNL     1      -7.005  11.595  18.135  0.00  0.00    +0.000 C 
ATOM     16  C   UNL     1      -7.313  12.668  19.178  0.00  0.00    +0.000 C 
ATOM     17  C   UNL     1      -6.906  12.276  20.594  0.00  0.00    +0.000 C 
ENDBRANCH   3   8
BRANCH   1  20
ATOM     18  C   UNL     1       1.193   9.410  20.091  0.00  0.00    +0.000 C 
ATOM     19  O   UNL     1       1.061   9.620  21.293  0.00  0.00    +0.000 OA
ATOM     20  N   UNL     1       0.772  10.248  19.064  0.00  0.00    +0.000 N 
ATOM     21  H   UNL     1       0.589   9.755  18.195  0.00  0.00    +0.000 HD
BRANCH  18  27
ATOM     22  C   UNL     1       2.098   4.717  20.986  0.00  0.00    +0.000 C 
ATOM     23  C   UNL     1       2.216   5.882  20.051  0.00  0.00    +0.000 A 
ATOM     24  C   UNL     1       2.792   5.724  18.791  0.00  0.00    +0.000 A 
ATOM     25  C   UNL     1       2.874   6.823  17.942  0.00  0.00    +0.000 A 
ATOM     26  C   UNL     1       2.366   8.046  18.363  0.00  0.00    +0.000 A 
ATOM     27  C   UNL     1       1.801   8.121  19.629  0.00  0.00    +0.000 A 
ATOM     28  N   UNL     1       1.731   7.070  20.493  0.00  0.00    +0.000 NA
ENDBRANCH  18  27
ENDBRANCH   1  20
TORSDOF 3
ENDMDL
MODEL 6
REMARK VINA RESULT:      -8.1      3.893      9.092
REMARK  Name = 
REMARK  5 active torsions:
REMARK  status: ('A' for Active; 'I' for Inactive)
REMARK    1  A    between atoms: C_1  and  C_2
REMARK    2  A    between atoms: C_6  and  C_7
REMARK    3  A    between atoms: N_9  and  C_10
REMARK    4  A    between atoms: C_12  and  C_13
REMARK    5  A    between atoms: C_25  and  C_26
REMARK                            x       y       z     vdW  Elec       q    Type
REMARK                         _______ _______ _______ _____ _____    ______ ____
ROOT
ATOM      1  C   UNL     1       0.534  10.708  20.596  0.00  0.00    +0.000 A 
ATOM      2  C   UNL     1       1.192   9.769  19.787  0.00  0.00    +0.000 A 
ATOM      3  C   UNL     1       1.449   8.468  20.252  0.00  0.00    +0.000 A 
ATOM      4  C   UNL     1       1.047   8.138  21.551  0.00  0.00    +0.000 A 
ATOM      5  C   UNL     1       0.305   9.032  22.320  0.00  0.00    +0.000 A 
ATOM      6  C   UNL     1       0.013  10.315  21.842  0.00  0.00    +0.000 A 
ATOM      7  C   UNL     1      -0.902  11.185  22.661  0.00  0.00    +0.000 C 
ENDROOT
BRANCH   3   8
ATOM      8  C   UNL     1       2.160   7.506  19.403  0.00  0.00    +0.000 A 
ATOM      9  N   UNL     1       2.783   7.799  18.275  0.00  0.00    +0.000 NA
ATOM     10  N   UNL     1       3.376   6.663  17.790  0.00  0.00    +0.000 NA
ATOM     11  C   UNL     1       3.092   5.668  18.604  0.00  0.00    +0.000 A 
ATOM     12  N   UNL     1       2.279   6.143  19.607  0.00  0.00    +0.000 N 
ATOM     13  C   UNL     1       1.642   5.364  20.651  0.00  0.00    +0.000 C 
ATOM     14  C   UNL     1       1.165   3.986  20.216  0.00  0.00    +0.000 C 
ATOM     15  C   UNL     1       2.272   2.936  20.180  0.00  0.00    +0.000 C 
ATOM     16  C   UNL     1       3.632   3.434  19.693  0.00  0.00    +0.000 C 
ATOM     17  C   UNL     1       3.555   4.262  18.415  0.00  0.00    +0.000 C 
ENDBRANCH   3   8
BRANCH   1  20
ATOM     18  C   UNL     1       1.268  13.046  20.451  0.00  0.00    +0.000 C 
ATOM     19  O   UNL     1       2.224  12.952  21.215  0.00  0.00    +0.000 OA
ATOM     20  N   UNL     1       0.398  12.020  20.099  0.00  0.00    +0.000 N 
ATOM     21  H   UNL     1      -0.040  12.160  19.193  0.00  0.00    +0.000 HD
BRANCH  18  27
ATOM     22  C   UNL     1       2.974  16.689  17.719  0.00  0.00    +0.000 C 
ATOM     23  C   UNL     1       1.815  16.073  18.442  0.00  0.00    +0.000 A 
ATOM     24  C   UNL     1       0.551  16.659  18.385  0.00  0.00    +0.000 A 
ATOM     25  C   UNL     1      -0.506  16.053  19.057  0.00  0.00    +0.000 A 
ATOM     26  C   UNL     1      -0.281  14.873  19.754  0.00  0.00    +0.000 A 
ATOM     27  C   UNL     1       1.004  14.347  19.757  0.00  0.00    +0.000 A 
ATOM     28  N   UNL     1       2.064  14.931  19.132  0.00  0.00    +0.000 NA
ENDBRANCH  18  27
ENDBRANCH   1  20
TORSDOF 3
ENDMDL
MODEL 7
REMARK VINA RESULT:      -7.9      1.543      2.503
REMARK  Name = 
REMARK  5 active torsions:
REMARK  status: ('A' for Active; 'I' for Inactive)
REMARK    1  A    between atoms: C_1  and  C_2
REMARK    2  A    between atoms: C_6  and  C_7
REMARK    3  A    between atoms: N_9  and  C_10
REMARK    4  A    between atoms: C_12  and  C_13
REMARK    5  A    between atoms: C_25  and  C_26
REMARK                            x       y       z     vdW  Elec       q    Type
REMARK                         _______ _______ _______ _____ _____    ______ ____
ROOT
ATOM      1  C   UNL     1       2.833   5.469  18.703  0.00  0.00    +0.000 A 
ATOM      2  C   UNL     1       2.605   6.746  19.241  0.00  0.00    +0.000 A 
ATOM      3  C   UNL     1       1.682   6.935  20.284  0.00  0.00    +0.000 A 
ATOM      4  C   UNL     1       0.984   5.821  20.762  0.00  0.00    +0.000 A 
ATOM      5  C   UNL     1       1.281   4.539  20.302  0.00  0.00    +0.000 A 
ATOM      6  C   UNL     1       2.229   4.344  19.291  0.00  0.00    +0.000 A 
ATOM      7  C   UNL     1       2.600   2.930  18.931  0.00  0.00    +0.000 C 
ENDROOT
BRANCH   3   8
ATOM      8  C   UNL     1       1.437   8.280  20.818  0.00  0.00    +0.000 A 
ATOM      9  N   UNL     1       1.565   8.632  22.084  0.00  0.00    +0.000 NA
ATOM     10  N   UNL     1       1.309   9.973  22.198  0.00  0.00    +0.000 NA
ATOM     11  C   UNL     1       0.994  10.436  21.007  0.00  0.00    +0.000 A 
ATOM     12  N   UNL     1       1.007   9.391  20.114  0.00  0.00    +0.000 N 
ATOM     13  C   UNL     1       0.613   9.434  18.719  0.00  0.00    +0.000 C 
ATOM     14  C   UNL     1      -0.566  10.348  18.419  0.00  0.00    +0.000 C 
ATOM     15  C   UNL     1      -0.188  11.822  18.304  0.00  0.00    +0.000 C 
ATOM     16  C   UNL     1       0.886  12.300  19.280  0.00  0.00    +0.000 C 
ATOM     17  C   UNL     1       0.643  11.859  20.719  0.00  0.00    +0.000 C 
ENDBRANCH   3   8
BRANCH   1  20
ATOM     18  C   UNL     1       5.053   5.087  17.727  0.00  0.00    +0.000 C 
ATOM     19  O   UNL     1       5.651   4.900  18.782  0.00  0.00    +0.000 OA
ATOM     20  N   UNL     1       3.699   5.371  17.595  0.00  0.00    +0.000 N 
ATOM     21  H   UNL     1       3.316   5.090  16.696  0.00  0.00    +0.000 HD
BRANCH  18  27
ATOM     22  C   UNL     1       4.993   3.632  13.088  0.00  0.00    +0.000 C 
ATOM     23  C   UNL     1       5.750   4.268  14.214  0.00  0.00    +0.000 A 
ATOM     24  C   UNL     1       7.036   4.767  14.012  0.00  0.00    +0.000 A 
ATOM     25  C   UNL     1       7.705   5.363  15.076  0.00  0.00    +0.000 A 
ATOM     26  C   UNL     1       7.071   5.461  16.308  0.00  0.00    +0.000 A 
ATOM     27  C   UNL     1       5.787   4.947  16.428  0.00  0.00    +0.000 A 
ATOM     28  N   UNL     1       5.117   4.333  15.413  0.00  0.00    +0.000 NA
ENDBRANCH  18  27
ENDBRANCH   1  20
TORSDOF 3
ENDMDL
MODEL 8
REMARK VINA RESULT:      -7.9      4.070      7.265
REMARK  Name = 
REMARK  5 active torsions:
REMARK  status: ('A' for Active; 'I' for Inactive)
REMARK    1  A    between atoms: C_1  and  C_2
REMARK    2  A    between atoms: C_6  and  C_7
REMARK    3  A    between atoms: N_9  and  C_10
REMARK    4  A    between atoms: C_12  and  C_13
REMARK    5  A    between atoms: C_25  and  C_26
REMARK                            x       y       z     vdW  Elec       q    Type
REMARK                         _______ _______ _______ _____ _____    ______ ____
ROOT
ATOM      1  C   UNL     1       0.363  10.687  18.371  0.00  0.00    +0.000 A 
ATOM      2  C   UNL     1      -1.031  10.595  18.236  0.00  0.00    +0.000 A 
ATOM      3  C   UNL     1      -1.841  11.739  18.317  0.00  0.00    +0.000 A 
ATOM      4  C   UNL     1      -1.224  12.973  18.554  0.00  0.00    +0.000 A 
ATOM      5  C   UNL     1       0.164  13.084  18.586  0.00  0.00    +0.000 A 
ATOM      6  C   UNL     1       0.975  11.949  18.465  0.00  0.00    +0.000 A 
ATOM      7  C   UNL     1       2.464  12.150  18.376  0.00  0.00    +0.000 C 
ENDROOT
BRANCH   3   8
ATOM      8  C   UNL     1      -3.299  11.623  18.199  0.00  0.00    +0.000 A 
ATOM      9  N   UNL     1      -3.944  11.162  17.142  0.00  0.00    +0.000 NA
ATOM     10  N   UNL     1      -5.287  11.149  17.415  0.00  0.00    +0.000 NA
ATOM     11  C   UNL     1      -5.468  11.629  18.627  0.00  0.00    +0.000 A 
ATOM     12  N   UNL     1      -4.244  11.994  19.140  0.00  0.00    +0.000 N 
ATOM     13  C   UNL     1      -3.996  12.668  20.398  0.00  0.00    +0.000 C 
ATOM     14  C   UNL     1      -5.041  13.706  20.782  0.00  0.00    +0.000 C 
ATOM     15  C   UNL     1      -6.298  13.109  21.409  0.00  0.00    +0.000 C 
ATOM     16  C   UNL     1      -6.761  11.782  20.812  0.00  0.00    +0.000 C 
ATOM     17  C   UNL     1      -6.798  11.779  19.287  0.00  0.00    +0.000 C 
ENDBRANCH   3   8
BRANCH   1  20
ATOM     18  C   UNL     1       1.435   8.819  19.549  0.00  0.00    +0.000 C 
ATOM     19  O   UNL     1       1.150   9.176  20.688  0.00  0.00    +0.000 OA
ATOM     20  N   UNL     1       1.102   9.486  18.376  0.00  0.00    +0.000 N 
ATOM     21  H   UNL     1       1.047   8.873  17.568  0.00  0.00    +0.000 HD
BRANCH  18  27
ATOM     22  C   UNL     1       2.233   4.257  21.032  0.00  0.00    +0.000 C 
ATOM     23  C   UNL     1       2.519   5.343  20.039  0.00  0.00    +0.000 A 
ATOM     24  C   UNL     1       3.348   5.103  18.945  0.00  0.00    +0.000 A 
ATOM     25  C   UNL     1       3.582   6.129  18.035  0.00  0.00    +0.000 A 
ATOM     26  C   UNL     1       2.972   7.362  18.230  0.00  0.00    +0.000 A 
ATOM     27  C   UNL     1       2.153   7.520  19.341  0.00  0.00    +0.000 A 
ATOM     28  N   UNL     1       1.928   6.544  20.263  0.00  0.00    +0.000 NA
ENDBRANCH  18  27
ENDBRANCH   1  20
TORSDOF 3
ENDMDL
MODEL 9
REMARK VINA RESULT:      -7.9      4.046      7.286
REMARK  Name = 
REMARK  5 active torsions:
REMARK  status: ('A' for Active; 'I' for Inactive)
REMARK    1  A    between atoms: C_1  and  C_2
REMARK    2  A    between atoms: C_6  and  C_7
REMARK    3  A    between atoms: N_9  and  C_10
REMARK    4  A    between atoms: C_12  and  C_13
REMARK    5  A    between atoms: C_25  and  C_26
REMARK                            x       y       z     vdW  Elec       q    Type
REMARK                         _______ _______ _______ _____ _____    ______ ____
ROOT
ATOM      1  C   UNL     1       0.093  10.603  19.414  0.00  0.00    +0.000 A 
ATOM      2  C   UNL     1      -1.169  10.594  18.799  0.00  0.00    +0.000 A 
ATOM      3  C   UNL     1      -2.008  11.720  18.856  0.00  0.00    +0.000 A 
ATOM      4  C   UNL     1      -1.559  12.846  19.556  0.00  0.00    +0.000 A 
ATOM      5  C   UNL     1      -0.269  12.896  20.079  0.00  0.00    +0.000 A 
ATOM      6  C   UNL     1       0.583  11.789  19.989  0.00  0.00    +0.000 A 
ATOM      7  C   UNL     1       2.005  11.950  20.454  0.00  0.00    +0.000 C 
ENDROOT
BRANCH   3   8
ATOM      8  C   UNL     1      -3.334  11.686  18.230  0.00  0.00    +0.000 A 
ATOM      9  N   UNL     1      -3.574  11.389  16.966  0.00  0.00    +0.000 NA
ATOM     10  N   UNL     1      -4.927  11.404  16.756  0.00  0.00    +0.000 NA
ATOM     11  C   UNL     1      -5.517  11.740  17.884  0.00  0.00    +0.000 A 
ATOM     12  N   UNL     1      -4.547  11.982  18.829  0.00  0.00    +0.000 N 
ATOM     13  C   UNL     1      -4.749  12.485  20.173  0.00  0.00    +0.000 C 
ATOM     14  C   UNL     1      -5.862  13.515  20.307  0.00  0.00    +0.000 C 
ATOM     15  C   UNL     1      -7.258  12.904  20.380  0.00  0.00    +0.000 C 
ATOM     16  C   UNL     1      -7.487  11.683  19.492  0.00  0.00    +0.000 C 
ATOM     17  C   UNL     1      -6.993  11.869  18.061  0.00  0.00    +0.000 C 
ENDBRANCH   3   8
BRANCH   1  20
ATOM     18  C   UNL     1       1.710   9.081  18.367  0.00  0.00    +0.000 C 
ATOM     19  O   UNL     1       1.934   9.761  17.371  0.00  0.00    +0.000 OA
ATOM     20  N   UNL     1       0.837   9.405  19.399  0.00  0.00    +0.000 N 
ATOM     21  H   UNL     1       1.081   8.968  20.283  0.00  0.00    +0.000 HD
BRANCH  18  27
ATOM     22  C   UNL     1       2.234   4.955  20.886  0.00  0.00    +0.000 C 
ATOM     23  C   UNL     1       2.703   5.832  19.765  0.00  0.00    +0.000 A 
ATOM     24  C   UNL     1       3.735   5.417  18.926  0.00  0.00    +0.000 A 
ATOM     25  C   UNL     1       4.137   6.250  17.886  0.00  0.00    +0.000 A 
ATOM     26  C   UNL     1       3.490   7.466  17.700  0.00  0.00    +0.000 A 
ATOM     27  C   UNL     1       2.466   7.804  18.574  0.00  0.00    +0.000 A 
ATOM     28  N   UNL     1       2.069   7.023  19.617  0.00  0.00    +0.000 NA
ENDBRANCH  18  27
ENDBRANCH   1  20
TORSDOF 3
ENDMDL
