MODEL 1
REMARK VINA RESULT:      -8.7      0.000      0.000
REMARK  Name = 
REMARK  3 active torsions:
REMARK  status: ('A' for Active; 'I' for Inactive)
REMARK    1  A    between atoms: C_2  and  C_19
REMARK    2  A    between atoms: N_3  and  C_4
REMARK    3  A    between atoms: C_8  and  C_9
REMARK                            x       y       z     vdW  Elec       q    Type
REMARK                         _______ _______ _______ _____ _____    ______ ____
ROOT
ATOM      1  C   UNL     1       2.862   5.281  18.812  0.00  0.00    +0.000 A 
ATOM      2  C   UNL     1       2.658   4.222  19.699  0.00  0.00    +0.000 A 
ATOM      3  C   UNL     1       1.943   4.404  20.886  0.00  0.00    +0.000 A 
ATOM      4  C   UNL     1       1.428   5.658  21.212  0.00  0.00    +0.000 A 
ATOM      5  C   UNL     1       1.633   6.758  20.369  0.00  0.00    +0.000 A 
ATOM      6  C   UNL     1       2.355   6.550  19.166  0.00  0.00    +0.000 A 
ENDROOT
BRANCH   5   7
ATOM      7  C   UNL     1       1.104   8.080  20.782  0.00  0.00    +0.000 A 
ATOM      8  N   UNL     1       1.252   9.228  20.136  0.00  0.00    +0.000 NA
ATOM      9  C   UNL     1       0.584  10.184  20.879  0.00  0.00    +0.000 A 
ATOM     10  C   UNL     1       0.409  11.562  20.661  0.00  0.00    +0.000 A 
ATOM     11  C   UNL     1      -0.331  12.306  21.596  0.00  0.00    +0.000 A 
ATOM     12  C   UNL     1      -0.886  11.691  22.722  0.00  0.00    +0.000 A 
ATOM     13  C   UNL     1      -0.721  10.319  22.946  0.00  0.00    +0.000 A 
ATOM     14  C   UNL     1       0.018   9.610  22.006  0.00  0.00    +0.000 A 
ATOM     15  N   UNL     1       0.365   8.292  21.922  0.00  0.00    +0.000 N 
ATOM     16  H   UNL     1       0.119   7.587  22.593  0.00  0.00    +0.000 HD
ENDBRANCH   5   7
BRANCH   1  19
ATOM     17  O   UNL     1       5.757   4.894  18.400  0.00  0.00    +0.000 OA
ATOM     18  C   UNL     1       4.967   5.004  17.463  0.00  0.00    +0.000 C 
ATOM     19  N   UNL     1       3.586   5.137  17.594  0.00  0.00    +0.000 N 
ATOM     20  H   UNL     1       3.053   5.031  16.737  0.00  0.00    +0.000 HD
BRANCH  18  21
ATOM     21  C   UNL     1       5.498   5.106  16.012  0.00  0.00    +0.000 C 
ATOM     22  C   UNL     1       6.775   5.978  15.986  0.00  0.00    +0.000 C 
ATOM     23  O   UNL     1       7.784   5.624  15.033  0.00  0.00    +0.000 OA
ATOM     24  C   UNL     1       7.277   4.927  13.979  0.00  0.00    +0.000 A 
ATOM     25  C   UNL     1       7.878   5.101  12.735  0.00  0.00    +0.000 A 
ATOM     26  C   UNL     1       7.374   4.424  11.626  0.00  0.00    +0.000 A 
ATOM     27  C   UNL     1       6.298   3.546  11.777  0.00  0.00    +0.000 A 
ATOM     28  C   UNL     1       5.729   3.336  13.038  0.00  0.00    +0.000 A 
ATOM     29  C   UNL     1       6.213   4.043  14.134  0.00  0.00    +0.000 A 
ATOM     30  O   UNL     1       5.641   3.841  15.368  0.00  0.00    +0.000 OA
ENDBRANCH  18  21
ENDBRANCH   1  19
TORSDOF 3
ENDMDL
MODEL 2
REMARK VINA RESULT:      -8.7      3.962      6.804
REMARK  Name = 
REMARK  3 active torsions:
REMARK  status: ('A' for Active; 'I' for Inactive)
REMARK    1  A    between atoms: C_2  and  C_19
REMARK    2  A    between atoms: N_3  and  C_4
REMARK    3  A    between atoms: C_8  and  C_9
REMARK                            x       y       z     vdW  Elec       q    Type
REMARK                         _______ _______ _______ _____ _____    ______ ____
ROOT
ATOM      1  C   UNL     1       0.779  10.379  18.970  0.00  0.00    +0.000 A 
ATOM      2  C   UNL     1       1.548  11.534  18.810  0.00  0.00    +0.000 A 
ATOM      3  C   UNL     1       0.946  12.787  18.677  0.00  0.00    +0.000 A 
ATOM      4  C   UNL     1      -0.444  12.907  18.691  0.00  0.00    +0.000 A 
ATOM      5  C   UNL     1      -1.257  11.774  18.819  0.00  0.00    +0.000 A 
ATOM      6  C   UNL     1      -0.626  10.512  18.960  0.00  0.00    +0.000 A 
ENDROOT
BRANCH   5   7
ATOM      7  C   UNL     1      -2.730  11.947  18.783  0.00  0.00    +0.000 A 
ATOM      8  N   UNL     1      -3.524  12.181  19.819  0.00  0.00    +0.000 NA
ATOM      9  C   UNL     1      -4.806  12.283  19.313  0.00  0.00    +0.000 A 
ATOM     10  C   UNL     1      -6.032  12.530  19.954  0.00  0.00    +0.000 A 
ATOM     11  C   UNL     1      -7.204  12.582  19.181  0.00  0.00    +0.000 A 
ATOM     12  C   UNL     1      -7.155  12.395  17.796  0.00  0.00    +0.000 A 
ATOM     13  C   UNL     1      -5.940  12.152  17.146  0.00  0.00    +0.000 A 
ATOM     14  C   UNL     1      -4.798  12.103  17.938  0.00  0.00    +0.000 A 
ATOM     15  N   UNL     1      -3.484  11.889  17.636  0.00  0.00    +0.000 N 
ATOM     16  H   UNL     1      -3.126  11.713  16.714  0.00  0.00    +0.000 HD
ENDBRANCH   5   7
BRANCH   1  19
ATOM     17  O   UNL     1       2.502   8.898  17.090  0.00  0.00    +0.000 OA
ATOM     18  C   UNL     1       2.125   8.416  18.157  0.00  0.00    +0.000 C 
ATOM     19  N   UNL     1       1.354   9.083  19.108  0.00  0.00    +0.000 N 
ATOM     20  H   UNL     1       1.280   8.625  20.010  0.00  0.00    +0.000 HD
BRANCH  18  21
ATOM     21  C   UNL     1       2.415   6.930  18.480  0.00  0.00    +0.000 C 
ATOM     22  C   UNL     1       3.738   6.500  17.804  0.00  0.00    +0.000 C 
ATOM     23  O   UNL     1       4.543   5.541  18.501  0.00  0.00    +0.000 OA
ATOM     24  C   UNL     1       3.813   4.787  19.368  0.00  0.00    +0.000 A 
ATOM     25  C   UNL     1       4.212   3.469  19.579  0.00  0.00    +0.000 A 
ATOM     26  C   UNL     1       3.477   2.657  20.441  0.00  0.00    +0.000 A 
ATOM     27  C   UNL     1       2.372   3.180  21.117  0.00  0.00    +0.000 A 
ATOM     28  C   UNL     1       2.005   4.519  20.939  0.00  0.00    +0.000 A 
ATOM     29  C   UNL     1       2.719   5.314  20.050  0.00  0.00    +0.000 A 
ATOM     30  O   UNL     1       2.344   6.624  19.873  0.00  0.00    +0.000 OA
ENDBRANCH  18  21
ENDBRANCH   1  19
TORSDOF 3
ENDMDL
MODEL 3
REMARK VINA RESULT:      -8.6      3.856      6.620
REMARK  Name = 
REMARK  3 active torsions:
REMARK  status: ('A' for Active; 'I' for Inactive)
REMARK    1  A    between atoms: C_2  and  C_19
REMARK    2  A    between atoms: N_3  and  C_4
REMARK    3  A    between atoms: C_8  and  C_9
REMARK                            x       y       z     vdW  Elec       q    Type
REMARK                         _______ _______ _______ _____ _____    ______ ____
ROOT
ATOM      1  C   UNL     1       0.859  10.251  19.004  0.00  0.00    +0.000 A 
ATOM      2  C   UNL     1       1.612  11.417  18.848  0.00  0.00    +0.000 A 
ATOM      3  C   UNL     1       0.992  12.664  18.729  0.00  0.00    +0.000 A 
ATOM      4  C   UNL     1      -0.398  12.765  18.753  0.00  0.00    +0.000 A 
ATOM      5  C   UNL     1      -1.197  11.621  18.876  0.00  0.00    +0.000 A 
ATOM      6  C   UNL     1      -0.548  10.366  19.003  0.00  0.00    +0.000 A 
ENDROOT
BRANCH   5   7
ATOM      7  C   UNL     1      -2.671  11.775  18.851  0.00  0.00    +0.000 A 
ATOM      8  N   UNL     1      -3.521  11.129  18.066  0.00  0.00    +0.000 NA
ATOM      9  C   UNL     1      -4.784  11.581  18.400  0.00  0.00    +0.000 A 
ATOM     10  C   UNL     1      -6.050  11.235  17.896  0.00  0.00    +0.000 A 
ATOM     11  C   UNL     1      -7.187  11.863  18.431  0.00  0.00    +0.000 A 
ATOM     12  C   UNL     1      -7.067  12.814  19.449  0.00  0.00    +0.000 A 
ATOM     13  C   UNL     1      -5.813  13.163  19.961  0.00  0.00    +0.000 A 
ATOM     14  C   UNL     1      -4.705  12.527  19.410  0.00  0.00    +0.000 A 
ATOM     15  N   UNL     1      -3.368  12.633  19.668  0.00  0.00    +0.000 N 
ATOM     16  H   UNL     1      -2.960  13.247  20.350  0.00  0.00    +0.000 HD
ENDBRANCH   5   7
BRANCH   1  19
ATOM     17  O   UNL     1       2.538   8.782  17.076  0.00  0.00    +0.000 OA
ATOM     18  C   UNL     1       2.199   8.299  18.156  0.00  0.00    +0.000 C 
ATOM     19  N   UNL     1       1.452   8.962  19.128  0.00  0.00    +0.000 N 
ATOM     20  H   UNL     1       1.410   8.506  20.033  0.00  0.00    +0.000 HD
BRANCH  18  21
ATOM     21  C   UNL     1       2.515   6.818  18.474  0.00  0.00    +0.000 C 
ATOM     22  C   UNL     1       3.860   6.421  17.822  0.00  0.00    +0.000 C 
ATOM     23  O   UNL     1       4.672   5.475  18.529  0.00  0.00    +0.000 OA
ATOM     24  C   UNL     1       3.940   4.699  19.375  0.00  0.00    +0.000 A 
ATOM     25  C   UNL     1       4.364   3.389  19.586  0.00  0.00    +0.000 A 
ATOM     26  C   UNL     1       3.629   2.555  20.426  0.00  0.00    +0.000 A 
ATOM     27  C   UNL     1       2.500   3.049  21.083  0.00  0.00    +0.000 A 
ATOM     28  C   UNL     1       2.107   4.380  20.908  0.00  0.00    +0.000 A 
ATOM     29  C   UNL     1       2.822   5.197  20.039  0.00  0.00    +0.000 A 
ATOM     30  O   UNL     1       2.422   6.500  19.863  0.00  0.00    +0.000 OA
ENDBRANCH  18  21
ENDBRANCH   1  19
TORSDOF 3
ENDMDL
MODEL 4
REMARK VINA RESULT:      -8.5      0.208      1.114
REMARK  Name = 
REMARK  3 active torsions:
REMARK  status: ('A' for Active; 'I' for Inactive)
REMARK    1  A    between atoms: C_2  and  C_19
REMARK    2  A    between atoms: N_3  and  C_4
REMARK    3  A    between atoms: C_8  and  C_9
REMARK                            x       y       z     vdW  Elec       q    Type
REMARK                         _______ _______ _______ _____ _____    ______ ____
ROOT
ATOM      1  C   UNL     1       2.896   5.072  18.792  0.00  0.00    +0.000 A 
ATOM      2  C   UNL     1       2.724   3.991  19.659  0.00  0.00    +0.000 A 
ATOM      3  C   UNL     1       2.018   4.135  20.857  0.00  0.00    +0.000 A 
ATOM      4  C   UNL     1       1.482   5.371  21.215  0.00  0.00    +0.000 A 
ATOM      5  C   UNL     1       1.656   6.491  20.393  0.00  0.00    +0.000 A 
ATOM      6  C   UNL     1       2.368   6.322  19.177  0.00  0.00    +0.000 A 
ENDROOT
BRANCH   5   7
ATOM      7  C   UNL     1       1.104   7.794  20.838  0.00  0.00    +0.000 A 
ATOM      8  N   UNL     1       0.361   8.013  21.913  0.00  0.00    +0.000 NA
ATOM      9  C   UNL     1       0.092   9.368  21.934  0.00  0.00    +0.000 A 
ATOM     10  C   UNL     1      -0.641  10.148  22.845  0.00  0.00    +0.000 A 
ATOM     11  C   UNL     1      -0.754  11.529  22.618  0.00  0.00    +0.000 A 
ATOM     12  C   UNL     1      -0.148  12.123  21.507  0.00  0.00    +0.000 A 
ATOM     13  C   UNL     1       0.588  11.358  20.595  0.00  0.00    +0.000 A 
ATOM     14  C   UNL     1       0.680   9.993  20.845  0.00  0.00    +0.000 A 
ATOM     15  N   UNL     1       1.302   8.980  20.172  0.00  0.00    +0.000 N 
ATOM     16  H   UNL     1       1.822   9.089  19.320  0.00  0.00    +0.000 HD
ENDBRANCH   5   7
BRANCH   1  19
ATOM     17  O   UNL     1       5.782   4.661  18.342  0.00  0.00    +0.000 OA
ATOM     18  C   UNL     1       4.987   4.820  17.417  0.00  0.00    +0.000 C 
ATOM     19  N   UNL     1       3.609   4.967  17.563  0.00  0.00    +0.000 N 
ATOM     20  H   UNL     1       3.069   4.904  16.707  0.00  0.00    +0.000 HD
BRANCH  18  21
ATOM     21  C   UNL     1       5.509   4.974  15.967  0.00  0.00    +0.000 C 
ATOM     22  C   UNL     1       6.758   5.886  15.958  0.00  0.00    +0.000 C 
ATOM     23  O   UNL     1       7.774   5.588  14.993  0.00  0.00    +0.000 OA
ATOM     24  C   UNL     1       7.286   4.900  13.924  0.00  0.00    +0.000 A 
ATOM     25  C   UNL     1       7.876   5.123  12.683  0.00  0.00    +0.000 A 
ATOM     26  C   UNL     1       7.389   4.457  11.560  0.00  0.00    +0.000 A 
ATOM     27  C   UNL     1       6.343   3.542  11.693  0.00  0.00    +0.000 A 
ATOM     28  C   UNL     1       5.786   3.284  12.951  0.00  0.00    +0.000 A 
ATOM     29  C   UNL     1       6.250   3.979  14.062  0.00  0.00    +0.000 A 
ATOM     30  O   UNL     1       5.690   3.729  15.292  0.00  0.00    +0.000 OA
ENDBRANCH  18  21
ENDBRANCH   1  19
TORSDOF 3
ENDMDL
MODEL 5
REMARK VINA RESULT:      -8.5      4.083      6.757
REMARK  Name = 
REMARK  3 active torsions:
REMARK  status: ('A' for Active; 'I' for Inactive)
REMARK    1  A    between atoms: C_2  and  C_19
REMARK    2  A    between atoms: N_3  and  C_4
REMARK    3  A    between atoms: C_8  and  C_9
REMARK                            x       y       z     vdW  Elec       q    Type
REMARK                         _______ _______ _______ _____ _____    ______ ____
ROOT
ATOM      1  C   UNL     1       0.808  10.462  19.089  0.00  0.00    +0.000 A 
ATOM      2  C   UNL     1       1.551  11.614  18.822  0.00  0.00    +0.000 A 
ATOM      3  C   UNL     1       0.923  12.848  18.631  0.00  0.00    +0.000 A 
ATOM      4  C   UNL     1      -0.467  12.948  18.692  0.00  0.00    +0.000 A 
ATOM      5  C   UNL     1      -1.256  11.815  18.926  0.00  0.00    +0.000 A 
ATOM      6  C   UNL     1      -0.598  10.574  19.126  0.00  0.00    +0.000 A 
ENDROOT
BRANCH   5   7
ATOM      7  C   UNL     1      -2.731  11.964  18.938  0.00  0.00    +0.000 A 
ATOM      8  N   UNL     1      -3.481  12.328  19.969  0.00  0.00    +0.000 NA
ATOM      9  C   UNL     1      -4.787  12.345  19.516  0.00  0.00    +0.000 A 
ATOM     10  C   UNL     1      -5.986  12.663  20.176  0.00  0.00    +0.000 A 
ATOM     11  C   UNL     1      -7.193  12.595  19.459  0.00  0.00    +0.000 A 
ATOM     12  C   UNL     1      -7.204  12.221  18.111  0.00  0.00    +0.000 A 
ATOM     13  C   UNL     1      -6.016  11.906  17.443  0.00  0.00    +0.000 A 
ATOM     14  C   UNL     1      -4.838  11.979  18.180  0.00  0.00    +0.000 A 
ATOM     15  N   UNL     1      -3.536  11.740  17.847  0.00  0.00    +0.000 N 
ATOM     16  H   UNL     1      -3.217  11.444  16.941  0.00  0.00    +0.000 HD
ENDBRANCH   5   7
BRANCH   1  19
ATOM     17  O   UNL     1       2.400   8.840  17.210  0.00  0.00    +0.000 OA
ATOM     18  C   UNL     1       2.113   8.447  18.340  0.00  0.00    +0.000 C 
ATOM     19  N   UNL     1       1.410   9.187  19.289  0.00  0.00    +0.000 N 
ATOM     20  H   UNL     1       1.412   8.806  20.229  0.00  0.00    +0.000 HD
BRANCH  18  21
ATOM     21  C   UNL     1       2.448   6.995  18.762  0.00  0.00    +0.000 C 
ATOM     22  C   UNL     1       2.024   6.771  20.232  0.00  0.00    +0.000 C 
ATOM     23  O   UNL     1       1.549   5.464  20.580  0.00  0.00    +0.000 OA
ATOM     24  C   UNL     1       2.009   4.505  19.731  0.00  0.00    +0.000 A 
ATOM     25  C   UNL     1       2.239   3.233  20.250  0.00  0.00    +0.000 A 
ATOM     26  C   UNL     1       2.733   2.230  19.419  0.00  0.00    +0.000 A 
ATOM     27  C   UNL     1       2.954   2.493  18.065  0.00  0.00    +0.000 A 
ATOM     28  C   UNL     1       2.674   3.758  17.537  0.00  0.00    +0.000 A 
ATOM     29  C   UNL     1       2.216   4.766  18.379  0.00  0.00    +0.000 A 
ATOM     30  O   UNL     1       1.955   6.010  17.855  0.00  0.00    +0.000 OA
ENDBRANCH  18  21
ENDBRANCH   1  19
TORSDOF 3
ENDMDL
MODEL 6
REMARK VINA RESULT:      -8.5      4.079      6.554
REMARK  Name = 
REMARK  3 active torsions:
REMARK  status: ('A' for Active; 'I' for Inactive)
REMARK    1  A    between atoms: C_2  and  C_19
REMARK    2  A    between atoms: N_3  and  C_4
REMARK    3  A    between atoms: C_8  and  C_9
REMARK                            x       y       z     vdW  Elec       q    Type
REMARK                         _______ _______ _______ _____ _____    ______ ____
ROOT
ATOM      1  C   UNL     1       0.899  10.232  19.053  0.00  0.00    +0.000 A 
ATOM      2  C   UNL     1       1.669  11.380  18.854  0.00  0.00    +0.000 A 
ATOM      3  C   UNL     1       1.067  12.629  18.681  0.00  0.00    +0.000 A 
ATOM      4  C   UNL     1      -0.322  12.750  18.693  0.00  0.00    +0.000 A 
ATOM      5  C   UNL     1      -1.137  11.623  18.858  0.00  0.00    +0.000 A 
ATOM      6  C   UNL     1      -0.506  10.365  19.040  0.00  0.00    +0.000 A 
ENDROOT
BRANCH   5   7
ATOM      7  C   UNL     1      -2.609  11.796  18.819  0.00  0.00    +0.000 A 
ATOM      8  N   UNL     1      -3.421  11.447  17.832  0.00  0.00    +0.000 NA
ATOM      9  C   UNL     1      -4.699  11.785  18.237  0.00  0.00    +0.000 A 
ATOM     10  C   UNL     1      -5.939  11.634  17.593  0.00  0.00    +0.000 A 
ATOM     11  C   UNL     1      -7.101  12.073  18.250  0.00  0.00    +0.000 A 
ATOM     12  C   UNL     1      -7.030  12.647  19.524  0.00  0.00    +0.000 A 
ATOM     13  C   UNL     1      -5.801  12.798  20.176  0.00  0.00    +0.000 A 
ATOM     14  C   UNL     1      -4.668  12.357  19.499  0.00  0.00    +0.000 A 
ATOM     15  N   UNL     1      -3.345  12.357  19.836  0.00  0.00    +0.000 N 
ATOM     16  H   UNL     1      -2.969  12.715  20.696  0.00  0.00    +0.000 HD
ENDBRANCH   5   7
BRANCH   1  19
ATOM     17  O   UNL     1       2.545   8.651  17.185  0.00  0.00    +0.000 OA
ATOM     18  C   UNL     1       2.205   8.223  18.288  0.00  0.00    +0.000 C 
ATOM     19  N   UNL     1       1.473   8.941  19.232  0.00  0.00    +0.000 N 
ATOM     20  H   UNL     1       1.430   8.528  20.157  0.00  0.00    +0.000 HD
BRANCH  18  21
ATOM     21  C   UNL     1       2.500   6.753  18.671  0.00  0.00    +0.000 C 
ATOM     22  C   UNL     1       2.101   6.510  20.145  0.00  0.00    +0.000 C 
ATOM     23  O   UNL     1       1.590   5.212  20.475  0.00  0.00    +0.000 OA
ATOM     24  C   UNL     1       2.000   4.257  19.596  0.00  0.00    +0.000 A 
ATOM     25  C   UNL     1       2.199   2.968  20.083  0.00  0.00    +0.000 A 
ATOM     26  C   UNL     1       2.641   1.967  19.220  0.00  0.00    +0.000 A 
ATOM     27  C   UNL     1       2.842   2.253  17.868  0.00  0.00    +0.000 A 
ATOM     28  C   UNL     1       2.592   3.538  17.373  0.00  0.00    +0.000 A 
ATOM     29  C   UNL     1       2.187   4.542  18.246  0.00  0.00    +0.000 A 
ATOM     30  O   UNL     1       1.956   5.804  17.754  0.00  0.00    +0.000 OA
ENDBRANCH  18  21
ENDBRANCH   1  19
TORSDOF 3
ENDMDL
MODEL 7
REMARK VINA RESULT:      -8.3      3.831      5.849
REMARK  Name = 
REMARK  3 active torsions:
REMARK  status: ('A' for Active; 'I' for Inactive)
REMARK    1  A    between atoms: C_2  and  C_19
REMARK    2  A    between atoms: N_3  and  C_4
REMARK    3  A    between atoms: C_8  and  C_9
REMARK                            x       y       z     vdW  Elec       q    Type
REMARK                         _______ _______ _______ _____ _____    ______ ____
ROOT
ATOM      1  C   UNL     1       1.120  10.533  18.471  0.00  0.00    +0.000 A 
ATOM      2  C   UNL     1       1.797  11.745  18.623  0.00  0.00    +0.000 A 
ATOM      3  C   UNL     1       1.100  12.934  18.852  0.00  0.00    +0.000 A 
ATOM      4  C   UNL     1      -0.293  12.933  18.920  0.00  0.00    +0.000 A 
ATOM      5  C   UNL     1      -1.017  11.747  18.742  0.00  0.00    +0.000 A 
ATOM      6  C   UNL     1      -0.290  10.549  18.519  0.00  0.00    +0.000 A 
ENDROOT
BRANCH   5   7
ATOM      7  C   UNL     1      -2.498  11.804  18.779  0.00  0.00    +0.000 A 
ATOM      8  N   UNL     1      -3.335  11.159  17.979  0.00  0.00    +0.000 NA
ATOM      9  C   UNL     1      -4.610  11.502  18.388  0.00  0.00    +0.000 A 
ATOM     10  C   UNL     1      -5.870  11.108  17.904  0.00  0.00    +0.000 A 
ATOM     11  C   UNL     1      -7.023  11.621  18.522  0.00  0.00    +0.000 A 
ATOM     12  C   UNL     1      -6.925  12.505  19.601  0.00  0.00    +0.000 A 
ATOM     13  C   UNL     1      -5.676  12.900  20.093  0.00  0.00    +0.000 A 
ATOM     14  C   UNL     1      -4.553  12.379  19.460  0.00  0.00    +0.000 A 
ATOM     15  N   UNL     1      -3.216  12.555  19.679  0.00  0.00    +0.000 N 
ATOM     16  H   UNL     1      -2.821  13.146  20.389  0.00  0.00    +0.000 HD
ENDBRANCH   5   7
BRANCH   1  19
ATOM     17  O   UNL     1       1.549   8.266  20.308  0.00  0.00    +0.000 OA
ATOM     18  C   UNL     1       2.005   8.283  19.165  0.00  0.00    +0.000 C 
ATOM     19  N   UNL     1       1.794   9.299  18.236  0.00  0.00    +0.000 N 
ATOM     20  H   UNL     1       2.075   9.087  17.285  0.00  0.00    +0.000 HD
BRANCH  18  21
ATOM     21  C   UNL     1       2.972   7.166  18.702  0.00  0.00    +0.000 C 
ATOM     22  C   UNL     1       2.277   5.790  18.832  0.00  0.00    +0.000 C 
ATOM     23  O   UNL     1       2.610   4.798  17.853  0.00  0.00    +0.000 OA
ATOM     24  C   UNL     1       3.826   5.023  17.283  0.00  0.00    +0.000 A 
ATOM     25  C   UNL     1       4.574   3.916  16.890  0.00  0.00    +0.000 A 
ATOM     26  C   UNL     1       5.834   4.103  16.324  0.00  0.00    +0.000 A 
ATOM     27  C   UNL     1       6.319   5.396  16.118  0.00  0.00    +0.000 A 
ATOM     28  C   UNL     1       5.543   6.506  16.469  0.00  0.00    +0.000 A 
ATOM     29  C   UNL     1       4.302   6.314  17.067  0.00  0.00    +0.000 A 
ATOM     30  O   UNL     1       3.551   7.409  17.420  0.00  0.00    +0.000 OA
ENDBRANCH  18  21
ENDBRANCH   1  19
TORSDOF 3
ENDMDL
MODEL 8
REMARK VINA RESULT:      -8.2      2.667      9.833
REMARK  Name = 
REMARK  3 active torsions:
REMARK  status: ('A' for Active; 'I' for Inactive)
REMARK    1  A    between atoms: C_2  and  C_19
REMARK    2  A    between atoms: N_3  and  C_4
REMARK    3  A    between atoms: C_8  and  C_9
REMARK                            x       y       z     vdW  Elec       q    Type
REMARK                         _______ _______ _______ _____ _____    ______ ____
ROOT
ATOM      1  C   UNL     1       3.178   5.818  19.144  0.00  0.00    +0.000 A 
ATOM      2  C   UNL     1       3.338   4.699  19.964  0.00  0.00    +0.000 A 
ATOM      3  C   UNL     1       4.158   3.635  19.577  0.00  0.00    +0.000 A 
ATOM      4  C   UNL     1       4.824   3.668  18.353  0.00  0.00    +0.000 A 
ATOM      5  C   UNL     1       4.669   4.755  17.483  0.00  0.00    +0.000 A 
ATOM      6  C   UNL     1       3.840   5.828  17.898  0.00  0.00    +0.000 A 
ENDROOT
BRANCH   5   7
ATOM      7  C   UNL     1       5.363   4.723  16.173  0.00  0.00    +0.000 A 
ATOM      8  N   UNL     1       6.380   5.486  15.798  0.00  0.00    +0.000 NA
ATOM      9  C   UNL     1       6.706   5.099  14.511  0.00  0.00    +0.000 A 
ATOM     10  C   UNL     1       7.703   5.561  13.635  0.00  0.00    +0.000 A 
ATOM     11  C   UNL     1       7.811   4.976  12.363  0.00  0.00    +0.000 A 
ATOM     12  C   UNL     1       6.946   3.949  11.971  0.00  0.00    +0.000 A 
ATOM     13  C   UNL     1       5.952   3.478  12.837  0.00  0.00    +0.000 A 
ATOM     14  C   UNL     1       5.868   4.079  14.088  0.00  0.00    +0.000 A 
ATOM     15  N   UNL     1       5.033   3.869  15.148  0.00  0.00    +0.000 N 
ATOM     16  H   UNL     1       4.290   3.193  15.172  0.00  0.00    +0.000 HD
ENDBRANCH   5   7
BRANCH   1  19
ATOM     17  O   UNL     1       2.616   8.289  17.635  0.00  0.00    +0.000 OA
ATOM     18  C   UNL     1       2.164   8.088  18.762  0.00  0.00    +0.000 C 
ATOM     19  N   UNL     1       2.351   6.922  19.502  0.00  0.00    +0.000 N 
ATOM     20  H   UNL     1       1.769   6.830  20.328  0.00  0.00    +0.000 HD
BRANCH  18  21
ATOM     21  C   UNL     1       1.405   9.215  19.503  0.00  0.00    +0.000 C 
ATOM     22  C   UNL     1       0.675  10.113  18.476  0.00  0.00    +0.000 C 
ATOM     23  O   UNL     1      -0.581  10.673  18.877  0.00  0.00    +0.000 OA
ATOM     24  C   UNL     1      -0.698  10.759  20.231  0.00  0.00    +0.000 A 
ATOM     25  C   UNL     1      -1.438  11.817  20.754  0.00  0.00    +0.000 A 
ATOM     26  C   UNL     1      -1.563  11.953  22.135  0.00  0.00    +0.000 A 
ATOM     27  C   UNL     1      -0.981  11.007  22.983  0.00  0.00    +0.000 A 
ATOM     28  C   UNL     1      -0.281   9.919  22.451  0.00  0.00    +0.000 A 
ATOM     29  C   UNL     1      -0.129   9.808  21.074  0.00  0.00    +0.000 A 
ATOM     30  O   UNL     1       0.571   8.742  20.560  0.00  0.00    +0.000 OA
ENDBRANCH  18  21
ENDBRANCH   1  19
TORSDOF 3
ENDMDL
MODEL 9
REMARK VINA RESULT:      -8.2      2.773      9.947
REMARK  Name = 
REMARK  3 active torsions:
REMARK  status: ('A' for Active; 'I' for Inactive)
REMARK    1  A    between atoms: C_2  and  C_19
REMARK    2  A    between atoms: N_3  and  C_4
REMARK    3  A    between atoms: C_8  and  C_9
REMARK                            x       y       z     vdW  Elec       q    Type
REMARK                         _______ _______ _______ _____ _____    ______ ____
ROOT
ATOM      1  C   UNL     1       3.459   5.759  19.226  0.00  0.00    +0.000 A 
ATOM      2  C   UNL     1       3.334   4.522  19.862  0.00  0.00    +0.000 A 
ATOM      3  C   UNL     1       3.893   3.368  19.307  0.00  0.00    +0.000 A 
ATOM      4  C   UNL     1       4.581   3.430  18.096  0.00  0.00    +0.000 A 
ATOM      5  C   UNL     1       4.706   4.643  17.406  0.00  0.00    +0.000 A 
ATOM      6  C   UNL     1       4.138   5.804  17.990  0.00  0.00    +0.000 A 
ENDROOT
BRANCH   5   7
ATOM      7  C   UNL     1       5.407   4.650  16.100  0.00  0.00    +0.000 A 
ATOM      8  N   UNL     1       6.412   5.438  15.745  0.00  0.00    +0.000 NA
ATOM      9  C   UNL     1       6.752   5.083  14.453  0.00  0.00    +0.000 A 
ATOM     10  C   UNL     1       7.745   5.581  13.592  0.00  0.00    +0.000 A 
ATOM     11  C   UNL     1       7.871   5.023  12.309  0.00  0.00    +0.000 A 
ATOM     12  C   UNL     1       7.027   3.989  11.892  0.00  0.00    +0.000 A 
ATOM     13  C   UNL     1       6.038   3.483  12.742  0.00  0.00    +0.000 A 
ATOM     14  C   UNL     1       5.935   4.057  14.005  0.00  0.00    +0.000 A 
ATOM     15  N   UNL     1       5.098   3.810  15.056  0.00  0.00    +0.000 N 
ATOM     16  H   UNL     1       4.368   3.121  15.061  0.00  0.00    +0.000 HD
ENDBRANCH   5   7
BRANCH   1  19
ATOM     17  O   UNL     1       1.170   6.099  21.054  0.00  0.00    +0.000 OA
ATOM     18  C   UNL     1       1.784   7.055  20.584  0.00  0.00    +0.000 C 
ATOM     19  N   UNL     1       2.903   6.958  19.758  0.00  0.00    +0.000 N 
ATOM     20  H   UNL     1       3.408   7.824  19.603  0.00  0.00    +0.000 HD
BRANCH  18  21
ATOM     21  C   UNL     1       1.266   8.496  20.812  0.00  0.00    +0.000 C 
ATOM     22  C   UNL     1       1.135   9.223  19.454  0.00  0.00    +0.000 C 
ATOM     23  O   UNL     1       0.064  10.166  19.321  0.00  0.00    +0.000 OA
ATOM     24  C   UNL     1      -0.348  10.651  20.524  0.00  0.00    +0.000 A 
ATOM     25  C   UNL     1      -0.818  11.962  20.570  0.00  0.00    +0.000 A 
ATOM     26  C   UNL     1      -1.227  12.504  21.787  0.00  0.00    +0.000 A 
ATOM     27  C   UNL     1      -1.203  11.718  22.942  0.00  0.00    +0.000 A 
ATOM     28  C   UNL     1      -0.778  10.386  22.881  0.00  0.00    +0.000 A 
ATOM     29  C   UNL     1      -0.335   9.862  21.672  0.00  0.00    +0.000 A 
ATOM     30  O   UNL     1       0.092   8.557  21.623  0.00  0.00    +0.000 OA
ENDBRANCH  18  21
ENDBRANCH   1  19
TORSDOF 3
ENDMDL
