MODEL 1
REMARK VINA RESULT:      -9.0      0.000      0.000
REMARK  Name = 
REMARK  6 active torsions:
REMARK  status: ('A' for Active; 'I' for Inactive)
REMARK    1  A    between atoms: C_2  and  C_4
REMARK    2  A    between atoms: C_8  and  C_9
REMARK    3  A    between atoms: C_9  and  S_10
REMARK    4  A    between atoms: S_10  and  C_11
REMARK    5  A    between atoms: N_21  and  C_22
REMARK    6  A    between atoms: C_22  and  C_23
REMARK                            x       y       z     vdW  Elec       q    Type
REMARK                         _______ _______ _______ _____ _____    ______ ____
ROOT
ATOM      1  C   UNL     1       2.730   6.570  18.676  0.00  0.00    +0.000 A 
ATOM      2  N   UNL     1       2.422   6.349  19.922  0.00  0.00    +0.000 NA
ATOM      3  C   UNL     1       2.127   4.987  20.248  0.00  0.00    +0.000 A 
ATOM      4  C   UNL     1       2.263   4.455  21.529  0.00  0.00    +0.000 A 
ATOM      5  C   UNL     1       1.856   3.133  21.793  0.00  0.00    +0.000 A 
ATOM      6  C   UNL     1       1.263   2.351  20.794  0.00  0.00    +0.000 A 
ATOM      7  C   UNL     1       1.172   2.845  19.498  0.00  0.00    +0.000 A 
ATOM      8  C   UNL     1       1.669   4.123  19.242  0.00  0.00    +0.000 A 
ATOM      9  C   UNL     1       1.926   4.598  17.869  0.00  0.00    +0.000 A 
ATOM     10  O   UNL     1       1.230   4.235  16.931  0.00  0.00    +0.000 OA
ATOM     11  N   UNL     1       2.960   5.521  17.778  0.00  0.00    +0.000 N 
ENDROOT
BRANCH   1  12
ATOM     12  S   UNL     1       2.928   8.174  17.955  0.00  0.00    +0.000 S 
BRANCH  12  13
ATOM     13  C   UNL     1       1.259   8.756  17.447  0.00  0.00    +0.000 C 
BRANCH  13  18
ATOM     14  C   UNL     1      -1.296  11.105  19.264  0.00  0.00    +0.000 A 
ATOM     15  C   UNL     1      -0.727  11.175  20.539  0.00  0.00    +0.000 A 
ATOM     16  C   UNL     1       0.447  10.477  20.813  0.00  0.00    +0.000 A 
ATOM     17  C   UNL     1       1.062   9.697  19.820  0.00  0.00    +0.000 A 
ATOM     18  C   UNL     1       0.517   9.582  18.527  0.00  0.00    +0.000 A 
ATOM     19  C   UNL     1      -0.676  10.309  18.264  0.00  0.00    +0.000 A 
BRANCH  14  21
ATOM     20  N   UNL     1      -3.010  12.009  17.779  0.00  0.00    +0.000 N 
ATOM     21  C   UNL     1      -2.540  11.913  19.060  0.00  0.00    +0.000 C 
ATOM     22  O   UNL     1      -3.158  12.416  19.982  0.00  0.00    +0.000 OA
ATOM     23  H   UNL     1      -3.922  12.438  17.674  0.00  0.00    +0.000 HD
ATOM     24  H   UNL     1      -2.682  11.414  17.038  0.00  0.00    +0.000 HD
ENDBRANCH  14  21
ENDBRANCH  13  18
ENDBRANCH  12  13
ENDBRANCH   1  12
BRANCH  11  25
ATOM     25  C   UNL     1       4.303   4.920  17.978  0.00  0.00    +0.000 C 
BRANCH  25  26
ATOM     26  C   UNL     1       5.269   4.815  16.810  0.00  0.00    +0.000 A 
ATOM     27  C   UNL     1       5.060   4.007  15.685  0.00  0.00    +0.000 A 
ATOM     28  C   UNL     1       5.938   4.086  14.602  0.00  0.00    +0.000 A 
ATOM     29  C   UNL     1       7.001   4.971  14.656  0.00  0.00    +0.000 A 
ATOM     30  N   UNL     1       7.247   5.761  15.718  0.00  0.00    +0.000 NA
ATOM     31  C   UNL     1       6.383   5.670  16.760  0.00  0.00    +0.000 A 
ENDBRANCH  25  26
ENDBRANCH  11  25
TORSDOF 6
ENDMDL
MODEL 2
REMARK VINA RESULT:      -9.0      1.673      1.920
REMARK  Name = 
REMARK  6 active torsions:
REMARK  status: ('A' for Active; 'I' for Inactive)
REMARK    1  A    between atoms: C_2  and  C_4
REMARK    2  A    between atoms: C_8  and  C_9
REMARK    3  A    between atoms: C_9  and  S_10
REMARK    4  A    between atoms: S_10  and  C_11
REMARK    5  A    between atoms: N_21  and  C_22
REMARK    6  A    between atoms: C_22  and  C_23
REMARK                            x       y       z     vdW  Elec       q    Type
REMARK                         _______ _______ _______ _____ _____    ______ ____
ROOT
ATOM      1  C   UNL     1       2.640   6.663  18.681  0.00  0.00    +0.000 A 
ATOM      2  N   UNL     1       2.311   6.435  19.921  0.00  0.00    +0.000 NA
ATOM      3  C   UNL     1       2.121   5.058  20.260  0.00  0.00    +0.000 A 
ATOM      4  C   UNL     1       2.260   4.557  21.554  0.00  0.00    +0.000 A 
ATOM      5  C   UNL     1       1.957   3.209  21.828  0.00  0.00    +0.000 A 
ATOM      6  C   UNL     1       1.466   2.366  20.824  0.00  0.00    +0.000 A 
ATOM      7  C   UNL     1       1.378   2.831  19.518  0.00  0.00    +0.000 A 
ATOM      8  C   UNL     1       1.773   4.143  19.255  0.00  0.00    +0.000 A 
ATOM      9  C   UNL     1       2.035   4.618  17.884  0.00  0.00    +0.000 A 
ATOM     10  O   UNL     1       1.403   4.183  16.930  0.00  0.00    +0.000 OA
ATOM     11  N   UNL     1       2.989   5.625  17.810  0.00  0.00    +0.000 N 
ENDROOT
BRANCH   1  12
ATOM     12  S   UNL     1       2.726   8.268  17.940  0.00  0.00    +0.000 S 
BRANCH  12  13
ATOM     13  C   UNL     1       1.003   8.892  17.788  0.00  0.00    +0.000 C 
BRANCH  13  18
ATOM     14  C   UNL     1      -0.128  10.567  21.144  0.00  0.00    +0.000 A 
ATOM     15  C   UNL     1      -0.228  11.905  20.749  0.00  0.00    +0.000 A 
ATOM     16  C   UNL     1       0.069  12.263  19.436  0.00  0.00    +0.000 A 
ATOM     17  C   UNL     1       0.475  11.293  18.504  0.00  0.00    +0.000 A 
ATOM     18  C   UNL     1       0.607   9.936  18.860  0.00  0.00    +0.000 A 
ATOM     19  C   UNL     1       0.290   9.589  20.202  0.00  0.00    +0.000 A 
BRANCH  14  21
ATOM     20  N   UNL     1      -0.663   8.964  22.905  0.00  0.00    +0.000 N 
ATOM     21  C   UNL     1      -0.496  10.278  22.566  0.00  0.00    +0.000 C 
ATOM     22  O   UNL     1      -0.585  11.150  23.414  0.00  0.00    +0.000 OA
ATOM     23  H   UNL     1      -0.773   8.773  23.894  0.00  0.00    +0.000 HD
ATOM     24  H   UNL     1      -0.359   8.211  22.311  0.00  0.00    +0.000 HD
ENDBRANCH  14  21
ENDBRANCH  13  18
ENDBRANCH  12  13
ENDBRANCH   1  12
BRANCH  11  25
ATOM     25  C   UNL     1       4.371   5.143  18.063  0.00  0.00    +0.000 C 
BRANCH  25  26
ATOM     26  C   UNL     1       5.310   4.885  16.897  0.00  0.00    +0.000 A 
ATOM     27  C   UNL     1       4.935   4.973  15.550  0.00  0.00    +0.000 A 
ATOM     28  C   UNL     1       5.904   4.854  14.552  0.00  0.00    +0.000 A 
ATOM     29  C   UNL     1       7.226   4.656  14.913  0.00  0.00    +0.000 A 
ATOM     30  N   UNL     1       7.633   4.556  16.193  0.00  0.00    +0.000 NA
ATOM     31  C   UNL     1       6.676   4.674  17.148  0.00  0.00    +0.000 A 
ENDBRANCH  25  26
ENDBRANCH  11  25
TORSDOF 6
ENDMDL
MODEL 3
REMARK VINA RESULT:      -8.9      1.408      1.719
REMARK  Name = 
REMARK  6 active torsions:
REMARK  status: ('A' for Active; 'I' for Inactive)
REMARK    1  A    between atoms: C_2  and  C_4
REMARK    2  A    between atoms: C_8  and  C_9
REMARK    3  A    between atoms: C_9  and  S_10
REMARK    4  A    between atoms: S_10  and  C_11
REMARK    5  A    between atoms: N_21  and  C_22
REMARK    6  A    between atoms: C_22  and  C_23
REMARK                            x       y       z     vdW  Elec       q    Type
REMARK                         _______ _______ _______ _____ _____    ______ ____
ROOT
ATOM      1  C   UNL     1       2.251   6.778  18.889  0.00  0.00    +0.000 A 
ATOM      2  N   UNL     1       1.921   6.390  20.088  0.00  0.00    +0.000 NA
ATOM      3  C   UNL     1       1.993   4.979  20.316  0.00  0.00    +0.000 A 
ATOM      4  C   UNL     1       2.173   4.411  21.576  0.00  0.00    +0.000 A 
ATOM      5  C   UNL     1       2.132   3.012  21.734  0.00  0.00    +0.000 A 
ATOM      6  C   UNL     1       1.860   2.174  20.646  0.00  0.00    +0.000 A 
ATOM      7  C   UNL     1       1.737   2.719  19.374  0.00  0.00    +0.000 A 
ATOM      8  C   UNL     1       1.875   4.100  19.229  0.00  0.00    +0.000 A 
ATOM      9  C   UNL     1       2.096   4.727  17.913  0.00  0.00    +0.000 A 
ATOM     10  O   UNL     1       1.604   4.257  16.896  0.00  0.00    +0.000 OA
ATOM     11  N   UNL     1       2.835   5.902  17.967  0.00  0.00    +0.000 N 
ENDROOT
BRANCH   1  12
ATOM     12  S   UNL     1       2.049   8.424  18.270  0.00  0.00    +0.000 S 
BRANCH  12  13
ATOM     13  C   UNL     1       1.239   9.410  19.595  0.00  0.00    +0.000 C 
BRANCH  13  18
ATOM     14  C   UNL     1      -1.814  10.677  17.492  0.00  0.00    +0.000 A 
ATOM     15  C   UNL     1      -2.275  11.720  18.302  0.00  0.00    +0.000 A 
ATOM     16  C   UNL     1      -1.625  12.005  19.500  0.00  0.00    +0.000 A 
ATOM     17  C   UNL     1      -0.513  11.250  19.908  0.00  0.00    +0.000 A 
ATOM     18  C   UNL     1      -0.023  10.180  19.135  0.00  0.00    +0.000 A 
ATOM     19  C   UNL     1      -0.693   9.911  17.910  0.00  0.00    +0.000 A 
BRANCH  14  21
ATOM     20  N   UNL     1      -3.387  11.478  15.806  0.00  0.00    +0.000 N 
ATOM     21  C   UNL     1      -2.559  10.468  16.210  0.00  0.00    +0.000 C 
ATOM     22  O   UNL     1      -2.403   9.481  15.511  0.00  0.00    +0.000 OA
ATOM     23  H   UNL     1      -3.775  11.385  14.875  0.00  0.00    +0.000 HD
ATOM     24  H   UNL     1      -3.355  12.397  16.213  0.00  0.00    +0.000 HD
ENDBRANCH  14  21
ENDBRANCH  13  18
ENDBRANCH  12  13
ENDBRANCH   1  12
BRANCH  11  25
ATOM     25  C   UNL     1       4.273   5.678  18.264  0.00  0.00    +0.000 C 
BRANCH  25  26
ATOM     26  C   UNL     1       5.220   5.257  17.154  0.00  0.00    +0.000 A 
ATOM     27  C   UNL     1       4.950   5.411  15.787  0.00  0.00    +0.000 A 
ATOM     28  C   UNL     1       5.942   5.122  14.848  0.00  0.00    +0.000 A 
ATOM     29  C   UNL     1       7.183   4.691  15.286  0.00  0.00    +0.000 A 
ATOM     30  N   UNL     1       7.486   4.519  16.586  0.00  0.00    +0.000 NA
ATOM     31  C   UNL     1       6.509   4.806  17.483  0.00  0.00    +0.000 A 
ENDBRANCH  25  26
ENDBRANCH  11  25
TORSDOF 6
ENDMDL
MODEL 4
REMARK VINA RESULT:      -8.9      2.173      2.499
REMARK  Name = 
REMARK  6 active torsions:
REMARK  status: ('A' for Active; 'I' for Inactive)
REMARK    1  A    between atoms: C_2  and  C_4
REMARK    2  A    between atoms: C_8  and  C_9
REMARK    3  A    between atoms: C_9  and  S_10
REMARK    4  A    between atoms: S_10  and  C_11
REMARK    5  A    between atoms: N_21  and  C_22
REMARK    6  A    between atoms: C_22  and  C_23
REMARK                            x       y       z     vdW  Elec       q    Type
REMARK                         _______ _______ _______ _____ _____    ______ ____
ROOT
ATOM      1  C   UNL     1       2.948   6.326  18.590  0.00  0.00    +0.000 A 
ATOM      2  N   UNL     1       2.759   6.145  19.866  0.00  0.00    +0.000 NA
ATOM      3  C   UNL     1       2.293   4.844  20.237  0.00  0.00    +0.000 A 
ATOM      4  C   UNL     1       2.494   4.285  21.498  0.00  0.00    +0.000 A 
ATOM      5  C   UNL     1       1.918   3.041  21.821  0.00  0.00    +0.000 A 
ATOM      6  C   UNL     1       1.097   2.371  20.907  0.00  0.00    +0.000 A 
ATOM      7  C   UNL     1       0.933   2.884  19.626  0.00  0.00    +0.000 A 
ATOM      8  C   UNL     1       1.591   4.072  19.300  0.00  0.00    +0.000 A 
ATOM      9  C   UNL     1       1.756   4.512  17.903  0.00  0.00    +0.000 A 
ATOM     10  O   UNL     1       0.906   4.271  17.056  0.00  0.00    +0.000 OA
ATOM     11  N   UNL     1       2.904   5.262  17.682  0.00  0.00    +0.000 N 
ENDROOT
BRANCH   1  12
ATOM     12  S   UNL     1       3.310   7.886  17.835  0.00  0.00    +0.000 S 
BRANCH  12  13
ATOM     13  C   UNL     1       1.718   8.787  17.653  0.00  0.00    +0.000 C 
BRANCH  13  18
ATOM     14  C   UNL     1       0.510  10.089  21.145  0.00  0.00    +0.000 A 
ATOM     15  C   UNL     1       0.628  11.471  20.965  0.00  0.00    +0.000 A 
ATOM     16  C   UNL     1       1.093  11.974  19.752  0.00  0.00    +0.000 A 
ATOM     17  C   UNL     1       1.452  11.105  18.709  0.00  0.00    +0.000 A 
ATOM     18  C   UNL     1       1.366   9.706  18.849  0.00  0.00    +0.000 A 
ATOM     19  C   UNL     1       0.879   9.212  20.090  0.00  0.00    +0.000 A 
BRANCH  14  21
ATOM     20  N   UNL     1      -0.728   8.474  22.494  0.00  0.00    +0.000 N 
ATOM     21  C   UNL     1      -0.027   9.648  22.472  0.00  0.00    +0.000 C 
ATOM     22  O   UNL     1       0.192  10.255  23.506  0.00  0.00    +0.000 OA
ATOM     23  H   UNL     1      -0.964   8.118  23.412  0.00  0.00    +0.000 HD
ATOM     24  H   UNL     1      -0.718   7.826  21.725  0.00  0.00    +0.000 HD
ENDBRANCH  14  21
ENDBRANCH  13  18
ENDBRANCH  12  13
ENDBRANCH   1  12
BRANCH  11  25
ATOM     25  C   UNL     1       4.150   4.455  17.728  0.00  0.00    +0.000 C 
BRANCH  25  26
ATOM     26  C   UNL     1       5.491   5.141  17.925  0.00  0.00    +0.000 A 
ATOM     27  C   UNL     1       6.064   6.029  17.004  0.00  0.00    +0.000 A 
ATOM     28  C   UNL     1       7.233   6.715  17.339  0.00  0.00    +0.000 A 
ATOM     29  C   UNL     1       7.806   6.509  18.582  0.00  0.00    +0.000 A 
ATOM     30  N   UNL     1       7.298   5.661  19.496  0.00  0.00    +0.000 NA
ATOM     31  C   UNL     1       6.161   5.004  19.152  0.00  0.00    +0.000 A 
ENDBRANCH  25  26
ENDBRANCH  11  25
TORSDOF 6
ENDMDL
MODEL 5
REMARK VINA RESULT:      -8.8      1.044      1.449
REMARK  Name = 
REMARK  6 active torsions:
REMARK  status: ('A' for Active; 'I' for Inactive)
REMARK    1  A    between atoms: C_2  and  C_4
REMARK    2  A    between atoms: C_8  and  C_9
REMARK    3  A    between atoms: C_9  and  S_10
REMARK    4  A    between atoms: S_10  and  C_11
REMARK    5  A    between atoms: N_21  and  C_22
REMARK    6  A    between atoms: C_22  and  C_23
REMARK                            x       y       z     vdW  Elec       q    Type
REMARK                         _______ _______ _______ _____ _____    ______ ____
ROOT
ATOM      1  C   UNL     1       2.722   6.503  18.675  0.00  0.00    +0.000 A 
ATOM      2  N   UNL     1       2.532   6.241  19.937  0.00  0.00    +0.000 NA
ATOM      3  C   UNL     1       2.179   4.886  20.234  0.00  0.00    +0.000 A 
ATOM      4  C   UNL     1       2.412   4.284  21.470  0.00  0.00    +0.000 A 
ATOM      5  C   UNL     1       1.945   2.979  21.720  0.00  0.00    +0.000 A 
ATOM      6  C   UNL     1       1.199   2.287  20.758  0.00  0.00    +0.000 A 
ATOM      7  C   UNL     1       1.008   2.848  19.501  0.00  0.00    +0.000 A 
ATOM      8  C   UNL     1       1.562   4.104  19.247  0.00  0.00    +0.000 A 
ATOM      9  C   UNL     1       1.707   4.628  17.877  0.00  0.00    +0.000 A 
ATOM     10  O   UNL     1       0.893   4.356  17.004  0.00  0.00    +0.000 OA
ATOM     11  N   UNL     1       2.786   5.487  17.715  0.00  0.00    +0.000 N 
ENDROOT
BRANCH   1  12
ATOM     12  S   UNL     1       2.953   8.125  18.006  0.00  0.00    +0.000 S 
BRANCH  12  13
ATOM     13  C   UNL     1       1.302   8.739  17.478  0.00  0.00    +0.000 C 
BRANCH  13  18
ATOM     14  C   UNL     1      -1.239  11.106  19.291  0.00  0.00    +0.000 A 
ATOM     15  C   UNL     1      -0.715  11.111  20.588  0.00  0.00    +0.000 A 
ATOM     16  C   UNL     1       0.425  10.364  20.875  0.00  0.00    +0.000 A 
ATOM     17  C   UNL     1       1.051   9.600  19.876  0.00  0.00    +0.000 A 
ATOM     18  C   UNL     1       0.549   9.550  18.561  0.00  0.00    +0.000 A 
ATOM     19  C   UNL     1      -0.609  10.327  18.284  0.00  0.00    +0.000 A 
BRANCH  14  21
ATOM     20  N   UNL     1      -2.936  12.030  17.798  0.00  0.00    +0.000 N 
ATOM     21  C   UNL     1      -2.448  11.963  19.074  0.00  0.00    +0.000 C 
ATOM     22  O   UNL     1      -3.025  12.531  19.985  0.00  0.00    +0.000 OA
ATOM     23  H   UNL     1      -3.828  12.496  17.690  0.00  0.00    +0.000 HD
ATOM     24  H   UNL     1      -2.648  11.390  17.077  0.00  0.00    +0.000 HD
ENDBRANCH  14  21
ENDBRANCH  13  18
ENDBRANCH  12  13
ENDBRANCH   1  12
BRANCH  11  25
ATOM     25  C   UNL     1       4.098   4.793  17.744  0.00  0.00    +0.000 C 
BRANCH  25  26
ATOM     26  C   UNL     1       5.379   5.596  17.894  0.00  0.00    +0.000 A 
ATOM     27  C   UNL     1       6.283   5.446  18.953  0.00  0.00    +0.000 A 
ATOM     28  C   UNL     1       7.500   6.131  18.928  0.00  0.00    +0.000 A 
ATOM     29  C   UNL     1       7.794   6.947  17.850  0.00  0.00    +0.000 A 
ATOM     30  N   UNL     1       6.954   7.130  16.814  0.00  0.00    +0.000 NA
ATOM     31  C   UNL     1       5.777   6.455  16.856  0.00  0.00    +0.000 A 
ENDBRANCH  25  26
ENDBRANCH  11  25
TORSDOF 6
ENDMDL
MODEL 6
REMARK VINA RESULT:      -8.8      2.117      2.275
REMARK  Name = 
REMARK  6 active torsions:
REMARK  status: ('A' for Active; 'I' for Inactive)
REMARK    1  A    between atoms: C_2  and  C_4
REMARK    2  A    between atoms: C_8  and  C_9
REMARK    3  A    between atoms: C_9  and  S_10
REMARK    4  A    between atoms: S_10  and  C_11
REMARK    5  A    between atoms: N_21  and  C_22
REMARK    6  A    between atoms: C_22  and  C_23
REMARK                            x       y       z     vdW  Elec       q    Type
REMARK                         _______ _______ _______ _____ _____    ______ ____
ROOT
ATOM      1  C   UNL     1       2.702   6.552  18.625  0.00  0.00    +0.000 A 
ATOM      2  N   UNL     1       2.399   6.342  19.874  0.00  0.00    +0.000 NA
ATOM      3  C   UNL     1       2.145   4.977  20.221  0.00  0.00    +0.000 A 
ATOM      4  C   UNL     1       2.296   4.468  21.510  0.00  0.00    +0.000 A 
ATOM      5  C   UNL     1       1.929   3.138  21.794  0.00  0.00    +0.000 A 
ATOM      6  C   UNL     1       1.363   2.323  20.807  0.00  0.00    +0.000 A 
ATOM      7  C   UNL     1       1.260   2.794  19.503  0.00  0.00    +0.000 A 
ATOM      8  C   UNL     1       1.717   4.083  19.227  0.00  0.00    +0.000 A 
ATOM      9  C   UNL     1       1.962   4.545  17.848  0.00  0.00    +0.000 A 
ATOM     10  O   UNL     1       1.278   4.145  16.915  0.00  0.00    +0.000 OA
ATOM     11  N   UNL     1       2.966   5.498  17.745  0.00  0.00    +0.000 N 
ENDROOT
BRANCH   1  12
ATOM     12  S   UNL     1       2.852   8.151  17.880  0.00  0.00    +0.000 S 
BRANCH  12  13
ATOM     13  C   UNL     1       1.164   8.878  17.801  0.00  0.00    +0.000 C 
BRANCH  13  18
ATOM     14  C   UNL     1       1.860  12.531  19.033  0.00  0.00    +0.000 A 
ATOM     15  C   UNL     1       0.777  12.728  19.896  0.00  0.00    +0.000 A 
ATOM     16  C   UNL     1      -0.160  11.712  20.073  0.00  0.00    +0.000 A 
ATOM     17  C   UNL     1      -0.032  10.494  19.386  0.00  0.00    +0.000 A 
ATOM     18  C   UNL     1       1.031  10.256  18.494  0.00  0.00    +0.000 A 
ATOM     19  C   UNL     1       1.983  11.300  18.335  0.00  0.00    +0.000 A 
BRANCH  14  21
ATOM     20  N   UNL     1       3.477  13.823  17.739  0.00  0.00    +0.000 N 
ATOM     21  C   UNL     1       2.829  13.668  18.933  0.00  0.00    +0.000 C 
ATOM     22  O   UNL     1       3.001  14.468  19.837  0.00  0.00    +0.000 OA
ATOM     23  H   UNL     1       4.021  14.672  17.639  0.00  0.00    +0.000 HD
ATOM     24  H   UNL     1       3.185  13.349  16.902  0.00  0.00    +0.000 HD
ENDBRANCH  14  21
ENDBRANCH  13  18
ENDBRANCH  12  13
ENDBRANCH   1  12
BRANCH  11  25
ATOM     25  C   UNL     1       4.327   4.942  17.955  0.00  0.00    +0.000 C 
BRANCH  25  26
ATOM     26  C   UNL     1       5.285   4.815  16.782  0.00  0.00    +0.000 A 
ATOM     27  C   UNL     1       5.013   4.083  15.619  0.00  0.00    +0.000 A 
ATOM     28  C   UNL     1       5.897   4.141  14.541  0.00  0.00    +0.000 A 
ATOM     29  C   UNL     1       7.031   4.930  14.638  0.00  0.00    +0.000 A 
ATOM     30  N   UNL     1       7.339   5.644  15.737  0.00  0.00    +0.000 NA
ATOM     31  C   UNL     1       6.466   5.574  16.774  0.00  0.00    +0.000 A 
ENDBRANCH  25  26
ENDBRANCH  11  25
TORSDOF 6
ENDMDL
MODEL 7
REMARK VINA RESULT:      -8.8      1.826      2.333
REMARK  Name = 
REMARK  6 active torsions:
REMARK  status: ('A' for Active; 'I' for Inactive)
REMARK    1  A    between atoms: C_2  and  C_4
REMARK    2  A    between atoms: C_8  and  C_9
REMARK    3  A    between atoms: C_9  and  S_10
REMARK    4  A    between atoms: S_10  and  C_11
REMARK    5  A    between atoms: N_21  and  C_22
REMARK    6  A    between atoms: C_22  and  C_23
REMARK                            x       y       z     vdW  Elec       q    Type
REMARK                         _______ _______ _______ _____ _____    ______ ____
ROOT
ATOM      1  C   UNL     1       2.734   6.498  18.667  0.00  0.00    +0.000 A 
ATOM      2  N   UNL     1       2.498   6.282  19.929  0.00  0.00    +0.000 NA
ATOM      3  C   UNL     1       2.136   4.938  20.263  0.00  0.00    +0.000 A 
ATOM      4  C   UNL     1       2.324   4.381  21.527  0.00  0.00    +0.000 A 
ATOM      5  C   UNL     1       1.849   3.085  21.806  0.00  0.00    +0.000 A 
ATOM      6  C   UNL     1       1.141   2.356  20.844  0.00  0.00    +0.000 A 
ATOM      7  C   UNL     1       0.996   2.871  19.561  0.00  0.00    +0.000 A 
ATOM      8  C   UNL     1       1.557   4.118  19.283  0.00  0.00    +0.000 A 
ATOM      9  C   UNL     1       1.752   4.593  17.900  0.00  0.00    +0.000 A 
ATOM     10  O   UNL     1       0.971   4.288  17.008  0.00  0.00    +0.000 OA
ATOM     11  N   UNL     1       2.835   5.448  17.747  0.00  0.00    +0.000 N 
ENDROOT
BRANCH   1  12
ATOM     12  S   UNL     1       2.988   8.096  17.948  0.00  0.00    +0.000 S 
BRANCH  12  13
ATOM     13  C   UNL     1       1.330   8.786  17.551  0.00  0.00    +0.000 C 
BRANCH  13  18
ATOM     14  C   UNL     1       0.261   9.916  21.147  0.00  0.00    +0.000 A 
ATOM     15  C   UNL     1      -0.728  10.857  20.843  0.00  0.00    +0.000 A 
ATOM     16  C   UNL     1      -1.039  11.128  19.513  0.00  0.00    +0.000 A 
ATOM     17  C   UNL     1      -0.364  10.471  18.472  0.00  0.00    +0.000 A 
ATOM     18  C   UNL     1       0.651   9.529  18.729  0.00  0.00    +0.000 A 
ATOM     19  C   UNL     1       0.948   9.257  20.092  0.00  0.00    +0.000 A 
BRANCH  14  21
ATOM     20  N   UNL     1      -0.599   9.629  23.414  0.00  0.00    +0.000 N 
ATOM     21  C   UNL     1       0.503   9.671  22.605  0.00  0.00    +0.000 C 
ATOM     22  O   UNL     1       1.612   9.452  23.060  0.00  0.00    +0.000 OA
ATOM     23  H   UNL     1      -0.435   9.326  24.367  0.00  0.00    +0.000 HD
ATOM     24  H   UNL     1      -1.533   9.554  23.050  0.00  0.00    +0.000 HD
ENDBRANCH  14  21
ENDBRANCH  13  18
ENDBRANCH  12  13
ENDBRANCH   1  12
BRANCH  11  25
ATOM     25  C   UNL     1       4.146   4.759  17.850  0.00  0.00    +0.000 C 
BRANCH  25  26
ATOM     26  C   UNL     1       5.166   4.897  16.732  0.00  0.00    +0.000 A 
ATOM     27  C   UNL     1       6.296   5.723  16.794  0.00  0.00    +0.000 A 
ATOM     28  C   UNL     1       7.246   5.676  15.773  0.00  0.00    +0.000 A 
ATOM     29  C   UNL     1       7.057   4.805  14.713  0.00  0.00    +0.000 A 
ATOM     30  N   UNL     1       5.984   3.999  14.605  0.00  0.00    +0.000 NA
ATOM     31  C   UNL     1       5.072   4.060  15.608  0.00  0.00    +0.000 A 
ENDBRANCH  25  26
ENDBRANCH  11  25
TORSDOF 6
ENDMDL
MODEL 8
REMARK VINA RESULT:      -8.7      1.048      1.048
REMARK  Name = 
REMARK  6 active torsions:
REMARK  status: ('A' for Active; 'I' for Inactive)
REMARK    1  A    between atoms: C_2  and  C_4
REMARK    2  A    between atoms: C_8  and  C_9
REMARK    3  A    between atoms: C_9  and  S_10
REMARK    4  A    between atoms: S_10  and  C_11
REMARK    5  A    between atoms: N_21  and  C_22
REMARK    6  A    between atoms: C_22  and  C_23
REMARK                            x       y       z     vdW  Elec       q    Type
REMARK                         _______ _______ _______ _____ _____    ______ ____
ROOT
ATOM      1  C   UNL     1       2.656   6.603  18.668  0.00  0.00    +0.000 A 
ATOM      2  N   UNL     1       2.347   6.374  19.912  0.00  0.00    +0.000 NA
ATOM      3  C   UNL     1       2.125   5.000  20.244  0.00  0.00    +0.000 A 
ATOM      4  C   UNL     1       2.276   4.484  21.531  0.00  0.00    +0.000 A 
ATOM      5  C   UNL     1       1.941   3.143  21.799  0.00  0.00    +0.000 A 
ATOM      6  C   UNL     1       1.405   2.322  20.800  0.00  0.00    +0.000 A 
ATOM      7  C   UNL     1       1.302   2.801  19.500  0.00  0.00    +0.000 A 
ATOM      8  C   UNL     1       1.728   4.105  19.239  0.00  0.00    +0.000 A 
ATOM      9  C   UNL     1       1.975   4.584  17.867  0.00  0.00    +0.000 A 
ATOM     10  O   UNL     1       1.311   4.176  16.923  0.00  0.00    +0.000 OA
ATOM     11  N   UNL     1       2.956   5.563  17.781  0.00  0.00    +0.000 N 
ENDROOT
BRANCH   1  12
ATOM     12  S   UNL     1       2.771   8.212  17.938  0.00  0.00    +0.000 S 
BRANCH  12  13
ATOM     13  C   UNL     1       1.057   8.849  17.744  0.00  0.00    +0.000 C 
BRANCH  13  18
ATOM     14  C   UNL     1      -0.278  12.046  19.573  0.00  0.00    +0.000 A 
ATOM     15  C   UNL     1      -0.038  11.704  20.908  0.00  0.00    +0.000 A 
ATOM     16  C   UNL     1       0.533  10.472  21.214  0.00  0.00    +0.000 A 
ATOM     17  C   UNL     1       0.864   9.563  20.195  0.00  0.00    +0.000 A 
ATOM     18  C   UNL     1       0.625   9.856  18.838  0.00  0.00    +0.000 A 
ATOM     19  C   UNL     1       0.052  11.123  18.544  0.00  0.00    +0.000 A 
BRANCH  14  21
ATOM     20  N   UNL     1      -2.056  13.674  19.960  0.00  0.00    +0.000 N 
ATOM     21  C   UNL     1      -0.866  13.404  19.343  0.00  0.00    +0.000 C 
ATOM     22  O   UNL     1      -0.298  14.266  18.694  0.00  0.00    +0.000 OA
ATOM     23  H   UNL     1      -2.371  14.635  19.911  0.00  0.00    +0.000 HD
ATOM     24  H   UNL     1      -2.427  13.093  20.693  0.00  0.00    +0.000 HD
ENDBRANCH  14  21
ENDBRANCH  13  18
ENDBRANCH  12  13
ENDBRANCH   1  12
BRANCH  11  25
ATOM     25  C   UNL     1       4.328   5.040  18.000  0.00  0.00    +0.000 C 
BRANCH  25  26
ATOM     26  C   UNL     1       5.276   4.882  16.823  0.00  0.00    +0.000 A 
ATOM     27  C   UNL     1       5.008   4.094  15.696  0.00  0.00    +0.000 A 
ATOM     28  C   UNL     1       5.880   4.124  14.606  0.00  0.00    +0.000 A 
ATOM     29  C   UNL     1       6.998   4.939  14.657  0.00  0.00    +0.000 A 
ATOM     30  N   UNL     1       7.303   5.706  15.721  0.00  0.00    +0.000 NA
ATOM     31  C   UNL     1       6.442   5.663  16.769  0.00  0.00    +0.000 A 
ENDBRANCH  25  26
ENDBRANCH  11  25
TORSDOF 6
ENDMDL
MODEL 9
REMARK VINA RESULT:      -8.6      0.978      1.399
REMARK  Name = 
REMARK  6 active torsions:
REMARK  status: ('A' for Active; 'I' for Inactive)
REMARK    1  A    between atoms: C_2  and  C_4
REMARK    2  A    between atoms: C_8  and  C_9
REMARK    3  A    between atoms: C_9  and  S_10
REMARK    4  A    between atoms: S_10  and  C_11
REMARK    5  A    between atoms: N_21  and  C_22
REMARK    6  A    between atoms: C_22  and  C_23
REMARK                            x       y       z     vdW  Elec       q    Type
REMARK                         _______ _______ _______ _____ _____    ______ ____
ROOT
ATOM      1  C   UNL     1       2.429   6.691  18.665  0.00  0.00    +0.000 A 
ATOM      2  N   UNL     1       2.109   6.434  19.901  0.00  0.00    +0.000 NA
ATOM      3  C   UNL     1       2.059   5.045  20.244  0.00  0.00    +0.000 A 
ATOM      4  C   UNL     1       2.231   4.566  21.541  0.00  0.00    +0.000 A 
ATOM      5  C   UNL     1       2.068   3.195  21.817  0.00  0.00    +0.000 A 
ATOM      6  C   UNL     1       1.682   2.301  20.811  0.00  0.00    +0.000 A 
ATOM      7  C   UNL     1       1.563   2.750  19.501  0.00  0.00    +0.000 A 
ATOM      8  C   UNL     1       1.822   4.096  19.238  0.00  0.00    +0.000 A 
ATOM      9  C   UNL     1       2.051   4.592  17.868  0.00  0.00    +0.000 A 
ATOM     10  O   UNL     1       1.482   4.090  16.908  0.00  0.00    +0.000 OA
ATOM     11  N   UNL     1       2.896   5.692  17.803  0.00  0.00    +0.000 N 
ENDROOT
BRANCH   1  12
ATOM     12  S   UNL     1       2.356   8.294  17.917  0.00  0.00    +0.000 S 
BRANCH  12  13
ATOM     13  C   UNL     1       1.726   9.463  19.189  0.00  0.00    +0.000 C 
BRANCH  13  18
ATOM     14  C   UNL     1      -1.660  11.413  19.463  0.00  0.00    +0.000 A 
ATOM     15  C   UNL     1      -2.306  10.982  18.300  0.00  0.00    +0.000 A 
ATOM     16  C   UNL     1      -1.665  10.091  17.442  0.00  0.00    +0.000 A 
ATOM     17  C   UNL     1      -0.372   9.625  17.731  0.00  0.00    +0.000 A 
ATOM     18  C   UNL     1       0.325  10.045  18.881  0.00  0.00    +0.000 A 
ATOM     19  C   UNL     1      -0.349  10.946  19.749  0.00  0.00    +0.000 A 
BRANCH  14  21
ATOM     20  N   UNL     1      -1.926  12.611  21.574  0.00  0.00    +0.000 N 
ATOM     21  C   UNL     1      -2.442  12.346  20.335  0.00  0.00    +0.000 C 
ATOM     22  O   UNL     1      -3.457  12.905  19.958  0.00  0.00    +0.000 OA
ATOM     23  H   UNL     1      -2.387  13.346  22.097  0.00  0.00    +0.000 HD
ATOM     24  H   UNL     1      -0.981  12.374  21.826  0.00  0.00    +0.000 HD
ENDBRANCH  14  21
ENDBRANCH  13  18
ENDBRANCH  12  13
ENDBRANCH   1  12
BRANCH  11  25
ATOM     25  C   UNL     1       4.317   5.359  18.076  0.00  0.00    +0.000 C 
BRANCH  25  26
ATOM     26  C   UNL     1       5.265   5.075  16.923  0.00  0.00    +0.000 A 
ATOM     27  C   UNL     1       4.995   4.174  15.885  0.00  0.00    +0.000 A 
ATOM     28  C   UNL     1       5.868   4.087  14.799  0.00  0.00    +0.000 A 
ATOM     29  C   UNL     1       6.987   4.900  14.764  0.00  0.00    +0.000 A 
ATOM     30  N   UNL     1       7.294   5.774  15.741  0.00  0.00    +0.000 NA
ATOM     31  C   UNL     1       6.432   5.844  16.788  0.00  0.00    +0.000 A 
ENDBRANCH  25  26
ENDBRANCH  11  25
TORSDOF 6
ENDMDL
