MODEL 1
REMARK VINA RESULT:      -9.2      0.000      0.000
REMARK  Name = 
REMARK  8 active torsions:
REMARK  status: ('A' for Active; 'I' for Inactive)
REMARK    1  A    between atoms: C_1  and  C_2
REMARK    2  A    between atoms: C_6  and  C_7
REMARK    3  A    between atoms: C_10  and  C_11
REMARK    4  A    between atoms: C_11  and  C_12
REMARK    5  A    between atoms: C_11  and  O_13
REMARK    6  A    between atoms: O_13  and  C_14
REMARK    7  A    between atoms: C_14  and  C_16
REMARK    8  A    between atoms: C_16  and  C_17
REMARK                            x       y       z     vdW  Elec       q    Type
REMARK                         _______ _______ _______ _____ _____    ______ ____
ROOT
ATOM      1  O   UNL     1       6.454   5.184  18.160  0.00  0.00    +0.000 OA
ENDROOT
BRANCH   1   2
ATOM      2  C   UNL     1       7.764   5.710  18.454  0.00  0.00    +0.000 C 
ATOM      3  C   UNL     1       8.077   5.455  19.924  0.00  0.00    +0.000 C 
BRANCH   2   7
ATOM      4  C   UNL     1       8.473   9.191  18.248  0.00  0.00    +0.000 A 
ATOM      5  N   UNL     1       7.552   9.131  17.306  0.00  0.00    +0.000 NA
ATOM      6  N   UNL     1       7.133   7.825  17.241  0.00  0.00    +0.000 NA
ATOM      7  C   UNL     1       7.821   7.168  18.151  0.00  0.00    +0.000 A 
ATOM      8  O   UNL     1       8.709   7.968  18.831  0.00  0.00    +0.000 OA
BRANCH   4  14
ATOM      9  C   UNL     1       9.567  12.318  21.953  0.00  0.00    +0.000 C 
ATOM     10  C   UNL     1       9.774  11.892  20.530  0.00  0.00    +0.000 A 
ATOM     11  C   UNL     1      10.655  12.571  19.686  0.00  0.00    +0.000 A 
ATOM     12  C   UNL     1      10.834  12.147  18.367  0.00  0.00    +0.000 A 
ATOM     13  C   UNL     1      10.132  11.039  17.876  0.00  0.00    +0.000 A 
ATOM     14  C   UNL     1       9.239  10.345  18.702  0.00  0.00    +0.000 A 
ATOM     15  C   UNL     1       9.074  10.785  20.029  0.00  0.00    +0.000 A 
ENDBRANCH   4  14
ENDBRANCH   2   7
ENDBRANCH   1   2
BRANCH   1  16
ATOM     16  C   UNL     1       6.269   4.781  16.873  0.00  0.00    +0.000 C 
ATOM     17  O   UNL     1       7.162   4.480  16.092  0.00  0.00    +0.000 OA
BRANCH  16  18
ATOM     18  C   UNL     1       4.815   4.727  16.512  0.00  0.00    +0.000 C 
BRANCH  18  19
ATOM     19  C   UNL     1       3.969   4.064  17.571  0.00  0.00    +0.000 A 
ATOM     20  N   UNL     1       3.944   2.765  17.557  0.00  0.00    +0.000 NA
ATOM     21  N   UNL     1       3.172   2.122  18.469  0.00  0.00    +0.000 N 
ATOM     22  C   UNL     1       2.374   2.712  19.414  0.00  0.00    +0.000 A 
ATOM     23  O   UNL     1       1.678   2.060  20.186  0.00  0.00    +0.000 OA
ATOM     24  C   UNL     1       2.393   4.183  19.454  0.00  0.00    +0.000 A 
ATOM     25  C   UNL     1       1.608   4.867  20.390  0.00  0.00    +0.000 A 
ATOM     26  C   UNL     1       1.635   6.260  20.430  0.00  0.00    +0.000 A 
ATOM     27  C   UNL     1       2.452   6.960  19.544  0.00  0.00    +0.000 A 
ATOM     28  C   UNL     1       3.238   6.276  18.609  0.00  0.00    +0.000 A 
ATOM     29  C   UNL     1       3.203   4.878  18.553  0.00  0.00    +0.000 A 
ATOM     30  H   UNL     1       3.157   1.108  18.421  0.00  0.00    +0.000 HD
ENDBRANCH  18  19
ENDBRANCH  16  18
ENDBRANCH   1  16
TORSDOF 6
ENDMDL
MODEL 2
REMARK VINA RESULT:      -8.8      1.673      2.219
REMARK  Name = 
REMARK  8 active torsions:
REMARK  status: ('A' for Active; 'I' for Inactive)
REMARK    1  A    between atoms: C_1  and  C_2
REMARK    2  A    between atoms: C_6  and  C_7
REMARK    3  A    between atoms: C_10  and  C_11
REMARK    4  A    between atoms: C_11  and  C_12
REMARK    5  A    between atoms: C_11  and  O_13
REMARK    6  A    between atoms: O_13  and  C_14
REMARK    7  A    between atoms: C_14  and  C_16
REMARK    8  A    between atoms: C_16  and  C_17
REMARK                            x       y       z     vdW  Elec       q    Type
REMARK                         _______ _______ _______ _____ _____    ______ ____
ROOT
ATOM      1  O   UNL     1       6.169   5.984  17.916  0.00  0.00    +0.000 OA
ENDROOT
BRANCH   1   2
ATOM      2  C   UNL     1       7.580   6.261  18.025  0.00  0.00    +0.000 C 
ATOM      3  C   UNL     1       8.101   5.657  19.324  0.00  0.00    +0.000 C 
BRANCH   2   7
ATOM      4  C   UNL     1       8.700   9.607  18.490  0.00  0.00    +0.000 A 
ATOM      5  N   UNL     1       7.849   9.829  17.507  0.00  0.00    +0.000 NA
ATOM      6  N   UNL     1       7.288   8.618  17.185  0.00  0.00    +0.000 NA
ATOM      7  C   UNL     1       7.826   7.731  17.995  0.00  0.00    +0.000 A 
ATOM      8  O   UNL     1       8.749   8.282  18.853  0.00  0.00    +0.000 OA
BRANCH   4  14
ATOM      9  C   UNL     1       9.339  12.634  22.380  0.00  0.00    +0.000 C 
ATOM     10  C   UNL     1       9.870  12.057  21.101  0.00  0.00    +0.000 A 
ATOM     11  C   UNL     1      11.125  12.417  20.605  0.00  0.00    +0.000 A 
ATOM     12  C   UNL     1      11.598  11.858  19.416  0.00  0.00    +0.000 A 
ATOM     13  C   UNL     1      10.821  10.931  18.708  0.00  0.00    +0.000 A 
ATOM     14  C   UNL     1       9.559  10.559  19.185  0.00  0.00    +0.000 A 
ATOM     15  C   UNL     1       9.099  11.131  20.386  0.00  0.00    +0.000 A 
ENDBRANCH   4  14
ENDBRANCH   2   7
ENDBRANCH   1   2
BRANCH   1  16
ATOM     16  C   UNL     1       5.759   5.546  16.695  0.00  0.00    +0.000 C 
ATOM     17  O   UNL     1       6.383   5.681  15.650  0.00  0.00    +0.000 OA
BRANCH  16  18
ATOM     18  C   UNL     1       4.435   4.848  16.771  0.00  0.00    +0.000 C 
BRANCH  18  19
ATOM     19  C   UNL     1       3.550   5.383  17.870  0.00  0.00    +0.000 A 
ATOM     20  N   UNL     1       3.524   6.674  18.011  0.00  0.00    +0.000 NA
ATOM     21  N   UNL     1       2.767   7.203  19.005  0.00  0.00    +0.000 N 
ATOM     22  C   UNL     1       2.028   6.501  19.920  0.00  0.00    +0.000 A 
ATOM     23  O   UNL     1       1.392   7.051  20.814  0.00  0.00    +0.000 OA
ATOM     24  C   UNL     1       2.036   5.036  19.775  0.00  0.00    +0.000 A 
ATOM     25  C   UNL     1       1.305   4.241  20.668  0.00  0.00    +0.000 A 
ATOM     26  C   UNL     1       1.309   2.855  20.522  0.00  0.00    +0.000 A 
ATOM     27  C   UNL     1       2.033   2.272  19.483  0.00  0.00    +0.000 A 
ATOM     28  C   UNL     1       2.762   3.067  18.591  0.00  0.00    +0.000 A 
ATOM     29  C   UNL     1       2.775   4.458  18.741  0.00  0.00    +0.000 A 
ATOM     30  H   UNL     1       2.783   8.213  19.103  0.00  0.00    +0.000 HD
ENDBRANCH  18  19
ENDBRANCH  16  18
ENDBRANCH   1  16
TORSDOF 6
ENDMDL
MODEL 3
REMARK VINA RESULT:      -8.6      4.226      7.257
REMARK  Name = 
REMARK  8 active torsions:
REMARK  status: ('A' for Active; 'I' for Inactive)
REMARK    1  A    between atoms: C_1  and  C_2
REMARK    2  A    between atoms: C_6  and  C_7
REMARK    3  A    between atoms: C_10  and  C_11
REMARK    4  A    between atoms: C_11  and  C_12
REMARK    5  A    between atoms: C_11  and  O_13
REMARK    6  A    between atoms: O_13  and  C_14
REMARK    7  A    between atoms: C_14  and  C_16
REMARK    8  A    between atoms: C_16  and  C_17
REMARK                            x       y       z     vdW  Elec       q    Type
REMARK                         _______ _______ _______ _____ _____    ______ ____
ROOT
ATOM      1  O   UNL     1       2.588   6.003  18.655  0.00  0.00    +0.000 OA
ENDROOT
BRANCH   1   2
ATOM      2  C   UNL     1       2.644   7.061  17.678  0.00  0.00    +0.000 C 
ATOM      3  C   UNL     1       4.103   7.339  17.336  0.00  0.00    +0.000 C 
BRANCH   2   7
ATOM      4  C   UNL     1       0.968   9.568  19.567  0.00  0.00    +0.000 A 
ATOM      5  N   UNL     1       1.251  10.294  18.502  0.00  0.00    +0.000 NA
ATOM      6  N   UNL     1       1.912   9.471  17.624  0.00  0.00    +0.000 NA
ATOM      7  C   UNL     1       1.986   8.291  18.204  0.00  0.00    +0.000 A 
ATOM      8  O   UNL     1       1.416   8.273  19.455  0.00  0.00    +0.000 OA
BRANCH   4  14
ATOM      9  C   UNL     1      -2.062  12.802  21.817  0.00  0.00    +0.000 C 
ATOM     10  C   UNL     1      -1.207  11.572  21.900  0.00  0.00    +0.000 A 
ATOM     11  C   UNL     1      -1.076  10.855  23.091  0.00  0.00    +0.000 A 
ATOM     12  C   UNL     1      -0.279   9.708  23.138  0.00  0.00    +0.000 A 
ATOM     13  C   UNL     1       0.396   9.267  21.993  0.00  0.00    +0.000 A 
ATOM     14  C   UNL     1       0.283   9.972  20.790  0.00  0.00    +0.000 A 
ATOM     15  C   UNL     1      -0.526  11.124  20.760  0.00  0.00    +0.000 A 
ENDBRANCH   4  14
ENDBRANCH   2   7
ENDBRANCH   1   2
BRANCH   1  16
ATOM     16  C   UNL     1       2.250   4.780  18.164  0.00  0.00    +0.000 C 
ATOM     17  O   UNL     1       1.287   4.550  17.443  0.00  0.00    +0.000 OA
BRANCH  16  18
ATOM     18  C   UNL     1       3.218   3.720  18.596  0.00  0.00    +0.000 C 
BRANCH  18  19
ATOM     19  C   UNL     1       4.658   4.156  18.481  0.00  0.00    +0.000 A 
ATOM     20  N   UNL     1       5.265   4.439  19.595  0.00  0.00    +0.000 NA
ATOM     21  N   UNL     1       6.552   4.866  19.542  0.00  0.00    +0.000 N 
ATOM     22  C   UNL     1       7.293   5.062  18.406  0.00  0.00    +0.000 A 
ATOM     23  O   UNL     1       8.445   5.481  18.438  0.00  0.00    +0.000 OA
ATOM     24  C   UNL     1       6.629   4.739  17.133  0.00  0.00    +0.000 A 
ATOM     25  C   UNL     1       7.316   4.909  15.924  0.00  0.00    +0.000 A 
ATOM     26  C   UNL     1       6.687   4.594  14.721  0.00  0.00    +0.000 A 
ATOM     27  C   UNL     1       5.381   4.105  14.732  0.00  0.00    +0.000 A 
ATOM     28  C   UNL     1       4.695   3.935  15.940  0.00  0.00    +0.000 A 
ATOM     29  C   UNL     1       5.317   4.264  17.151  0.00  0.00    +0.000 A 
ATOM     30  H   UNL     1       6.992   5.098  20.426  0.00  0.00    +0.000 HD
ENDBRANCH  18  19
ENDBRANCH  16  18
ENDBRANCH   1  16
TORSDOF 6
ENDMDL
MODEL 4
REMARK VINA RESULT:      -8.6      3.608      7.098
REMARK  Name = 
REMARK  8 active torsions:
REMARK  status: ('A' for Active; 'I' for Inactive)
REMARK    1  A    between atoms: C_1  and  C_2
REMARK    2  A    between atoms: C_6  and  C_7
REMARK    3  A    between atoms: C_10  and  C_11
REMARK    4  A    between atoms: C_11  and  C_12
REMARK    5  A    between atoms: C_11  and  O_13
REMARK    6  A    between atoms: O_13  and  C_14
REMARK    7  A    between atoms: C_14  and  C_16
REMARK    8  A    between atoms: C_16  and  C_17
REMARK                            x       y       z     vdW  Elec       q    Type
REMARK                         _______ _______ _______ _____ _____    ______ ____
ROOT
ATOM      1  O   UNL     1       1.726   3.792  19.127  0.00  0.00    +0.000 OA
ENDROOT
BRANCH   1   2
ATOM      2  C   UNL     1       2.512   4.556  20.064  0.00  0.00    +0.000 C 
ATOM      3  C   UNL     1       2.201   4.071  21.476  0.00  0.00    +0.000 C 
BRANCH   2   7
ATOM      4  C   UNL     1       1.410   7.922  20.408  0.00  0.00    +0.000 A 
ATOM      5  N   UNL     1       2.160   8.079  19.334  0.00  0.00    +0.000 NA
ATOM      6  N   UNL     1       2.681   6.845  19.029  0.00  0.00    +0.000 NA
ATOM      7  C   UNL     1       2.213   6.010  19.932  0.00  0.00    +0.000 A 
ATOM      8  O   UNL     1       1.402   6.623  20.858  0.00  0.00    +0.000 OA
BRANCH   4  14
ATOM      9  C   UNL     1      -1.284  12.095  20.252  0.00  0.00    +0.000 C 
ATOM     10  C   UNL     1      -0.679  10.988  21.062  0.00  0.00    +0.000 A 
ATOM     11  C   UNL     1      -0.841  10.925  22.448  0.00  0.00    +0.000 A 
ATOM     12  C   UNL     1      -0.273   9.877  23.177  0.00  0.00    +0.000 A 
ATOM     13  C   UNL     1       0.465   8.880  22.528  0.00  0.00    +0.000 A 
ATOM     14  C   UNL     1       0.645   8.924  21.140  0.00  0.00    +0.000 A 
ATOM     15  C   UNL     1       0.064   9.986  20.422  0.00  0.00    +0.000 A 
ENDBRANCH   4  14
ENDBRANCH   2   7
ENDBRANCH   1   2
BRANCH   1  16
ATOM     16  C   UNL     1       2.367   3.456  17.975  0.00  0.00    +0.000 C 
ATOM     17  O   UNL     1       1.857   3.437  16.862  0.00  0.00    +0.000 OA
BRANCH  16  18
ATOM     18  C   UNL     1       3.807   3.120  18.219  0.00  0.00    +0.000 C 
BRANCH  18  19
ATOM     19  C   UNL     1       4.749   3.865  17.304  0.00  0.00    +0.000 A 
ATOM     20  N   UNL     1       4.581   3.678  16.029  0.00  0.00    +0.000 NA
ATOM     21  N   UNL     1       5.423   4.301  15.166  0.00  0.00    +0.000 N 
ATOM     22  C   UNL     1       6.477   5.108  15.505  0.00  0.00    +0.000 A 
ATOM     23  O   UNL     1       7.215   5.613  14.665  0.00  0.00    +0.000 OA
ATOM     24  C   UNL     1       6.681   5.342  16.944  0.00  0.00    +0.000 A 
ATOM     25  C   UNL     1       7.735   6.156  17.377  0.00  0.00    +0.000 A 
ATOM     26  C   UNL     1       7.919   6.382  18.740  0.00  0.00    +0.000 A 
ATOM     27  C   UNL     1       7.047   5.801  19.660  0.00  0.00    +0.000 A 
ATOM     28  C   UNL     1       5.994   4.988  19.227  0.00  0.00    +0.000 A 
ATOM     29  C   UNL     1       5.812   4.745  17.860  0.00  0.00    +0.000 A 
ATOM     30  H   UNL     1       5.280   4.119  14.178  0.00  0.00    +0.000 HD
ENDBRANCH  18  19
ENDBRANCH  16  18
ENDBRANCH   1  16
TORSDOF 6
ENDMDL
MODEL 5
REMARK VINA RESULT:      -8.5      1.850      2.357
REMARK  Name = 
REMARK  8 active torsions:
REMARK  status: ('A' for Active; 'I' for Inactive)
REMARK    1  A    between atoms: C_1  and  C_2
REMARK    2  A    between atoms: C_6  and  C_7
REMARK    3  A    between atoms: C_10  and  C_11
REMARK    4  A    between atoms: C_11  and  C_12
REMARK    5  A    between atoms: C_11  and  O_13
REMARK    6  A    between atoms: O_13  and  C_14
REMARK    7  A    between atoms: C_14  and  C_16
REMARK    8  A    between atoms: C_16  and  C_17
REMARK                            x       y       z     vdW  Elec       q    Type
REMARK                         _______ _______ _______ _____ _____    ______ ____
ROOT
ATOM      1  O   UNL     1       5.659   6.934  17.626  0.00  0.00    +0.000 OA
ENDROOT
BRANCH   1   2
ATOM      2  C   UNL     1       7.044   6.772  17.260  0.00  0.00    +0.000 C 
ATOM      3  C   UNL     1       7.513   5.391  17.708  0.00  0.00    +0.000 C 
BRANCH   2   7
ATOM      4  C   UNL     1       8.746   9.754  18.192  0.00  0.00    +0.000 A 
ATOM      5  N   UNL     1       9.141   8.993  19.194  0.00  0.00    +0.000 NA
ATOM      6  N   UNL     1       8.577   7.755  18.999  0.00  0.00    +0.000 NA
ATOM      7  C   UNL     1       7.878   7.836  17.887  0.00  0.00    +0.000 A 
ATOM      8  O   UNL     1       7.925   9.086  17.315  0.00  0.00    +0.000 OA
BRANCH   4  14
ATOM      9  C   UNL     1      12.229  13.238  17.531  0.00  0.00    +0.000 C 
ATOM     10  C   UNL     1      10.776  12.875  17.616  0.00  0.00    +0.000 A 
ATOM     11  C   UNL     1       9.775  13.835  17.458  0.00  0.00    +0.000 A 
ATOM     12  C   UNL     1       8.429  13.468  17.534  0.00  0.00    +0.000 A 
ATOM     13  C   UNL     1       8.070  12.135  17.769  0.00  0.00    +0.000 A 
ATOM     14  C   UNL     1       9.056  11.156  17.935  0.00  0.00    +0.000 A 
ATOM     15  C   UNL     1      10.407  11.544  17.854  0.00  0.00    +0.000 A 
ENDBRANCH   4  14
ENDBRANCH   2   7
ENDBRANCH   1   2
BRANCH   1  16
ATOM     16  C   UNL     1       4.766   6.692  16.629  0.00  0.00    +0.000 C 
ATOM     17  O   UNL     1       4.978   6.860  15.435  0.00  0.00    +0.000 OA
BRANCH  16  18
ATOM     18  C   UNL     1       3.467   6.168  17.162  0.00  0.00    +0.000 C 
BRANCH  18  19
ATOM     19  C   UNL     1       3.571   4.755  17.681  0.00  0.00    +0.000 A 
ATOM     20  N   UNL     1       4.162   3.898  16.902  0.00  0.00    +0.000 NA
ATOM     21  N   UNL     1       4.253   2.607  17.309  0.00  0.00    +0.000 N 
ATOM     22  C   UNL     1       3.751   2.088  18.474  0.00  0.00    +0.000 A 
ATOM     23  O   UNL     1       3.845   0.899  18.758  0.00  0.00    +0.000 OA
ATOM     24  C   UNL     1       3.083   3.042  19.375  0.00  0.00    +0.000 A 
ATOM     25  C   UNL     1       2.542   2.595  20.588  0.00  0.00    +0.000 A 
ATOM     26  C   UNL     1       1.919   3.503  21.442  0.00  0.00    +0.000 A 
ATOM     27  C   UNL     1       1.847   4.849  21.086  0.00  0.00    +0.000 A 
ATOM     28  C   UNL     1       2.388   5.294  19.875  0.00  0.00    +0.000 A 
ATOM     29  C   UNL     1       3.002   4.386  19.005  0.00  0.00    +0.000 A 
ATOM     30  H   UNL     1       4.703   1.958  16.672  0.00  0.00    +0.000 HD
ENDBRANCH  18  19
ENDBRANCH  16  18
ENDBRANCH   1  16
TORSDOF 6
ENDMDL
MODEL 6
REMARK VINA RESULT:      -8.5      4.792      7.165
REMARK  Name = 
REMARK  8 active torsions:
REMARK  status: ('A' for Active; 'I' for Inactive)
REMARK    1  A    between atoms: C_1  and  C_2
REMARK    2  A    between atoms: C_6  and  C_7
REMARK    3  A    between atoms: C_10  and  C_11
REMARK    4  A    between atoms: C_11  and  C_12
REMARK    5  A    between atoms: C_11  and  O_13
REMARK    6  A    between atoms: O_13  and  C_14
REMARK    7  A    between atoms: C_14  and  C_16
REMARK    8  A    between atoms: C_16  and  C_17
REMARK                            x       y       z     vdW  Elec       q    Type
REMARK                         _______ _______ _______ _____ _____    ______ ____
ROOT
ATOM      1  O   UNL     1       2.973   4.846  19.583  0.00  0.00    +0.000 OA
ENDROOT
BRANCH   1   2
ATOM      2  C   UNL     1       3.437   3.682  18.869  0.00  0.00    +0.000 C 
ATOM      3  C   UNL     1       3.705   2.564  19.871  0.00  0.00    +0.000 C 
BRANCH   2   7
ATOM      4  C   UNL     1       5.936   4.313  16.416  0.00  0.00    +0.000 A 
ATOM      5  N   UNL     1       6.643   4.618  17.486  0.00  0.00    +0.000 NA
ATOM      6  N   UNL     1       5.826   4.421  18.573  0.00  0.00    +0.000 NA
ATOM      7  C   UNL     1       4.672   4.001  18.099  0.00  0.00    +0.000 A 
ATOM      8  O   UNL     1       4.656   3.917  16.726  0.00  0.00    +0.000 OA
BRANCH   4  14
ATOM      9  C   UNL     1       5.147   2.763  11.760  0.00  0.00    +0.000 C 
ATOM     10  C   UNL     1       5.950   3.592  12.718  0.00  0.00    +0.000 A 
ATOM     11  C   UNL     1       7.025   4.370  12.285  0.00  0.00    +0.000 A 
ATOM     12  C   UNL     1       7.750   5.140  13.198  0.00  0.00    +0.000 A 
ATOM     13  C   UNL     1       7.407   5.139  14.556  0.00  0.00    +0.000 A 
ATOM     14  C   UNL     1       6.336   4.363  15.014  0.00  0.00    +0.000 A 
ATOM     15  C   UNL     1       5.615   3.596  14.079  0.00  0.00    +0.000 A 
ENDBRANCH   4  14
ENDBRANCH   2   7
ENDBRANCH   1   2
BRANCH   1  16
ATOM     16  C   UNL     1       2.476   5.843  18.802  0.00  0.00    +0.000 C 
ATOM     17  O   UNL     1       1.735   5.684  17.841  0.00  0.00    +0.000 OA
BRANCH  16  18
ATOM     18  C   UNL     1       2.932   7.192  19.268  0.00  0.00    +0.000 C 
BRANCH  18  19
ATOM     19  C   UNL     1       1.896   8.269  19.058  0.00  0.00    +0.000 A 
ATOM     20  N   UNL     1       1.702   8.649  17.831  0.00  0.00    +0.000 NA
ATOM     21  N   UNL     1       0.803   9.637  17.592  0.00  0.00    +0.000 N 
ATOM     22  C   UNL     1       0.077  10.315  18.536  0.00  0.00    +0.000 A 
ATOM     23  O   UNL     1      -0.697  11.222  18.244  0.00  0.00    +0.000 OA
ATOM     24  C   UNL     1       0.274   9.896  19.933  0.00  0.00    +0.000 A 
ATOM     25  C   UNL     1      -0.430  10.535  20.961  0.00  0.00    +0.000 A 
ATOM     26  C   UNL     1      -0.247  10.129  22.282  0.00  0.00    +0.000 A 
ATOM     27  C   UNL     1       0.630   9.084  22.567  0.00  0.00    +0.000 A 
ATOM     28  C   UNL     1       1.334   8.445  21.540  0.00  0.00    +0.000 A 
ATOM     29  C   UNL     1       1.166   8.858  20.213  0.00  0.00    +0.000 A 
ATOM     30  H   UNL     1       0.688   9.926  16.626  0.00  0.00    +0.000 HD
ENDBRANCH  18  19
ENDBRANCH  16  18
ENDBRANCH   1  16
TORSDOF 6
ENDMDL
MODEL 7
REMARK VINA RESULT:      -8.5      6.604      9.701
REMARK  Name = 
REMARK  8 active torsions:
REMARK  status: ('A' for Active; 'I' for Inactive)
REMARK    1  A    between atoms: C_1  and  C_2
REMARK    2  A    between atoms: C_6  and  C_7
REMARK    3  A    between atoms: C_10  and  C_11
REMARK    4  A    between atoms: C_11  and  C_12
REMARK    5  A    between atoms: C_11  and  O_13
REMARK    6  A    between atoms: O_13  and  C_14
REMARK    7  A    between atoms: C_14  and  C_16
REMARK    8  A    between atoms: C_16  and  C_17
REMARK                            x       y       z     vdW  Elec       q    Type
REMARK                         _______ _______ _______ _____ _____    ______ ____
ROOT
ATOM      1  O   UNL     1       0.961  11.184  21.409  0.00  0.00    +0.000 OA
ENDROOT
BRANCH   1   2
ATOM      2  C   UNL     1       0.288   9.915  21.278  0.00  0.00    +0.000 C 
ATOM      3  C   UNL     1       0.091   9.317  22.667  0.00  0.00    +0.000 C 
BRANCH   2   7
ATOM      4  C   UNL     1       2.067   7.209  19.804  0.00  0.00    +0.000 A 
ATOM      5  N   UNL     1       2.155   8.060  18.800  0.00  0.00    +0.000 NA
ATOM      6  N   UNL     1       1.514   9.209  19.195  0.00  0.00    +0.000 NA
ATOM      7  C   UNL     1       1.080   8.991  20.418  0.00  0.00    +0.000 A 
ATOM      8  O   UNL     1       1.382   7.730  20.876  0.00  0.00    +0.000 OA
BRANCH   4  14
ATOM      9  C   UNL     1       1.505   2.620  21.628  0.00  0.00    +0.000 C 
ATOM     10  C   UNL     1       2.300   3.582  20.795  0.00  0.00    +0.000 A 
ATOM     11  C   UNL     1       3.466   3.187  20.138  0.00  0.00    +0.000 A 
ATOM     12  C   UNL     1       4.182   4.101  19.362  0.00  0.00    +0.000 A 
ATOM     13  C   UNL     1       3.739   5.424  19.235  0.00  0.00    +0.000 A 
ATOM     14  C   UNL     1       2.575   5.845  19.889  0.00  0.00    +0.000 A 
ATOM     15  C   UNL     1       1.865   4.908  20.665  0.00  0.00    +0.000 A 
ENDBRANCH   4  14
ENDBRANCH   2   7
ENDBRANCH   1   2
BRANCH   1  16
ATOM     16  C   UNL     1       0.142  12.269  21.465  0.00  0.00    +0.000 C 
ATOM     17  O   UNL     1      -0.267  12.792  22.494  0.00  0.00    +0.000 OA
BRANCH  16  18
ATOM     18  C   UNL     1      -0.200  12.777  20.098  0.00  0.00    +0.000 C 
BRANCH  18  19
ATOM     19  C   UNL     1      -1.668  12.645  19.771  0.00  0.00    +0.000 A 
ATOM     20  N   UNL     1      -2.476  13.425  20.425  0.00  0.00    +0.000 NA
ATOM     21  N   UNL     1      -3.808  13.323  20.189  0.00  0.00    +0.000 N 
ATOM     22  C   UNL     1      -4.413  12.442  19.331  0.00  0.00    +0.000 A 
ATOM     23  O   UNL     1      -5.631  12.388  19.196  0.00  0.00    +0.000 OA
ATOM     24  C   UNL     1      -3.516  11.553  18.573  0.00  0.00    +0.000 A 
ATOM     25  C   UNL     1      -4.052  10.623  17.673  0.00  0.00    +0.000 A 
ATOM     26  C   UNL     1      -3.199   9.790  16.951  0.00  0.00    +0.000 A 
ATOM     27  C   UNL     1      -1.820   9.896  17.125  0.00  0.00    +0.000 A 
ATOM     28  C   UNL     1      -1.286  10.826  18.024  0.00  0.00    +0.000 A 
ATOM     29  C   UNL     1      -2.137  11.655  18.764  0.00  0.00    +0.000 A 
ATOM     30  H   UNL     1      -4.415  13.931  20.729  0.00  0.00    +0.000 HD
ENDBRANCH  18  19
ENDBRANCH  16  18
ENDBRANCH   1  16
TORSDOF 6
ENDMDL
MODEL 8
REMARK VINA RESULT:      -8.5      3.933      7.313
REMARK  Name = 
REMARK  8 active torsions:
REMARK  status: ('A' for Active; 'I' for Inactive)
REMARK    1  A    between atoms: C_1  and  C_2
REMARK    2  A    between atoms: C_6  and  C_7
REMARK    3  A    between atoms: C_10  and  C_11
REMARK    4  A    between atoms: C_11  and  C_12
REMARK    5  A    between atoms: C_11  and  O_13
REMARK    6  A    between atoms: O_13  and  C_14
REMARK    7  A    between atoms: C_14  and  C_16
REMARK    8  A    between atoms: C_16  and  C_17
REMARK                            x       y       z     vdW  Elec       q    Type
REMARK                         _______ _______ _______ _____ _____    ______ ____
ROOT
ATOM      1  O   UNL     1       2.415   3.574  19.032  0.00  0.00    +0.000 OA
ENDROOT
BRANCH   1   2
ATOM      2  C   UNL     1       2.412   4.300  20.279  0.00  0.00    +0.000 C 
ATOM      3  C   UNL     1       1.327   3.722  21.181  0.00  0.00    +0.000 C 
BRANCH   2   7
ATOM      4  C   UNL     1       1.482   7.733  20.383  0.00  0.00    +0.000 A 
ATOM      5  N   UNL     1       2.187   7.764  19.269  0.00  0.00    +0.000 NA
ATOM      6  N   UNL     1       2.637   6.485  19.047  0.00  0.00    +0.000 NA
ATOM      7  C   UNL     1       2.174   5.751  20.037  0.00  0.00    +0.000 A 
ATOM      8  O   UNL     1       1.434   6.477  20.941  0.00  0.00    +0.000 OA
BRANCH   4  14
ATOM      9  C   UNL     1      -0.410  12.320  20.101  0.00  0.00    +0.000 C 
ATOM     10  C   UNL     1      -0.130  11.095  20.921  0.00  0.00    +0.000 A 
ATOM     11  C   UNL     1      -0.506  11.014  22.263  0.00  0.00    +0.000 A 
ATOM     12  C   UNL     1      -0.240   9.858  23.000  0.00  0.00    +0.000 A 
ATOM     13  C   UNL     1       0.407   8.769  22.402  0.00  0.00    +0.000 A 
ATOM     14  C   UNL     1       0.798   8.829  21.059  0.00  0.00    +0.000 A 
ATOM     15  C   UNL     1       0.519  10.001  20.331  0.00  0.00    +0.000 A 
ENDBRANCH   4  14
ENDBRANCH   2   7
ENDBRANCH   1   2
BRANCH   1  16
ATOM     16  C   UNL     1       3.581   2.939  18.737  0.00  0.00    +0.000 C 
ATOM     17  O   UNL     1       4.246   2.280  19.526  0.00  0.00    +0.000 OA
BRANCH  16  18
ATOM     18  C   UNL     1       3.965   3.122  17.300  0.00  0.00    +0.000 C 
BRANCH  18  19
ATOM     19  C   UNL     1       5.068   4.134  17.110  0.00  0.00    +0.000 A 
ATOM     20  N   UNL     1       5.369   4.859  18.145  0.00  0.00    +0.000 NA
ATOM     21  N   UNL     1       6.333   5.805  18.017  0.00  0.00    +0.000 N 
ATOM     22  C   UNL     1       7.025   6.104  16.873  0.00  0.00    +0.000 A 
ATOM     23  O   UNL     1       7.864   6.999  16.827  0.00  0.00    +0.000 OA
ATOM     24  C   UNL     1       6.707   5.290  15.688  0.00  0.00    +0.000 A 
ATOM     25  C   UNL     1       7.370   5.528  14.478  0.00  0.00    +0.000 A 
ATOM     26  C   UNL     1       7.072   4.749  13.361  0.00  0.00    +0.000 A 
ATOM     27  C   UNL     1       6.123   3.733  13.462  0.00  0.00    +0.000 A 
ATOM     28  C   UNL     1       5.462   3.494  14.672  0.00  0.00    +0.000 A 
ATOM     29  C   UNL     1       5.745   4.283  15.793  0.00  0.00    +0.000 A 
ATOM     30  H   UNL     1       6.532   6.369  18.837  0.00  0.00    +0.000 HD
ENDBRANCH  18  19
ENDBRANCH  16  18
ENDBRANCH   1  16
TORSDOF 6
ENDMDL
MODEL 9
REMARK VINA RESULT:      -8.4      3.824      7.005
REMARK  Name = 
REMARK  8 active torsions:
REMARK  status: ('A' for Active; 'I' for Inactive)
REMARK    1  A    between atoms: C_1  and  C_2
REMARK    2  A    between atoms: C_6  and  C_7
REMARK    3  A    between atoms: C_10  and  C_11
REMARK    4  A    between atoms: C_11  and  C_12
REMARK    5  A    between atoms: C_11  and  O_13
REMARK    6  A    between atoms: O_13  and  C_14
REMARK    7  A    between atoms: C_14  and  C_16
REMARK    8  A    between atoms: C_16  and  C_17
REMARK                            x       y       z     vdW  Elec       q    Type
REMARK                         _______ _______ _______ _____ _____    ______ ____
ROOT
ATOM      1  O   UNL     1       5.392   5.506  18.703  0.00  0.00    +0.000 OA
ENDROOT
BRANCH   1   2
ATOM      2  C   UNL     1       6.663   4.938  18.328  0.00  0.00    +0.000 C 
ATOM      3  C   UNL     1       7.771   5.686  19.062  0.00  0.00    +0.000 C 
BRANCH   2   7
ATOM      4  C   UNL     1       6.594   4.600  14.787  0.00  0.00    +0.000 A 
ATOM      5  N   UNL     1       7.442   5.607  14.862  0.00  0.00    +0.000 NA
ATOM      6  N   UNL     1       7.611   5.886  16.196  0.00  0.00    +0.000 NA
ATOM      7  C   UNL     1       6.860   5.028  16.853  0.00  0.00    +0.000 A 
ATOM      8  O   UNL     1       6.167   4.178  16.023  0.00  0.00    +0.000 OA
BRANCH   4  14
ATOM      9  C   UNL     1       7.534   1.813  10.780  0.00  0.00    +0.000 C 
ATOM     10  C   UNL     1       6.541   2.562  11.618  0.00  0.00    +0.000 A 
ATOM     11  C   UNL     1       5.189   2.616  11.274  0.00  0.00    +0.000 A 
ATOM     12  C   UNL     1       4.285   3.313  12.077  0.00  0.00    +0.000 A 
ATOM     13  C   UNL     1       4.723   3.968  13.236  0.00  0.00    +0.000 A 
ATOM     14  C   UNL     1       6.074   3.932  13.599  0.00  0.00    +0.000 A 
ATOM     15  C   UNL     1       6.971   3.222  12.778  0.00  0.00    +0.000 A 
ENDBRANCH   4  14
ENDBRANCH   2   7
ENDBRANCH   1   2
BRANCH   1  16
ATOM     16  C   UNL     1       4.348   4.634  18.703  0.00  0.00    +0.000 C 
ATOM     17  O   UNL     1       4.406   3.462  19.053  0.00  0.00    +0.000 OA
BRANCH  16  18
ATOM     18  C   UNL     1       3.081   5.284  18.234  0.00  0.00    +0.000 C 
BRANCH  18  19
ATOM     19  C   UNL     1       2.482   6.214  19.260  0.00  0.00    +0.000 A 
ATOM     20  N   UNL     1       2.234   5.700  20.427  0.00  0.00    +0.000 NA
ATOM     21  N   UNL     1       1.665   6.487  21.375  0.00  0.00    +0.000 N 
ATOM     22  C   UNL     1       1.288   7.795  21.221  0.00  0.00    +0.000 A 
ATOM     23  O   UNL     1       0.748   8.434  22.118  0.00  0.00    +0.000 OA
ATOM     24  C   UNL     1       1.567   8.402  19.908  0.00  0.00    +0.000 A 
ATOM     25  C   UNL     1       1.215   9.736  19.666  0.00  0.00    +0.000 A 
ATOM     26  C   UNL     1       1.488  10.308  18.426  0.00  0.00    +0.000 A 
ATOM     27  C   UNL     1       2.117   9.550  17.439  0.00  0.00    +0.000 A 
ATOM     28  C   UNL     1       2.468   8.218  17.681  0.00  0.00    +0.000 A 
ATOM     29  C   UNL     1       2.183   7.632  18.920  0.00  0.00    +0.000 A 
ATOM     30  H   UNL     1       1.465   6.052  22.270  0.00  0.00    +0.000 HD
ENDBRANCH  18  19
ENDBRANCH  16  18
ENDBRANCH   1  16
TORSDOF 6
ENDMDL
