MODEL 1
REMARK VINA RESULT:      -7.9      0.000      0.000
REMARK  Name = 
REMARK  5 active torsions:
REMARK  status: ('A' for Active; 'I' for Inactive)
REMARK    1  A    between atoms: C_1  and  N_2
REMARK    2  A    between atoms: C_6  and  C_7
REMARK    3  A    between atoms: C_7  and  C_8
REMARK    4  A    between atoms: C_8  and  C_9
REMARK    5  A    between atoms: C_13  and  N_14
REMARK                            x       y       z     vdW  Elec       q    Type
REMARK                         _______ _______ _______ _____ _____    ______ ____
ROOT
ATOM      1  C   UNL     1       4.388   5.973  18.227  0.00  0.00    +0.000 A 
ATOM      2  C   UNL     1       5.221   5.835  19.364  0.00  0.00    +0.000 A 
ATOM      3  C   UNL     1       6.549   5.435  19.270  0.00  0.00    +0.000 A 
ATOM      4  C   UNL     1       7.079   5.130  18.025  0.00  0.00    +0.000 A 
ATOM      5  C   UNL     1       6.280   5.182  16.873  0.00  0.00    +0.000 A 
ATOM      6  C   UNL     1       4.967   5.668  16.970  0.00  0.00    +0.000 A 
ENDROOT
BRANCH   5   7
ATOM      7  N   UNL     1       6.803   4.504  15.736  0.00  0.00    +0.000 N 
ATOM      8  C   UNL     1       5.970   3.459  15.344  0.00  0.00    +0.000 C 
ATOM      9  O   UNL     1       5.648   2.401  15.839  0.00  0.00    +0.000 OA
ATOM     10  C   UNL     1       5.501   4.260  14.172  0.00  0.00    +0.000 C 
ATOM     11  C   UNL     1       5.204   3.833  12.927  0.00  0.00    +0.000 C 
ATOM     12  C   UNL     1       6.365   3.526  12.006  0.00  0.00    +0.000 C 
ATOM     13  C   UNL     1       7.455   4.639  12.066  0.00  0.00    +0.000 C 
ATOM     14  C   UNL     1       7.690   5.188  13.479  0.00  0.00    +0.000 C 
ATOM     15  C   UNL     1       6.767   4.938  14.431  0.00  0.00    +0.000 C 
ENDBRANCH   5   7
BRANCH   1  16
ATOM     16  C   UNL     1       2.837   6.381  18.415  0.00  0.00    +0.000 C 
ATOM     17  C   UNL     1       2.421   7.172  19.685  0.00  0.00    +0.000 C 
ATOM     18  O   UNL     1       1.995   8.316  18.915  0.00  0.00    +0.000 OA
ATOM     19  C   UNL     1       2.410   7.693  17.686  0.00  0.00    +0.000 C 
BRANCH  16  20
ATOM     20  C   UNL     1       1.913   5.212  18.031  0.00  0.00    +0.000 C 
BRANCH  20  26
ATOM     21  C   UNL     1       3.089   2.266  18.060  0.00  0.00    +0.000 C 
ATOM     22  N   UNL     1       2.267   2.893  19.059  0.00  0.00    +0.000 N 
ATOM     23  C   UNL     1       1.801   2.281  20.185  0.00  0.00    +0.000 A 
ATOM     24  N   UNL     1       1.084   3.129  20.880  0.00  0.00    +0.000 NA
ATOM     25  N   UNL     1       1.065   4.316  20.195  0.00  0.00    +0.000 NA
ATOM     26  C   UNL     1       1.770   4.172  19.089  0.00  0.00    +0.000 A 
ENDBRANCH  20  26
ENDBRANCH  16  20
ENDBRANCH   1  16
TORSDOF 4
ENDMDL
MODEL 2
REMARK VINA RESULT:      -7.8      0.621      1.231
REMARK  Name = 
REMARK  5 active torsions:
REMARK  status: ('A' for Active; 'I' for Inactive)
REMARK    1  A    between atoms: C_1  and  N_2
REMARK    2  A    between atoms: C_6  and  C_7
REMARK    3  A    between atoms: C_7  and  C_8
REMARK    4  A    between atoms: C_8  and  C_9
REMARK    5  A    between atoms: C_13  and  N_14
REMARK                            x       y       z     vdW  Elec       q    Type
REMARK                         _______ _______ _______ _____ _____    ______ ____
ROOT
ATOM      1  C   UNL     1       4.363   5.994  18.199  0.00  0.00    +0.000 A 
ATOM      2  C   UNL     1       5.178   5.841  19.347  0.00  0.00    +0.000 A 
ATOM      3  C   UNL     1       6.502   5.428  19.270  0.00  0.00    +0.000 A 
ATOM      4  C   UNL     1       7.047   5.124  18.031  0.00  0.00    +0.000 A 
ATOM      5  C   UNL     1       6.265   5.191  16.868  0.00  0.00    +0.000 A 
ATOM      6  C   UNL     1       4.957   5.690  16.948  0.00  0.00    +0.000 A 
ENDROOT
BRANCH   5   7
ATOM      7  N   UNL     1       6.798   4.513  15.735  0.00  0.00    +0.000 N 
ATOM      8  C   UNL     1       5.976   3.460  15.345  0.00  0.00    +0.000 C 
ATOM      9  O   UNL     1       5.661   2.401  15.842  0.00  0.00    +0.000 OA
ATOM     10  C   UNL     1       5.503   4.251  14.168  0.00  0.00    +0.000 C 
ATOM     11  C   UNL     1       5.213   3.817  12.924  0.00  0.00    +0.000 C 
ATOM     12  C   UNL     1       6.379   3.518  12.008  0.00  0.00    +0.000 C 
ATOM     13  C   UNL     1       7.459   4.641  12.066  0.00  0.00    +0.000 C 
ATOM     14  C   UNL     1       7.685   5.197  13.477  0.00  0.00    +0.000 C 
ATOM     15  C   UNL     1       6.761   4.942  14.428  0.00  0.00    +0.000 C 
ENDBRANCH   5   7
BRANCH   1  16
ATOM     16  C   UNL     1       2.814   6.418  18.367  0.00  0.00    +0.000 C 
ATOM     17  C   UNL     1       2.336   6.979  19.734  0.00  0.00    +0.000 C 
ATOM     18  O   UNL     1       1.990   8.259  19.164  0.00  0.00    +0.000 OA
ATOM     19  C   UNL     1       2.467   7.856  17.868  0.00  0.00    +0.000 C 
BRANCH  16  20
ATOM     20  C   UNL     1       1.887   5.373  17.720  0.00  0.00    +0.000 C 
BRANCH  20  26
ATOM     21  C   UNL     1       1.032   4.024  20.461  0.00  0.00    +0.000 C 
ATOM     22  N   UNL     1       1.773   3.428  19.382  0.00  0.00    +0.000 N 
ATOM     23  C   UNL     1       2.289   2.166  19.392  0.00  0.00    +0.000 A 
ATOM     24  N   UNL     1       2.905   1.935  18.259  0.00  0.00    +0.000 NA
ATOM     25  N   UNL     1       2.803   3.068  17.493  0.00  0.00    +0.000 NA
ATOM     26  C   UNL     1       2.129   3.975  18.175  0.00  0.00    +0.000 A 
ENDBRANCH  20  26
ENDBRANCH  16  20
ENDBRANCH   1  16
TORSDOF 4
ENDMDL
MODEL 3
REMARK VINA RESULT:      -7.7      2.902      7.279
REMARK  Name = 
REMARK  5 active torsions:
REMARK  status: ('A' for Active; 'I' for Inactive)
REMARK    1  A    between atoms: C_1  and  N_2
REMARK    2  A    between atoms: C_6  and  C_7
REMARK    3  A    between atoms: C_7  and  C_8
REMARK    4  A    between atoms: C_8  and  C_9
REMARK    5  A    between atoms: C_13  and  N_14
REMARK                            x       y       z     vdW  Elec       q    Type
REMARK                         _______ _______ _______ _____ _____    ______ ____
ROOT
ATOM      1  C   UNL     1       2.631   5.102  18.870  0.00  0.00    +0.000 A 
ATOM      2  C   UNL     1       2.249   4.605  20.141  0.00  0.00    +0.000 A 
ATOM      3  C   UNL     1       1.632   5.402  21.097  0.00  0.00    +0.000 A 
ATOM      4  C   UNL     1       1.403   6.742  20.818  0.00  0.00    +0.000 A 
ATOM      5  C   UNL     1       1.823   7.303  19.602  0.00  0.00    +0.000 A 
ATOM      6  C   UNL     1       2.368   6.470  18.614  0.00  0.00    +0.000 A 
ENDROOT
BRANCH   5   7
ATOM      7  N   UNL     1       1.879   8.726  19.574  0.00  0.00    +0.000 N 
ATOM      8  C   UNL     1       1.600   9.217  18.302  0.00  0.00    +0.000 C 
ATOM      9  O   UNL     1       2.164   9.164  17.231  0.00  0.00    +0.000 OA
ATOM     10  C   UNL     1       0.248   9.662  18.759  0.00  0.00    +0.000 C 
ATOM     11  C   UNL     1      -0.436  10.771  18.409  0.00  0.00    +0.000 C 
ATOM     12  C   UNL     1      -0.006  12.076  19.042  0.00  0.00    +0.000 C 
ATOM     13  C   UNL     1       0.232  11.919  20.576  0.00  0.00    +0.000 C 
ATOM     14  C   UNL     1       0.907  10.595  20.956  0.00  0.00    +0.000 C 
ATOM     15  C   UNL     1       0.924   9.595  20.050  0.00  0.00    +0.000 C 
ENDBRANCH   5   7
BRANCH   1  16
ATOM     16  C   UNL     1       3.401   4.135  17.831  0.00  0.00    +0.000 C 
ATOM     17  C   UNL     1       4.028   2.817  18.360  0.00  0.00    +0.000 C 
ATOM     18  O   UNL     1       3.168   1.998  17.539  0.00  0.00    +0.000 OA
ATOM     19  C   UNL     1       2.479   3.157  17.036  0.00  0.00    +0.000 C 
BRANCH  16  20
ATOM     20  C   UNL     1       4.287   4.953  16.876  0.00  0.00    +0.000 C 
BRANCH  20  26
ATOM     21  C   UNL     1       6.140   5.546  19.382  0.00  0.00    +0.000 C 
ATOM     22  N   UNL     1       6.530   4.991  18.113  0.00  0.00    +0.000 N 
ATOM     23  C   UNL     1       7.807   4.676  17.757  0.00  0.00    +0.000 A 
ATOM     24  N   UNL     1       7.817   4.194  16.539  0.00  0.00    +0.000 NA
ATOM     25  N   UNL     1       6.525   4.204  16.079  0.00  0.00    +0.000 NA
ATOM     26  C   UNL     1       5.748   4.695  17.025  0.00  0.00    +0.000 A 
ENDBRANCH  20  26
ENDBRANCH  16  20
ENDBRANCH   1  16
TORSDOF 4
ENDMDL
MODEL 4
REMARK VINA RESULT:      -7.6      2.893      7.660
REMARK  Name = 
REMARK  5 active torsions:
REMARK  status: ('A' for Active; 'I' for Inactive)
REMARK    1  A    between atoms: C_1  and  N_2
REMARK    2  A    between atoms: C_6  and  C_7
REMARK    3  A    between atoms: C_7  and  C_8
REMARK    4  A    between atoms: C_8  and  C_9
REMARK    5  A    between atoms: C_13  and  N_14
REMARK                            x       y       z     vdW  Elec       q    Type
REMARK                         _______ _______ _______ _____ _____    ______ ____
ROOT
ATOM      1  C   UNL     1       2.972   5.940  19.142  0.00  0.00    +0.000 A 
ATOM      2  C   UNL     1       2.407   5.325  20.286  0.00  0.00    +0.000 A 
ATOM      3  C   UNL     1       1.456   5.957  21.078  0.00  0.00    +0.000 A 
ATOM      4  C   UNL     1       1.061   7.249  20.763  0.00  0.00    +0.000 A 
ATOM      5  C   UNL     1       1.639   7.932  19.682  0.00  0.00    +0.000 A 
ATOM      6  C   UNL     1       2.534   7.254  18.841  0.00  0.00    +0.000 A 
ENDROOT
BRANCH   5   7
ATOM      7  N   UNL     1       1.445   9.342  19.678  0.00  0.00    +0.000 N 
ATOM      8  C   UNL     1       1.259   9.822  18.385  0.00  0.00    +0.000 C 
ATOM      9  O   UNL     1       1.965   9.907  17.403  0.00  0.00    +0.000 OA
ATOM     10  C   UNL     1      -0.200  10.008  18.651  0.00  0.00    +0.000 C 
ATOM     11  C   UNL     1      -1.015  10.993  18.220  0.00  0.00    +0.000 C 
ATOM     12  C   UNL     1      -0.915  12.330  18.923  0.00  0.00    +0.000 C 
ATOM     13  C   UNL     1      -0.864  12.162  20.472  0.00  0.00    +0.000 C 
ATOM     14  C   UNL     1      -0.024  10.964  20.929  0.00  0.00    +0.000 C 
ATOM     15  C   UNL     1       0.295  10.014  20.024  0.00  0.00    +0.000 C 
ENDBRANCH   5   7
BRANCH   1  16
ATOM     16  C   UNL     1       4.118   5.172  18.303  0.00  0.00    +0.000 C 
ATOM     17  C   UNL     1       4.732   3.873  18.892  0.00  0.00    +0.000 C 
ATOM     18  O   UNL     1       4.248   3.066  17.798  0.00  0.00    +0.000 OA
ATOM     19  C   UNL     1       3.587   4.199  17.205  0.00  0.00    +0.000 C 
BRANCH  16  20
ATOM     20  C   UNL     1       5.127   6.172  17.711  0.00  0.00    +0.000 C 
BRANCH  20  26
ATOM     21  C   UNL     1       7.795   4.467  17.510  0.00  0.00    +0.000 C 
ATOM     22  N   UNL     1       6.993   4.974  16.429  0.00  0.00    +0.000 N 
ATOM     23  C   UNL     1       7.295   4.847  15.106  0.00  0.00    +0.000 A 
ATOM     24  N   UNL     1       6.362   5.420  14.386  0.00  0.00    +0.000 NA
ATOM     25  N   UNL     1       5.436   5.944  15.250  0.00  0.00    +0.000 NA
ATOM     26  C   UNL     1       5.822   5.686  16.485  0.00  0.00    +0.000 A 
ENDBRANCH  20  26
ENDBRANCH  16  20
ENDBRANCH   1  16
TORSDOF 4
ENDMDL
MODEL 5
REMARK VINA RESULT:      -7.6      3.118      7.300
REMARK  Name = 
REMARK  5 active torsions:
REMARK  status: ('A' for Active; 'I' for Inactive)
REMARK    1  A    between atoms: C_1  and  N_2
REMARK    2  A    between atoms: C_6  and  C_7
REMARK    3  A    between atoms: C_7  and  C_8
REMARK    4  A    between atoms: C_8  and  C_9
REMARK    5  A    between atoms: C_13  and  N_14
REMARK                            x       y       z     vdW  Elec       q    Type
REMARK                         _______ _______ _______ _____ _____    ______ ____
ROOT
ATOM      1  C   UNL     1       2.849   5.260  18.979  0.00  0.00    +0.000 A 
ATOM      2  C   UNL     1       2.373   4.766  20.218  0.00  0.00    +0.000 A 
ATOM      3  C   UNL     1       1.635   5.548  21.097  0.00  0.00    +0.000 A 
ATOM      4  C   UNL     1       1.374   6.871  20.773  0.00  0.00    +0.000 A 
ATOM      5  C   UNL     1       1.881   7.432  19.591  0.00  0.00    +0.000 A 
ATOM      6  C   UNL     1       2.551   6.611  18.673  0.00  0.00    +0.000 A 
ENDROOT
BRANCH   5   7
ATOM      7  N   UNL     1       1.876   8.856  19.540  0.00  0.00    +0.000 N 
ATOM      8  C   UNL     1       1.547   9.315  18.269  0.00  0.00    +0.000 C 
ATOM      9  O   UNL     1       2.087   9.269  17.185  0.00  0.00    +0.000 OA
ATOM     10  C   UNL     1       0.188   9.710  18.752  0.00  0.00    +0.000 C 
ATOM     11  C   UNL     1      -0.549  10.785  18.402  0.00  0.00    +0.000 C 
ATOM     12  C   UNL     1      -0.159  12.116  19.006  0.00  0.00    +0.000 C 
ATOM     13  C   UNL     1       0.122  11.993  20.535  0.00  0.00    +0.000 C 
ATOM     14  C   UNL     1       0.860  10.705  20.918  0.00  0.00    +0.000 C 
ATOM     15  C   UNL     1       0.898   9.692  20.027  0.00  0.00    +0.000 C 
ENDBRANCH   5   7
BRANCH   1  16
ATOM     16  C   UNL     1       3.754   4.313  18.034  0.00  0.00    +0.000 C 
ATOM     17  C   UNL     1       4.137   2.897  18.541  0.00  0.00    +0.000 C 
ATOM     18  O   UNL     1       3.422   2.246  17.469  0.00  0.00    +0.000 OA
ATOM     19  C   UNL     1       2.961   3.509  16.957  0.00  0.00    +0.000 C 
BRANCH  16  20
ATOM     20  C   UNL     1       4.897   5.116  17.388  0.00  0.00    +0.000 C 
BRANCH  20  26
ATOM     21  C   UNL     1       7.207   7.263  17.033  0.00  0.00    +0.000 C 
ATOM     22  N   UNL     1       7.035   6.327  18.112  0.00  0.00    +0.000 N 
ATOM     23  C   UNL     1       7.897   6.173  19.157  0.00  0.00    +0.000 A 
ATOM     24  N   UNL     1       7.450   5.240  19.961  0.00  0.00    +0.000 NA
ATOM     25  N   UNL     1       6.278   4.763  19.431  0.00  0.00    +0.000 NA
ATOM     26  C   UNL     1       6.033   5.411  18.308  0.00  0.00    +0.000 A 
ENDBRANCH  20  26
ENDBRANCH  16  20
ENDBRANCH   1  16
TORSDOF 4
ENDMDL
MODEL 6
REMARK VINA RESULT:      -7.6      3.711      7.406
REMARK  Name = 
REMARK  5 active torsions:
REMARK  status: ('A' for Active; 'I' for Inactive)
REMARK    1  A    between atoms: C_1  and  N_2
REMARK    2  A    between atoms: C_6  and  C_7
REMARK    3  A    between atoms: C_7  and  C_8
REMARK    4  A    between atoms: C_8  and  C_9
REMARK    5  A    between atoms: C_13  and  N_14
REMARK                            x       y       z     vdW  Elec       q    Type
REMARK                         _______ _______ _______ _____ _____    ______ ____
ROOT
ATOM      1  C   UNL     1       2.242   7.412  19.023  0.00  0.00    +0.000 A 
ATOM      2  C   UNL     1       1.958   7.409  20.410  0.00  0.00    +0.000 A 
ATOM      3  C   UNL     1       1.294   8.456  21.037  0.00  0.00    +0.000 A 
ATOM      4  C   UNL     1       0.917   9.563  20.291  0.00  0.00    +0.000 A 
ATOM      5  C   UNL     1       1.234   9.650  18.926  0.00  0.00    +0.000 A 
ATOM      6  C   UNL     1       1.829   8.552  18.288  0.00  0.00    +0.000 A 
ENDROOT
BRANCH   5   7
ATOM      7  N   UNL     1       1.140  10.953  18.360  0.00  0.00    +0.000 N 
ATOM      8  C   UNL     1      -0.078  11.552  18.670  0.00  0.00    +0.000 C 
ATOM      9  O   UNL     1      -1.232  11.329  18.374  0.00  0.00    +0.000 OA
ATOM     10  C   UNL     1       0.602  12.447  19.657  0.00  0.00    +0.000 C 
ATOM     11  C   UNL     1       0.339  13.740  19.939  0.00  0.00    +0.000 C 
ATOM     12  C   UNL     1       0.831  14.776  18.953  0.00  0.00    +0.000 C 
ATOM     13  C   UNL     1       2.299  14.495  18.509  0.00  0.00    +0.000 C 
ATOM     14  C   UNL     1       2.601  13.005  18.307  0.00  0.00    +0.000 C 
ATOM     15  C   UNL     1       1.748  12.097  18.825  0.00  0.00    +0.000 C 
ENDBRANCH   5   7
BRANCH   1  16
ATOM     16  C   UNL     1       3.073   6.189  18.372  0.00  0.00    +0.000 C 
ATOM     17  C   UNL     1       4.261   6.512  17.426  0.00  0.00    +0.000 C 
ATOM     18  O   UNL     1       5.220   5.891  18.308  0.00  0.00    +0.000 OA
ATOM     19  C   UNL     1       4.200   5.604  19.280  0.00  0.00    +0.000 C 
BRANCH  16  20
ATOM     20  C   UNL     1       2.124   5.079  17.888  0.00  0.00    +0.000 C 
BRANCH  20  26
ATOM     21  C   UNL     1       3.369   2.161  17.950  0.00  0.00    +0.000 C 
ATOM     22  N   UNL     1       2.422   2.731  18.870  0.00  0.00    +0.000 N 
ATOM     23  C   UNL     1       1.848   2.067  19.912  0.00  0.00    +0.000 A 
ATOM     24  N   UNL     1       1.033   2.871  20.550  0.00  0.00    +0.000 NA
ATOM     25  N   UNL     1       1.060   4.082  19.908  0.00  0.00    +0.000 NA
ATOM     26  C   UNL     1       1.890   3.996  18.886  0.00  0.00    +0.000 A 
ENDBRANCH  20  26
ENDBRANCH  16  20
ENDBRANCH   1  16
TORSDOF 4
ENDMDL
MODEL 7
REMARK VINA RESULT:      -7.6      4.667      7.076
REMARK  Name = 
REMARK  5 active torsions:
REMARK  status: ('A' for Active; 'I' for Inactive)
REMARK    1  A    between atoms: C_1  and  N_2
REMARK    2  A    between atoms: C_6  and  C_7
REMARK    3  A    between atoms: C_7  and  C_8
REMARK    4  A    between atoms: C_8  and  C_9
REMARK    5  A    between atoms: C_13  and  N_14
REMARK                            x       y       z     vdW  Elec       q    Type
REMARK                         _______ _______ _______ _____ _____    ______ ____
ROOT
ATOM      1  C   UNL     1       1.138   9.268  20.161  0.00  0.00    +0.000 A 
ATOM      2  C   UNL     1       1.264  10.004  18.958  0.00  0.00    +0.000 A 
ATOM      3  C   UNL     1       1.796   9.451  17.799  0.00  0.00    +0.000 A 
ATOM      4  C   UNL     1       2.250   8.140  17.820  0.00  0.00    +0.000 A 
ATOM      5  C   UNL     1       2.213   7.387  19.003  0.00  0.00    +0.000 A 
ATOM      6  C   UNL     1       1.597   7.928  20.142  0.00  0.00    +0.000 A 
ENDROOT
BRANCH   5   7
ATOM      7  N   UNL     1       3.027   6.219  19.009  0.00  0.00    +0.000 N 
ATOM      8  C   UNL     1       2.394   5.165  19.660  0.00  0.00    +0.000 C 
ATOM      9  O   UNL     1       2.064   4.952  20.806  0.00  0.00    +0.000 OA
ATOM     10  C   UNL     1       2.123   4.503  18.346  0.00  0.00    +0.000 C 
ATOM     11  C   UNL     1       2.141   3.188  18.048  0.00  0.00    +0.000 C 
ATOM     12  C   UNL     1       3.497   2.537  17.876  0.00  0.00    +0.000 C 
ATOM     13  C   UNL     1       4.448   3.413  17.003  0.00  0.00    +0.000 C 
ATOM     14  C   UNL     1       4.321   4.916  17.284  0.00  0.00    +0.000 C 
ATOM     15  C   UNL     1       3.238   5.359  17.956  0.00  0.00    +0.000 C 
ENDBRANCH   5   7
BRANCH   1  16
ATOM     16  C   UNL     1       0.569   9.994  21.487  0.00  0.00    +0.000 C 
ATOM     17  C   UNL     1      -0.628   9.349  22.236  0.00  0.00    +0.000 C 
ATOM     18  O   UNL     1       0.150   9.130  23.432  0.00  0.00    +0.000 OA
ATOM     19  C   UNL     1       1.334   9.652  22.804  0.00  0.00    +0.000 C 
BRANCH  16  20
ATOM     20  C   UNL     1       0.480  11.516  21.283  0.00  0.00    +0.000 C 
BRANCH  20  26
ATOM     21  C   UNL     1      -2.312  12.187  19.933  0.00  0.00    +0.000 C 
ATOM     22  N   UNL     1      -1.904  12.453  21.286  0.00  0.00    +0.000 N 
ATOM     23  C   UNL     1      -2.657  13.108  22.215  0.00  0.00    +0.000 A 
ATOM     24  N   UNL     1      -1.994  13.185  23.342  0.00  0.00    +0.000 NA
ATOM     25  N   UNL     1      -0.778  12.581  23.150  0.00  0.00    +0.000 NA
ATOM     26  C   UNL     1      -0.718  12.148  21.905  0.00  0.00    +0.000 A 
ENDBRANCH  20  26
ENDBRANCH  16  20
ENDBRANCH   1  16
TORSDOF 4
ENDMDL
MODEL 8
REMARK VINA RESULT:      -7.6      2.989      6.930
REMARK  Name = 
REMARK  5 active torsions:
REMARK  status: ('A' for Active; 'I' for Inactive)
REMARK    1  A    between atoms: C_1  and  N_2
REMARK    2  A    between atoms: C_6  and  C_7
REMARK    3  A    between atoms: C_7  and  C_8
REMARK    4  A    between atoms: C_8  and  C_9
REMARK    5  A    between atoms: C_13  and  N_14
REMARK                            x       y       z     vdW  Elec       q    Type
REMARK                         _______ _______ _______ _____ _____    ______ ____
ROOT
ATOM      1  C   UNL     1       3.236   6.141  18.980  0.00  0.00    +0.000 A 
ATOM      2  C   UNL     1       2.846   5.485  20.173  0.00  0.00    +0.000 A 
ATOM      3  C   UNL     1       1.895   6.013  21.037  0.00  0.00    +0.000 A 
ATOM      4  C   UNL     1       1.323   7.243  20.745  0.00  0.00    +0.000 A 
ATOM      5  C   UNL     1       1.723   7.969  19.612  0.00  0.00    +0.000 A 
ATOM      6  C   UNL     1       2.620   7.387  18.705  0.00  0.00    +0.000 A 
ENDROOT
BRANCH   5   7
ATOM      7  N   UNL     1       1.360   9.346  19.611  0.00  0.00    +0.000 N 
ATOM      8  C   UNL     1       1.219   9.830  18.314  0.00  0.00    +0.000 C 
ATOM      9  O   UNL     1       1.982  10.020  17.393  0.00  0.00    +0.000 OA
ATOM     10  C   UNL     1      -0.269   9.834  18.467  0.00  0.00    +0.000 C 
ATOM     11  C   UNL     1      -1.161  10.724  17.986  0.00  0.00    +0.000 C 
ATOM     12  C   UNL     1      -1.277  12.047  18.711  0.00  0.00    +0.000 C 
ATOM     13  C   UNL     1      -1.327  11.851  20.258  0.00  0.00    +0.000 C 
ATOM     14  C   UNL     1      -0.385  10.751  20.764  0.00  0.00    +0.000 C 
ATOM     15  C   UNL     1       0.114   9.868  19.874  0.00  0.00    +0.000 C 
ENDBRANCH   5   7
BRANCH   1  16
ATOM     16  C   UNL     1       4.393   5.498  18.054  0.00  0.00    +0.000 C 
ATOM     17  C   UNL     1       5.437   6.441  17.399  0.00  0.00    +0.000 C 
ATOM     18  O   UNL     1       6.533   5.843  18.122  0.00  0.00    +0.000 OA
ATOM     19  C   UNL     1       5.638   4.967  18.831  0.00  0.00    +0.000 C 
BRANCH  16  20
ATOM     20  C   UNL     1       3.815   4.409  17.133  0.00  0.00    +0.000 C 
BRANCH  20  26
ATOM     21  C   UNL     1       3.902   1.853  19.012  0.00  0.00    +0.000 C 
ATOM     22  N   UNL     1       2.739   2.533  18.507  0.00  0.00    +0.000 N 
ATOM     23  C   UNL     1       1.451   2.139  18.717  0.00  0.00    +0.000 A 
ATOM     24  N   UNL     1       0.635   2.973  18.121  0.00  0.00    +0.000 NA
ATOM     25  N   UNL     1       1.398   3.927  17.497  0.00  0.00    +0.000 NA
ATOM     26  C   UNL     1       2.670   3.655  17.720  0.00  0.00    +0.000 A 
ENDBRANCH  20  26
ENDBRANCH  16  20
ENDBRANCH   1  16
TORSDOF 4
ENDMDL
MODEL 9
REMARK VINA RESULT:      -7.6      3.594      8.061
REMARK  Name = 
REMARK  5 active torsions:
REMARK  status: ('A' for Active; 'I' for Inactive)
REMARK    1  A    between atoms: C_1  and  N_2
REMARK    2  A    between atoms: C_6  and  C_7
REMARK    3  A    between atoms: C_7  and  C_8
REMARK    4  A    between atoms: C_8  and  C_9
REMARK    5  A    between atoms: C_13  and  N_14
REMARK                            x       y       z     vdW  Elec       q    Type
REMARK                         _______ _______ _______ _____ _____    ______ ____
ROOT
ATOM      1  C   UNL     1       2.567   6.557  19.004  0.00  0.00    +0.000 A 
ATOM      2  C   UNL     1       2.928   7.207  17.799  0.00  0.00    +0.000 A 
ATOM      3  C   UNL     1       2.625   8.540  17.552  0.00  0.00    +0.000 A 
ATOM      4  C   UNL     1       1.916   9.262  18.501  0.00  0.00    +0.000 A 
ATOM      5  C   UNL     1       1.473   8.649  19.684  0.00  0.00    +0.000 A 
ATOM      6  C   UNL     1       1.859   7.328  19.959  0.00  0.00    +0.000 A 
ENDROOT
BRANCH   5   7
ATOM      7  N   UNL     1       0.460   9.354  20.394  0.00  0.00    +0.000 N 
ATOM      8  C   UNL     1       0.988  10.028  21.491  0.00  0.00    +0.000 C 
ATOM      9  O   UNL     1       1.492   9.680  22.537  0.00  0.00    +0.000 OA
ATOM     10  C   UNL     1       0.852  11.330  20.770  0.00  0.00    +0.000 C 
ATOM     11  C   UNL     1       0.512  12.537  21.269  0.00  0.00    +0.000 C 
ATOM     12  C   UNL     1      -0.952  12.772  21.570  0.00  0.00    +0.000 C 
ATOM     13  C   UNL     1      -1.865  12.271  20.408  0.00  0.00    +0.000 C 
ATOM     14  C   UNL     1      -1.388  10.955  19.782  0.00  0.00    +0.000 C 
ATOM     15  C   UNL     1      -0.125  10.543  20.025  0.00  0.00    +0.000 C 
ENDBRANCH   5   7
BRANCH   1  16
ATOM     16  C   UNL     1       2.898   4.988  19.198  0.00  0.00    +0.000 C 
ATOM     17  C   UNL     1       2.936   4.404  20.636  0.00  0.00    +0.000 C 
ATOM     18  O   UNL     1       1.831   3.513  20.376  0.00  0.00    +0.000 OA
ATOM     19  C   UNL     1       1.673   4.034  19.045  0.00  0.00    +0.000 C 
BRANCH  16  20
ATOM     20  C   UNL     1       4.052   4.554  18.277  0.00  0.00    +0.000 C 
BRANCH  20  26
ATOM     21  C   UNL     1       6.108   6.259  16.564  0.00  0.00    +0.000 C 
ATOM     22  N   UNL     1       6.270   5.781  17.911  0.00  0.00    +0.000 N 
ATOM     23  C   UNL     1       7.393   5.942  18.667  0.00  0.00    +0.000 A 
ATOM     24  N   UNL     1       7.214   5.390  19.842  0.00  0.00    +0.000 NA
ATOM     25  N   UNL     1       5.956   4.844  19.856  0.00  0.00    +0.000 NA
ATOM     26  C   UNL     1       5.389   5.070  18.686  0.00  0.00    +0.000 A 
ENDBRANCH  20  26
ENDBRANCH  16  20
ENDBRANCH   1  16
TORSDOF 4
ENDMDL
