MODEL 1
REMARK VINA RESULT:      -9.7      0.000      0.000
REMARK  Name = 
REMARK  5 active torsions:
REMARK  status: ('A' for Active; 'I' for Inactive)
REMARK    1  A    between atoms: C_2  and  C_20
REMARK    2  A    between atoms: N_3  and  C_4
REMARK    3  A    between atoms: C_8  and  C_9
REMARK    4  A    between atoms: C_24  and  C_25
REMARK    5  A    between atoms: C_25  and  N_26
REMARK                            x       y       z     vdW  Elec       q    Type
REMARK                         _______ _______ _______ _____ _____    ______ ____
ROOT
ATOM      1  O   UNL     1       0.683  10.001  17.757  0.00  0.00    +0.000 OA
ATOM      2  C   UNL     1       1.118   9.618  18.836  0.00  0.00    +0.000 C 
ATOM      3  N   UNL     1       0.966  10.244  20.064  0.00  0.00    +0.000 N 
ATOM      4  H   UNL     1       1.531   9.905  20.830  0.00  0.00    +0.000 HD
ENDROOT
BRANCH   3   5
ATOM      5  C   UNL     1       0.259  11.437  20.287  0.00  0.00    +0.000 A 
ATOM      6  C   UNL     1       0.860  12.696  20.314  0.00  0.00    +0.000 A 
ATOM      7  C   UNL     1       0.124  13.835  20.636  0.00  0.00    +0.000 A 
ATOM      8  C   UNL     1      -1.233  13.723  20.929  0.00  0.00    +0.000 A 
ATOM      9  C   UNL     1      -1.876  12.479  20.866  0.00  0.00    +0.000 A 
ATOM     10  C   UNL     1      -1.125  11.349  20.511  0.00  0.00    +0.000 A 
BRANCH   9  11
ATOM     11  C   UNL     1      -3.314  12.418  21.153  0.00  0.00    +0.000 A 
ATOM     12  N   UNL     1      -3.835  12.476  22.365  0.00  0.00    +0.000 NA
ATOM     13  N   UNL     1      -5.197  12.426  22.263  0.00  0.00    +0.000 NA
ATOM     14  C   UNL     1      -5.511  12.313  20.991  0.00  0.00    +0.000 A 
ATOM     15  N   UNL     1      -4.350  12.256  20.254  0.00  0.00    +0.000 N 
ATOM     16  C   UNL     1      -4.234  12.020  18.829  0.00  0.00    +0.000 C 
ATOM     17  C   UNL     1      -5.247  11.030  18.269  0.00  0.00    +0.000 C 
ATOM     18  C   UNL     1      -6.622  11.640  18.010  0.00  0.00    +0.000 C 
ATOM     19  C   UNL     1      -7.086  12.676  19.034  0.00  0.00    +0.000 C 
ATOM     20  C   UNL     1      -6.907  12.222  20.476  0.00  0.00    +0.000 C 
ENDBRANCH   9  11
ENDBRANCH   3   5
BRANCH   2  21
ATOM     21  C   UNL     1       1.950   8.389  18.843  0.00  0.00    +0.000 A 
ATOM     22  C   UNL     1       1.891   7.542  19.954  0.00  0.00    +0.000 A 
ATOM     23  C   UNL     1       2.679   6.395  20.006  0.00  0.00    +0.000 A 
ATOM     24  C   UNL     1       3.524   6.087  18.945  0.00  0.00    +0.000 A 
ATOM     25  C   UNL     1       3.602   6.937  17.836  0.00  0.00    +0.000 A 
ATOM     26  C   UNL     1       2.823   8.098  17.793  0.00  0.00    +0.000 A 
BRANCH  25  27
ATOM     27  C   UNL     1       4.600   6.654  16.756  0.00  0.00    +0.000 C 
BRANCH  27  28
ATOM     28  N   UNL     1       5.439   5.481  16.937  0.00  0.00    +0.000 N 
ATOM     29  C   UNL     1       6.708   5.723  16.455  0.00  0.00    +0.000 C 
ATOM     30  O   UNL     1       7.540   6.509  16.865  0.00  0.00    +0.000 OA
ATOM     31  C   UNL     1       6.819   4.987  15.205  0.00  0.00    +0.000 A 
ATOM     32  C   UNL     1       7.530   5.343  14.078  0.00  0.00    +0.000 A 
ATOM     33  C   UNL     1       7.164   4.725  12.881  0.00  0.00    +0.000 A 
ATOM     34  C   UNL     1       6.137   3.756  12.850  0.00  0.00    +0.000 A 
ATOM     35  C   UNL     1       5.427   3.420  14.007  0.00  0.00    +0.000 A 
ATOM     36  C   UNL     1       5.776   4.084  15.165  0.00  0.00    +0.000 A 
ATOM     37  C   UNL     1       4.968   4.314  16.362  0.00  0.00    +0.000 C 
ATOM     38  O   UNL     1       4.009   3.632  16.674  0.00  0.00    +0.000 OA
ENDBRANCH  27  28
ENDBRANCH  25  27
ENDBRANCH   2  21
TORSDOF 5
ENDMDL
MODEL 2
REMARK VINA RESULT:      -9.6      3.486     11.459
REMARK  Name = 
REMARK  5 active torsions:
REMARK  status: ('A' for Active; 'I' for Inactive)
REMARK    1  A    between atoms: C_2  and  C_20
REMARK    2  A    between atoms: N_3  and  C_4
REMARK    3  A    between atoms: C_8  and  C_9
REMARK    4  A    between atoms: C_24  and  C_25
REMARK    5  A    between atoms: C_25  and  N_26
REMARK                            x       y       z     vdW  Elec       q    Type
REMARK                         _______ _______ _______ _____ _____    ______ ____
ROOT
ATOM      1  O   UNL     1       1.949   8.459  19.475  0.00  0.00    +0.000 OA
ATOM      2  C   UNL     1       1.369   8.186  20.519  0.00  0.00    +0.000 C 
ATOM      3  N   UNL     1       1.259   6.935  21.107  0.00  0.00    +0.000 N 
ATOM      4  H   UNL     1       0.602   6.837  21.868  0.00  0.00    +0.000 HD
ENDROOT
BRANCH   3   5
ATOM      5  C   UNL     1       1.820   5.749  20.606  0.00  0.00    +0.000 A 
ATOM      6  C   UNL     1       1.195   4.504  20.691  0.00  0.00    +0.000 A 
ATOM      7  C   UNL     1       1.841   3.346  20.264  0.00  0.00    +0.000 A 
ATOM      8  C   UNL     1       3.128   3.426  19.737  0.00  0.00    +0.000 A 
ATOM      9  C   UNL     1       3.766   4.666  19.596  0.00  0.00    +0.000 A 
ATOM     10  C   UNL     1       3.087   5.824  20.004  0.00  0.00    +0.000 A 
BRANCH   9  11
ATOM     11  C   UNL     1       5.109   4.700  19.007  0.00  0.00    +0.000 A 
ATOM     12  N   UNL     1       6.230   4.683  19.705  0.00  0.00    +0.000 NA
ATOM     13  N   UNL     1       7.289   4.690  18.841  0.00  0.00    +0.000 NA
ATOM     14  C   UNL     1       6.819   4.737  17.613  0.00  0.00    +0.000 A 
ATOM     15  N   UNL     1       5.445   4.792  17.670  0.00  0.00    +0.000 N 
ATOM     16  C   UNL     1       4.533   4.967  16.556  0.00  0.00    +0.000 C 
ATOM     17  C   UNL     1       5.041   5.901  15.467  0.00  0.00    +0.000 C 
ATOM     18  C   UNL     1       6.023   5.243  14.501  0.00  0.00    +0.000 C 
ATOM     19  C   UNL     1       6.993   4.242  15.130  0.00  0.00    +0.000 C 
ATOM     20  C   UNL     1       7.669   4.766  16.389  0.00  0.00    +0.000 C 
ENDBRANCH   9  11
ENDBRANCH   3   5
BRANCH   2  21
ATOM     21  C   UNL     1       0.649   9.284  21.212  0.00  0.00    +0.000 A 
ATOM     22  C   UNL     1       0.136   9.051  22.492  0.00  0.00    +0.000 A 
ATOM     23  C   UNL     1      -0.569  10.050  23.159  0.00  0.00    +0.000 A 
ATOM     24  C   UNL     1      -0.756  11.288  22.552  0.00  0.00    +0.000 A 
ATOM     25  C   UNL     1      -0.259  11.525  21.265  0.00  0.00    +0.000 A 
ATOM     26  C   UNL     1       0.432  10.514  20.589  0.00  0.00    +0.000 A 
BRANCH  25  27
ATOM     27  C   UNL     1      -0.570  12.820  20.581  0.00  0.00    +0.000 C 
BRANCH  27  28
ATOM     28  N   UNL     1       0.402  13.889  20.740  0.00  0.00    +0.000 N 
ATOM     29  C   UNL     1      -0.096  14.867  21.574  0.00  0.00    +0.000 C 
ATOM     30  O   UNL     1      -0.362  14.794  22.758  0.00  0.00    +0.000 OA
ATOM     31  C   UNL     1      -0.446  15.994  20.724  0.00  0.00    +0.000 A 
ATOM     32  C   UNL     1      -1.484  16.888  20.892  0.00  0.00    +0.000 A 
ATOM     33  C   UNL     1      -1.884  17.607  19.765  0.00  0.00    +0.000 A 
ATOM     34  C   UNL     1      -1.225  17.443  18.527  0.00  0.00    +0.000 A 
ATOM     35  C   UNL     1      -0.182  16.524  18.383  0.00  0.00    +0.000 A 
ATOM     36  C   UNL     1       0.159  15.790  19.500  0.00  0.00    +0.000 A 
ATOM     37  C   UNL     1       0.826  14.490  19.568  0.00  0.00    +0.000 C 
ATOM     38  O   UNL     1       1.523  14.038  18.677  0.00  0.00    +0.000 OA
ENDBRANCH  27  28
ENDBRANCH  25  27
ENDBRANCH   2  21
TORSDOF 5
ENDMDL
MODEL 3
REMARK VINA RESULT:      -9.6      1.672      2.327
REMARK  Name = 
REMARK  5 active torsions:
REMARK  status: ('A' for Active; 'I' for Inactive)
REMARK    1  A    between atoms: C_2  and  C_20
REMARK    2  A    between atoms: N_3  and  C_4
REMARK    3  A    between atoms: C_8  and  C_9
REMARK    4  A    between atoms: C_24  and  C_25
REMARK    5  A    between atoms: C_25  and  N_26
REMARK                            x       y       z     vdW  Elec       q    Type
REMARK                         _______ _______ _______ _____ _____    ______ ____
ROOT
ATOM      1  O   UNL     1       0.186   8.487  21.291  0.00  0.00    +0.000 OA
ATOM      2  C   UNL     1       0.900   8.386  20.301  0.00  0.00    +0.000 C 
ATOM      3  N   UNL     1       0.994   9.284  19.249  0.00  0.00    +0.000 N 
ATOM      4  H   UNL     1       1.488   8.980  18.422  0.00  0.00    +0.000 HD
ENDROOT
BRANCH   3   5
ATOM      5  C   UNL     1       0.287  10.493  19.146  0.00  0.00    +0.000 A 
ATOM      6  C   UNL     1       0.767  11.711  19.630  0.00  0.00    +0.000 A 
ATOM      7  C   UNL     1      -0.019  12.860  19.588  0.00  0.00    +0.000 A 
ATOM      8  C   UNL     1      -1.304  12.801  19.051  0.00  0.00    +0.000 A 
ATOM      9  C   UNL     1      -1.799  11.604  18.516  0.00  0.00    +0.000 A 
ATOM     10  C   UNL     1      -0.980  10.465  18.540  0.00  0.00    +0.000 A 
BRANCH   9  11
ATOM     11  C   UNL     1      -3.145  11.601  17.934  0.00  0.00    +0.000 A 
ATOM     12  N   UNL     1      -3.411  11.316  16.672  0.00  0.00    +0.000 NA
ATOM     13  N   UNL     1      -4.763  11.375  16.481  0.00  0.00    +0.000 NA
ATOM     14  C   UNL     1      -5.325  11.721  17.618  0.00  0.00    +0.000 A 
ATOM     15  N   UNL     1      -4.337  11.921  18.555  0.00  0.00    +0.000 N 
ATOM     16  C   UNL     1      -4.505  12.419  19.906  0.00  0.00    +0.000 C 
ATOM     17  C   UNL     1      -5.578  13.489  20.054  0.00  0.00    +0.000 C 
ATOM     18  C   UNL     1      -6.996  12.930  20.132  0.00  0.00    +0.000 C 
ATOM     19  C   UNL     1      -7.276  11.719  19.243  0.00  0.00    +0.000 C 
ATOM     20  C   UNL     1      -6.793  11.898  17.810  0.00  0.00    +0.000 C 
ENDBRANCH   9  11
ENDBRANCH   3   5
BRANCH   2  21
ATOM     21  C   UNL     1       1.713   7.152  20.163  0.00  0.00    +0.000 A 
ATOM     22  C   UNL     1       1.469   6.084  21.033  0.00  0.00    +0.000 A 
ATOM     23  C   UNL     1       2.232   4.921  20.949  0.00  0.00    +0.000 A 
ATOM     24  C   UNL     1       3.236   4.820  19.992  0.00  0.00    +0.000 A 
ATOM     25  C   UNL     1       3.497   5.890  19.127  0.00  0.00    +0.000 A 
ATOM     26  C   UNL     1       2.742   7.062  19.225  0.00  0.00    +0.000 A 
BRANCH  25  27
ATOM     27  C   UNL     1       4.655   5.809  18.182  0.00  0.00    +0.000 C 
BRANCH  27  28
ATOM     28  N   UNL     1       5.182   4.482  17.909  0.00  0.00    +0.000 N 
ATOM     29  C   UNL     1       6.538   4.546  17.670  0.00  0.00    +0.000 C 
ATOM     30  O   UNL     1       7.432   4.857  18.434  0.00  0.00    +0.000 OA
ATOM     31  C   UNL     1       6.712   4.360  16.238  0.00  0.00    +0.000 A 
ATOM     32  C   UNL     1       7.671   4.927  15.424  0.00  0.00    +0.000 A 
ATOM     33  C   UNL     1       7.401   4.949  14.055  0.00  0.00    +0.000 A 
ATOM     34  C   UNL     1       6.215   4.381  13.540  0.00  0.00    +0.000 A 
ATOM     35  C   UNL     1       5.256   3.820  14.389  0.00  0.00    +0.000 A 
ATOM     36  C   UNL     1       5.526   3.858  15.742  0.00  0.00    +0.000 A 
ATOM     37  C   UNL     1       4.585   3.806  16.860  0.00  0.00    +0.000 C 
ATOM     38  O   UNL     1       3.464   3.338  16.782  0.00  0.00    +0.000 OA
ENDBRANCH  27  28
ENDBRANCH  25  27
ENDBRANCH   2  21
TORSDOF 5
ENDMDL
MODEL 4
REMARK VINA RESULT:      -9.5      2.912      5.038
REMARK  Name = 
REMARK  5 active torsions:
REMARK  status: ('A' for Active; 'I' for Inactive)
REMARK    1  A    between atoms: C_2  and  C_20
REMARK    2  A    between atoms: N_3  and  C_4
REMARK    3  A    between atoms: C_8  and  C_9
REMARK    4  A    between atoms: C_24  and  C_25
REMARK    5  A    between atoms: C_25  and  N_26
REMARK                            x       y       z     vdW  Elec       q    Type
REMARK                         _______ _______ _______ _____ _____    ______ ____
ROOT
ATOM      1  O   UNL     1       1.666   7.413  19.904  0.00  0.00    +0.000 OA
ATOM      2  C   UNL     1       2.169   7.861  18.881  0.00  0.00    +0.000 C 
ATOM      3  N   UNL     1       1.733   8.956  18.150  0.00  0.00    +0.000 N 
ATOM      4  H   UNL     1       2.140   9.096  17.237  0.00  0.00    +0.000 HD
ENDROOT
BRANCH   3   5
ATOM      5  C   UNL     1       0.630   9.763  18.475  0.00  0.00    +0.000 A 
ATOM      6  C   UNL     1      -0.571   9.750  17.765  0.00  0.00    +0.000 A 
ATOM      7  C   UNL     1      -1.596  10.642  18.072  0.00  0.00    +0.000 A 
ATOM      8  C   UNL     1      -1.429  11.559  19.108  0.00  0.00    +0.000 A 
ATOM      9  C   UNL     1      -0.252  11.567  19.870  0.00  0.00    +0.000 A 
ATOM     10  C   UNL     1       0.756  10.641  19.564  0.00  0.00    +0.000 A 
BRANCH   9  11
ATOM     11  C   UNL     1      -0.137  12.531  20.970  0.00  0.00    +0.000 A 
ATOM     12  N   UNL     1       0.968  13.187  21.274  0.00  0.00    +0.000 NA
ATOM     13  N   UNL     1       0.711  14.022  22.325  0.00  0.00    +0.000 NA
ATOM     14  C   UNL     1      -0.544  13.860  22.683  0.00  0.00    +0.000 A 
ATOM     15  N   UNL     1      -1.108  12.892  21.884  0.00  0.00    +0.000 N 
ATOM     16  C   UNL     1      -2.436  12.325  22.009  0.00  0.00    +0.000 C 
ATOM     17  C   UNL     1      -2.915  12.151  23.444  0.00  0.00    +0.000 C 
ATOM     18  C   UNL     1      -3.453  13.434  24.072  0.00  0.00    +0.000 C 
ATOM     19  C   UNL     1      -2.713  14.715  23.688  0.00  0.00    +0.000 C 
ATOM     20  C   UNL     1      -1.199  14.595  23.802  0.00  0.00    +0.000 C 
ENDBRANCH   9  11
ENDBRANCH   3   5
BRANCH   2  21
ATOM     21  C   UNL     1       3.332   7.135  18.312  0.00  0.00    +0.000 A 
ATOM     22  C   UNL     1       3.803   7.503  17.048  0.00  0.00    +0.000 A 
ATOM     23  C   UNL     1       4.875   6.823  16.473  0.00  0.00    +0.000 A 
ATOM     24  C   UNL     1       5.484   5.780  17.163  0.00  0.00    +0.000 A 
ATOM     25  C   UNL     1       5.010   5.396  18.422  0.00  0.00    +0.000 A 
ATOM     26  C   UNL     1       3.922   6.066  18.990  0.00  0.00    +0.000 A 
BRANCH  25  27
ATOM     27  C   UNL     1       5.600   4.198  19.099  0.00  0.00    +0.000 C 
BRANCH  27  28
ATOM     28  N   UNL     1       4.899   2.938  18.921  0.00  0.00    +0.000 N 
ATOM     29  C   UNL     1       3.781   3.120  18.134  0.00  0.00    +0.000 C 
ATOM     30  O   UNL     1       3.720   3.438  16.962  0.00  0.00    +0.000 OA
ATOM     31  C   UNL     1       2.635   3.052  19.027  0.00  0.00    +0.000 A 
ATOM     32  C   UNL     1       1.447   3.746  18.929  0.00  0.00    +0.000 A 
ATOM     33  C   UNL     1       0.680   3.849  20.090  0.00  0.00    +0.000 A 
ATOM     34  C   UNL     1       1.096   3.234  21.291  0.00  0.00    +0.000 A 
ATOM     35  C   UNL     1       2.309   2.543  21.365  0.00  0.00    +0.000 A 
ATOM     36  C   UNL     1       3.072   2.502  20.215  0.00  0.00    +0.000 A 
ATOM     37  C   UNL     1       4.514   2.298  20.085  0.00  0.00    +0.000 C 
ATOM     38  O   UNL     1       5.201   1.755  20.931  0.00  0.00    +0.000 OA
ENDBRANCH  27  28
ENDBRANCH  25  27
ENDBRANCH   2  21
TORSDOF 5
ENDMDL
MODEL 5
REMARK VINA RESULT:      -9.4      7.238     10.739
REMARK  Name = 
REMARK  5 active torsions:
REMARK  status: ('A' for Active; 'I' for Inactive)
REMARK    1  A    between atoms: C_2  and  C_20
REMARK    2  A    between atoms: N_3  and  C_4
REMARK    3  A    between atoms: C_8  and  C_9
REMARK    4  A    between atoms: C_24  and  C_25
REMARK    5  A    between atoms: C_25  and  N_26
REMARK                            x       y       z     vdW  Elec       q    Type
REMARK                         _______ _______ _______ _____ _____    ______ ____
ROOT
ATOM      1  O   UNL     1       8.562   6.982  19.084  0.00  0.00    +0.000 OA
ATOM      2  C   UNL     1       7.954   7.572  18.198  0.00  0.00    +0.000 C 
ATOM      3  N   UNL     1       7.994   8.931  17.926  0.00  0.00    +0.000 N 
ATOM      4  H   UNL     1       7.305   9.295  17.283  0.00  0.00    +0.000 HD
ENDROOT
BRANCH   3   5
ATOM      5  C   UNL     1       8.766   9.877  18.620  0.00  0.00    +0.000 A 
ATOM      6  C   UNL     1       8.984   9.833  19.998  0.00  0.00    +0.000 A 
ATOM      7  C   UNL     1       9.677  10.852  20.647  0.00  0.00    +0.000 A 
ATOM      8  C   UNL     1      10.168  11.931  19.916  0.00  0.00    +0.000 A 
ATOM      9  C   UNL     1      10.005  11.983  18.524  0.00  0.00    +0.000 A 
ATOM     10  C   UNL     1       9.331  10.932  17.885  0.00  0.00    +0.000 A 
BRANCH   9  11
ATOM     11  C   UNL     1      10.568  13.125  17.795  0.00  0.00    +0.000 A 
ATOM     12  N   UNL     1      11.369  13.021  16.751  0.00  0.00    +0.000 NA
ATOM     13  N   UNL     1      11.674  14.274  16.301  0.00  0.00    +0.000 NA
ATOM     14  C   UNL     1      11.081  15.149  17.084  0.00  0.00    +0.000 A 
ATOM     15  N   UNL     1      10.407  14.468  18.073  0.00  0.00    +0.000 N 
ATOM     16  C   UNL     1       9.714  15.043  19.208  0.00  0.00    +0.000 C 
ATOM     17  C   UNL     1      10.384  16.277  19.798  0.00  0.00    +0.000 C 
ATOM     18  C   UNL     1      10.093  17.562  19.027  0.00  0.00    +0.000 C 
ATOM     19  C   UNL     1      10.019  17.415  17.508  0.00  0.00    +0.000 C 
ATOM     20  C   UNL     1      11.181  16.627  16.919  0.00  0.00    +0.000 C 
ENDBRANCH   9  11
ENDBRANCH   3   5
BRANCH   2  21
ATOM     21  C   UNL     1       7.026   6.777  17.356  0.00  0.00    +0.000 A 
ATOM     22  C   UNL     1       7.426   6.420  16.064  0.00  0.00    +0.000 A 
ATOM     23  C   UNL     1       6.568   5.699  15.237  0.00  0.00    +0.000 A 
ATOM     24  C   UNL     1       5.311   5.327  15.700  0.00  0.00    +0.000 A 
ATOM     25  C   UNL     1       4.896   5.693  16.986  0.00  0.00    +0.000 A 
ATOM     26  C   UNL     1       5.751   6.432  17.808  0.00  0.00    +0.000 A 
BRANCH  25  27
ATOM     27  C   UNL     1       3.499   5.385  17.426  0.00  0.00    +0.000 C 
BRANCH  27  28
ATOM     28  N   UNL     1       3.095   3.989  17.382  0.00  0.00    +0.000 N 
ATOM     29  C   UNL     1       1.766   3.865  17.729  0.00  0.00    +0.000 C 
ATOM     30  O   UNL     1       0.784   4.275  17.139  0.00  0.00    +0.000 OA
ATOM     31  C   UNL     1       1.742   3.307  19.072  0.00  0.00    +0.000 A 
ATOM     32  C   UNL     1       0.828   3.558  20.074  0.00  0.00    +0.000 A 
ATOM     33  C   UNL     1       1.224   3.258  21.377  0.00  0.00    +0.000 A 
ATOM     34  C   UNL     1       2.490   2.690  21.638  0.00  0.00    +0.000 A 
ATOM     35  C   UNL     1       3.401   2.454  20.604  0.00  0.00    +0.000 A 
ATOM     36  C   UNL     1       3.002   2.808  19.331  0.00  0.00    +0.000 A 
ATOM     37  C   UNL     1       3.834   3.128  18.171  0.00  0.00    +0.000 C 
ATOM     38  O   UNL     1       4.988   2.760  18.043  0.00  0.00    +0.000 OA
ENDBRANCH  27  28
ENDBRANCH  25  27
ENDBRANCH   2  21
TORSDOF 5
ENDMDL
MODEL 6
REMARK VINA RESULT:      -9.4      2.504     11.905
REMARK  Name = 
REMARK  5 active torsions:
REMARK  status: ('A' for Active; 'I' for Inactive)
REMARK    1  A    between atoms: C_2  and  C_20
REMARK    2  A    between atoms: N_3  and  C_4
REMARK    3  A    between atoms: C_8  and  C_9
REMARK    4  A    between atoms: C_24  and  C_25
REMARK    5  A    between atoms: C_25  and  N_26
REMARK                            x       y       z     vdW  Elec       q    Type
REMARK                         _______ _______ _______ _____ _____    ______ ____
ROOT
ATOM      1  O   UNL     1       1.594   8.933  22.121  0.00  0.00    +0.000 OA
ATOM      2  C   UNL     1       1.171   9.054  20.978  0.00  0.00    +0.000 C 
ATOM      3  N   UNL     1       1.255   8.119  19.957  0.00  0.00    +0.000 N 
ATOM      4  H   UNL     1       1.023   8.428  19.025  0.00  0.00    +0.000 HD
ENDROOT
BRANCH   3   5
ATOM      5  C   UNL     1       1.834   6.844  20.069  0.00  0.00    +0.000 A 
ATOM      6  C   UNL     1       1.246   5.788  20.769  0.00  0.00    +0.000 A 
ATOM      7  C   UNL     1       1.911   4.575  20.928  0.00  0.00    +0.000 A 
ATOM      8  C   UNL     1       3.180   4.403  20.378  0.00  0.00    +0.000 A 
ATOM      9  C   UNL     1       3.778   5.427  19.631  0.00  0.00    +0.000 A 
ATOM     10  C   UNL     1       3.080   6.631  19.457  0.00  0.00    +0.000 A 
BRANCH   9  11
ATOM     11  C   UNL     1       5.102   5.186  19.046  0.00  0.00    +0.000 A 
ATOM     12  N   UNL     1       6.215   5.061  19.746  0.00  0.00    +0.000 NA
ATOM     13  N   UNL     1       7.250   4.810  18.890  0.00  0.00    +0.000 NA
ATOM     14  C   UNL     1       6.777   4.806  17.662  0.00  0.00    +0.000 A 
ATOM     15  N   UNL     1       5.430   5.086  17.708  0.00  0.00    +0.000 N 
ATOM     16  C   UNL     1       4.544   5.289  16.579  0.00  0.00    +0.000 C 
ATOM     17  C   UNL     1       5.180   6.015  15.401  0.00  0.00    +0.000 C 
ATOM     18  C   UNL     1       6.032   5.113  14.512  0.00  0.00    +0.000 C 
ATOM     19  C   UNL     1       6.838   4.040  15.244  0.00  0.00    +0.000 C 
ATOM     20  C   UNL     1       7.605   4.574  16.445  0.00  0.00    +0.000 C 
ENDBRANCH   9  11
ENDBRANCH   3   5
BRANCH   2  21
ATOM     21  C   UNL     1       0.555  10.352  20.606  0.00  0.00    +0.000 A 
ATOM     22  C   UNL     1       1.288  11.244  19.817  0.00  0.00    +0.000 A 
ATOM     23  C   UNL     1       0.751  12.483  19.474  0.00  0.00    +0.000 A 
ATOM     24  C   UNL     1      -0.523  12.830  19.912  0.00  0.00    +0.000 A 
ATOM     25  C   UNL     1      -1.257  11.950  20.715  0.00  0.00    +0.000 A 
ATOM     26  C   UNL     1      -0.709  10.715  21.074  0.00  0.00    +0.000 A 
BRANCH  25  27
ATOM     27  C   UNL     1      -2.576  12.386  21.273  0.00  0.00    +0.000 C 
BRANCH  27  28
ATOM     28  N   UNL     1      -3.458  13.108  20.371  0.00  0.00    +0.000 N 
ATOM     29  C   UNL     1      -4.359  13.866  21.089  0.00  0.00    +0.000 C 
ATOM     30  O   UNL     1      -4.145  14.821  21.810  0.00  0.00    +0.000 OA
ATOM     31  C   UNL     1      -5.641  13.185  20.989  0.00  0.00    +0.000 A 
ATOM     32  C   UNL     1      -6.638  13.120  21.940  0.00  0.00    +0.000 A 
ATOM     33  C   UNL     1      -7.570  12.091  21.805  0.00  0.00    +0.000 A 
ATOM     34  C   UNL     1      -7.504  11.189  20.721  0.00  0.00    +0.000 A 
ATOM     35  C   UNL     1      -6.477  11.273  19.775  0.00  0.00    +0.000 A 
ATOM     36  C   UNL     1      -5.540  12.269  19.962  0.00  0.00    +0.000 A 
ATOM     37  C   UNL     1      -4.163  12.327  19.473  0.00  0.00    +0.000 C 
ATOM     38  O   UNL     1      -3.757  11.697  18.513  0.00  0.00    +0.000 OA
ENDBRANCH  27  28
ENDBRANCH  25  27
ENDBRANCH   2  21
TORSDOF 5
ENDMDL
MODEL 7
REMARK VINA RESULT:      -9.3      2.475      4.473
REMARK  Name = 
REMARK  5 active torsions:
REMARK  status: ('A' for Active; 'I' for Inactive)
REMARK    1  A    between atoms: C_2  and  C_20
REMARK    2  A    between atoms: N_3  and  C_4
REMARK    3  A    between atoms: C_8  and  C_9
REMARK    4  A    between atoms: C_24  and  C_25
REMARK    5  A    between atoms: C_25  and  N_26
REMARK                            x       y       z     vdW  Elec       q    Type
REMARK                         _______ _______ _______ _____ _____    ______ ____
ROOT
ATOM      1  O   UNL     1       1.629   7.317  20.286  0.00  0.00    +0.000 OA
ATOM      2  C   UNL     1       2.122   7.860  19.305  0.00  0.00    +0.000 C 
ATOM      3  N   UNL     1       1.744   9.072  18.748  0.00  0.00    +0.000 N 
ATOM      4  H   UNL     1       2.120   9.303  17.840  0.00  0.00    +0.000 HD
ENDROOT
BRANCH   3   5
ATOM      5  C   UNL     1       0.724   9.907  19.234  0.00  0.00    +0.000 A 
ATOM      6  C   UNL     1       0.723  10.455  20.518  0.00  0.00    +0.000 A 
ATOM      7  C   UNL     1      -0.362  11.197  20.980  0.00  0.00    +0.000 A 
ATOM      8  C   UNL     1      -1.462  11.405  20.152  0.00  0.00    +0.000 A 
ATOM      9  C   UNL     1      -1.473  10.906  18.841  0.00  0.00    +0.000 A 
ATOM     10  C   UNL     1      -0.358  10.187  18.384  0.00  0.00    +0.000 A 
BRANCH   9  11
ATOM     11  C   UNL     1      -2.642  11.178  17.998  0.00  0.00    +0.000 A 
ATOM     12  N   UNL     1      -2.657  11.057  16.683  0.00  0.00    +0.000 NA
ATOM     13  N   UNL     1      -3.909  11.355  16.225  0.00  0.00    +0.000 NA
ATOM     14  C   UNL     1      -4.657  11.685  17.257  0.00  0.00    +0.000 A 
ATOM     15  N   UNL     1      -3.884  11.633  18.395  0.00  0.00    +0.000 N 
ATOM     16  C   UNL     1      -4.278  12.027  19.733  0.00  0.00    +0.000 C 
ATOM     17  C   UNL     1      -5.194  13.242  19.788  0.00  0.00    +0.000 C 
ATOM     18  C   UNL     1      -6.658  12.920  19.502  0.00  0.00    +0.000 C 
ATOM     19  C   UNL     1      -6.901  11.857  18.430  0.00  0.00    +0.000 C 
ATOM     20  C   UNL     1      -6.090  12.083  17.162  0.00  0.00    +0.000 C 
ENDBRANCH   9  11
ENDBRANCH   3   5
BRANCH   2  21
ATOM     21  C   UNL     1       3.197   7.133  18.585  0.00  0.00    +0.000 A 
ATOM     22  C   UNL     1       3.495   7.501  17.269  0.00  0.00    +0.000 A 
ATOM     23  C   UNL     1       4.479   6.822  16.554  0.00  0.00    +0.000 A 
ATOM     24  C   UNL     1       5.173   5.777  17.155  0.00  0.00    +0.000 A 
ATOM     25  C   UNL     1       4.871   5.391  18.467  0.00  0.00    +0.000 A 
ATOM     26  C   UNL     1       3.871   6.063  19.176  0.00  0.00    +0.000 A 
BRANCH  25  27
ATOM     27  C   UNL     1       5.546   4.192  19.057  0.00  0.00    +0.000 C 
BRANCH  27  28
ATOM     28  N   UNL     1       4.851   2.923  18.924  0.00  0.00    +0.000 N 
ATOM     29  C   UNL     1       3.714   3.079  18.159  0.00  0.00    +0.000 C 
ATOM     30  O   UNL     1       3.622   3.370  16.983  0.00  0.00    +0.000 OA
ATOM     31  C   UNL     1       2.589   3.023  19.080  0.00  0.00    +0.000 A 
ATOM     32  C   UNL     1       1.394   3.706  18.994  0.00  0.00    +0.000 A 
ATOM     33  C   UNL     1       0.653   3.830  20.170  0.00  0.00    +0.000 A 
ATOM     34  C   UNL     1       1.101   3.246  21.375  0.00  0.00    +0.000 A 
ATOM     35  C   UNL     1       2.321   2.565  21.436  0.00  0.00    +0.000 A 
ATOM     36  C   UNL     1       3.057   2.503  20.270  0.00  0.00    +0.000 A 
ATOM     37  C   UNL     1       4.498   2.307  20.111  0.00  0.00    +0.000 C 
ATOM     38  O   UNL     1       5.208   1.789  20.953  0.00  0.00    +0.000 OA
ENDBRANCH  27  28
ENDBRANCH  25  27
ENDBRANCH   2  21
TORSDOF 5
ENDMDL
MODEL 8
REMARK VINA RESULT:      -9.3      2.706     11.574
REMARK  Name = 
REMARK  5 active torsions:
REMARK  status: ('A' for Active; 'I' for Inactive)
REMARK    1  A    between atoms: C_2  and  C_20
REMARK    2  A    between atoms: N_3  and  C_4
REMARK    3  A    between atoms: C_8  and  C_9
REMARK    4  A    between atoms: C_24  and  C_25
REMARK    5  A    between atoms: C_25  and  N_26
REMARK                            x       y       z     vdW  Elec       q    Type
REMARK                         _______ _______ _______ _____ _____    ______ ____
ROOT
ATOM      1  O   UNL     1       1.705   8.507  19.315  0.00  0.00    +0.000 OA
ATOM      2  C   UNL     1       1.297   8.287  20.449  0.00  0.00    +0.000 C 
ATOM      3  N   UNL     1       1.327   7.075  21.122  0.00  0.00    +0.000 N 
ATOM      4  H   UNL     1       0.794   7.007  21.977  0.00  0.00    +0.000 HD
ENDROOT
BRANCH   3   5
ATOM      5  C   UNL     1       1.855   5.876  20.615  0.00  0.00    +0.000 A 
ATOM      6  C   UNL     1       1.198   4.648  20.697  0.00  0.00    +0.000 A 
ATOM      7  C   UNL     1       1.812   3.475  20.265  0.00  0.00    +0.000 A 
ATOM      8  C   UNL     1       3.101   3.522  19.736  0.00  0.00    +0.000 A 
ATOM      9  C   UNL     1       3.771   4.746  19.599  0.00  0.00    +0.000 A 
ATOM     10  C   UNL     1       3.123   5.920  20.012  0.00  0.00    +0.000 A 
BRANCH   9  11
ATOM     11  C   UNL     1       5.113   4.747  19.007  0.00  0.00    +0.000 A 
ATOM     12  N   UNL     1       6.235   4.710  19.703  0.00  0.00    +0.000 NA
ATOM     13  N   UNL     1       7.292   4.688  18.838  0.00  0.00    +0.000 NA
ATOM     14  C   UNL     1       6.821   4.737  17.610  0.00  0.00    +0.000 A 
ATOM     15  N   UNL     1       5.448   4.822  17.669  0.00  0.00    +0.000 N 
ATOM     16  C   UNL     1       4.539   5.009  16.556  0.00  0.00    +0.000 C 
ATOM     17  C   UNL     1       5.065   5.926  15.459  0.00  0.00    +0.000 C 
ATOM     18  C   UNL     1       6.031   5.239  14.497  0.00  0.00    +0.000 C 
ATOM     19  C   UNL     1       6.979   4.222  15.130  0.00  0.00    +0.000 C 
ATOM     20  C   UNL     1       7.669   4.739  16.385  0.00  0.00    +0.000 C 
ENDBRANCH   9  11
ENDBRANCH   3   5
BRANCH   2  21
ATOM     21  C   UNL     1       0.644   9.406  21.173  0.00  0.00    +0.000 A 
ATOM     22  C   UNL     1      -0.130   9.116  22.301  0.00  0.00    +0.000 A 
ATOM     23  C   UNL     1      -0.780  10.139  22.988  0.00  0.00    +0.000 A 
ATOM     24  C   UNL     1      -0.652  11.455  22.554  0.00  0.00    +0.000 A 
ATOM     25  C   UNL     1       0.108  11.751  21.417  0.00  0.00    +0.000 A 
ATOM     26  C   UNL     1       0.745  10.721  20.718  0.00  0.00    +0.000 A 
BRANCH  25  27
ATOM     27  C   UNL     1       0.141  13.155  20.896  0.00  0.00    +0.000 C 
BRANCH  27  28
ATOM     28  N   UNL     1      -0.978  13.567  20.065  0.00  0.00    +0.000 N 
ATOM     29  C   UNL     1      -1.490  14.766  20.514  0.00  0.00    +0.000 C 
ATOM     30  O   UNL     1      -0.963  15.861  20.527  0.00  0.00    +0.000 OA
ATOM     31  C   UNL     1      -2.749  14.453  21.174  0.00  0.00    +0.000 A 
ATOM     32  C   UNL     1      -3.307  15.082  22.267  0.00  0.00    +0.000 A 
ATOM     33  C   UNL     1      -4.276  14.371  22.976  0.00  0.00    +0.000 A 
ATOM     34  C   UNL     1      -4.681  13.084  22.560  0.00  0.00    +0.000 A 
ATOM     35  C   UNL     1      -4.092  12.466  21.452  0.00  0.00    +0.000 A 
ATOM     36  C   UNL     1      -3.101  13.171  20.801  0.00  0.00    +0.000 A 
ATOM     37  C   UNL     1      -2.016  12.658  19.966  0.00  0.00    +0.000 C 
ATOM     38  O   UNL     1      -2.044  11.577  19.406  0.00  0.00    +0.000 OA
ENDBRANCH  27  28
ENDBRANCH  25  27
ENDBRANCH   2  21
TORSDOF 5
ENDMDL
MODEL 9
REMARK VINA RESULT:      -9.3      0.938      1.693
REMARK  Name = 
REMARK  5 active torsions:
REMARK  status: ('A' for Active; 'I' for Inactive)
REMARK    1  A    between atoms: C_2  and  C_20
REMARK    2  A    between atoms: N_3  and  C_4
REMARK    3  A    between atoms: C_8  and  C_9
REMARK    4  A    between atoms: C_24  and  C_25
REMARK    5  A    between atoms: C_25  and  N_26
REMARK                            x       y       z     vdW  Elec       q    Type
REMARK                         _______ _______ _______ _____ _____    ______ ____
ROOT
ATOM      1  O   UNL     1       0.857   9.654  17.456  0.00  0.00    +0.000 OA
ATOM      2  C   UNL     1       1.224   9.238  18.548  0.00  0.00    +0.000 C 
ATOM      3  N   UNL     1       0.912   9.773  19.789  0.00  0.00    +0.000 N 
ATOM      4  H   UNL     1       1.431   9.431  20.585  0.00  0.00    +0.000 HD
ENDROOT
BRANCH   3   5
ATOM      5  C   UNL     1       0.092  10.892  20.009  0.00  0.00    +0.000 A 
ATOM      6  C   UNL     1       0.456  11.968  20.821  0.00  0.00    +0.000 A 
ATOM      7  C   UNL     1      -0.437  13.005  21.081  0.00  0.00    +0.000 A 
ATOM      8  C   UNL     1      -1.712  12.977  20.520  0.00  0.00    +0.000 A 
ATOM      9  C   UNL     1      -2.093  11.934  19.665  0.00  0.00    +0.000 A 
ATOM     10  C   UNL     1      -1.170  10.914  19.391  0.00  0.00    +0.000 A 
BRANCH   9  11
ATOM     11  C   UNL     1      -3.436  11.967  19.075  0.00  0.00    +0.000 A 
ATOM     12  N   UNL     1      -3.691  11.797  17.791  0.00  0.00    +0.000 NA
ATOM     13  N   UNL     1      -5.042  11.855  17.596  0.00  0.00    +0.000 NA
ATOM     14  C   UNL     1      -5.616  12.085  18.757  0.00  0.00    +0.000 A 
ATOM     15  N   UNL     1      -4.636  12.210  19.715  0.00  0.00    +0.000 N 
ATOM     16  C   UNL     1      -4.819  12.578  21.105  0.00  0.00    +0.000 C 
ATOM     17  C   UNL     1      -5.908  13.614  21.346  0.00  0.00    +0.000 C 
ATOM     18  C   UNL     1      -7.319  13.030  21.361  0.00  0.00    +0.000 C 
ATOM     19  C   UNL     1      -7.576  11.904  20.360  0.00  0.00    +0.000 C 
ATOM     20  C   UNL     1      -7.087  12.223  18.954  0.00  0.00    +0.000 C 
ENDBRANCH   9  11
ENDBRANCH   3   5
BRANCH   2  21
ATOM     21  C   UNL     1       2.151   8.079  18.566  0.00  0.00    +0.000 A 
ATOM     22  C   UNL     1       2.175   7.254  19.695  0.00  0.00    +0.000 A 
ATOM     23  C   UNL     1       3.053   6.174  19.757  0.00  0.00    +0.000 A 
ATOM     24  C   UNL     1       3.902   5.910  18.687  0.00  0.00    +0.000 A 
ATOM     25  C   UNL     1       3.895   6.740  17.560  0.00  0.00    +0.000 A 
ATOM     26  C   UNL     1       3.027   7.834  17.508  0.00  0.00    +0.000 A 
BRANCH  25  27
ATOM     27  C   UNL     1       4.895   6.511  16.469  0.00  0.00    +0.000 C 
BRANCH  27  28
ATOM     28  N   UNL     1       5.717   5.318  16.579  0.00  0.00    +0.000 N 
ATOM     29  C   UNL     1       6.981   5.561  16.084  0.00  0.00    +0.000 C 
ATOM     30  O   UNL     1       7.834   6.313  16.514  0.00  0.00    +0.000 OA
ATOM     31  C   UNL     1       7.056   4.884  14.799  0.00  0.00    +0.000 A 
ATOM     32  C   UNL     1       7.752   5.281  13.676  0.00  0.00    +0.000 A 
ATOM     33  C   UNL     1       7.353   4.727  12.459  0.00  0.00    +0.000 A 
ATOM     34  C   UNL     1       6.309   3.777  12.402  0.00  0.00    +0.000 A 
ATOM     35  C   UNL     1       5.615   3.399  13.555  0.00  0.00    +0.000 A 
ATOM     36  C   UNL     1       5.997   4.001  14.736  0.00  0.00    +0.000 A 
ATOM     37  C   UNL     1       5.215   4.188  15.959  0.00  0.00    +0.000 C 
ATOM     38  O   UNL     1       4.251   3.507  16.256  0.00  0.00    +0.000 OA
ENDBRANCH  27  28
ENDBRANCH  25  27
ENDBRANCH   2  21
TORSDOF 5
ENDMDL
