MODEL 1
REMARK VINA RESULT:      -8.7      0.000      0.000
REMARK  Name = 
REMARK  6 active torsions:
REMARK  status: ('A' for Active; 'I' for Inactive)
REMARK    1  A    between atoms: C_1  and  C_2
REMARK    2  A    between atoms: C_2  and  C_3
REMARK    3  A    between atoms: C_4  and  N_5
REMARK    4  A    between atoms: C_6  and  C_8
REMARK    5  A    between atoms: C_10  and  C_11
REMARK    6  A    between atoms: N_17  and  C_18
REMARK                            x       y       z     vdW  Elec       q    Type
REMARK                         _______ _______ _______ _____ _____    ______ ____
ROOT
ATOM      1  C   UNL     1       2.375   8.210  17.864  0.00  0.00    +0.000 A 
ATOM      2  C   UNL     1       3.743   7.963  17.649  0.00  0.00    +0.000 A 
ATOM      3  C   UNL     1       3.921   6.599  17.790  0.00  0.00    +0.000 A 
ATOM      4  N   UNL     1       2.668   6.112  18.197  0.00  0.00    +0.000 N 
ATOM      5  N   UNL     1       1.704   7.072  18.097  0.00  0.00    +0.000 NA
ENDROOT
BRANCH   3   6
ATOM      6  C   UNL     1       5.151   5.836  17.536  0.00  0.00    +0.000 A 
ATOM      7  C   UNL     1       5.506   5.482  16.230  0.00  0.00    +0.000 A 
ATOM      8  C   UNL     1       6.684   4.775  15.994  0.00  0.00    +0.000 A 
ATOM      9  C   UNL     1       7.475   4.433  17.078  0.00  0.00    +0.000 A 
ATOM     10  N   UNL     1       7.157   4.727  18.355  0.00  0.00    +0.000 NA
ATOM     11  C   UNL     1       5.999   5.400  18.550  0.00  0.00    +0.000 A 
ENDBRANCH   3   6
BRANCH   4  12
ATOM     12  C   UNL     1       2.322   4.838  18.723  0.00  0.00    +0.000 A 
ATOM     13  C   UNL     1       1.950   3.777  17.886  0.00  0.00    +0.000 A 
ATOM     14  C   UNL     1       1.579   2.548  18.435  0.00  0.00    +0.000 A 
ATOM     15  C   UNL     1       1.600   2.364  19.815  0.00  0.00    +0.000 A 
ATOM     16  C   UNL     1       2.004   3.405  20.653  0.00  0.00    +0.000 A 
ATOM     17  C   UNL     1       2.377   4.637  20.110  0.00  0.00    +0.000 A 
ENDBRANCH   4  12
BRANCH   1  19
ATOM     18  N   UNL     1       0.396   9.525  18.191  0.00  0.00    +0.000 N 
ATOM     19  C   UNL     1       1.743   9.529  17.871  0.00  0.00    +0.000 C 
ATOM     20  O   UNL     1       2.383  10.561  17.682  0.00  0.00    +0.000 OA
ATOM     21  H   UNL     1       0.033   8.614  18.460  0.00  0.00    +0.000 HD
BRANCH  18  25
ATOM     22  C   UNL     1       1.174  11.853  20.509  0.00  0.00    +0.000 C 
ATOM     23  C   UNL     1      -0.146  11.135  20.221  0.00  0.00    +0.000 C 
ATOM     24  C   UNL     1      -0.435  10.117  21.329  0.00  0.00    +0.000 C 
ATOM     25  C   UNL     1      -0.205  10.776  18.642  0.00  0.00    +0.000 C 
ATOM     26  C   UNL     1      -1.741  10.764  18.864  0.00  0.00    +0.000 C 
ATOM     27  C   UNL     1      -3.093  11.264  18.363  0.00  0.00    +0.000 C 
ATOM     28  C   UNL     1      -3.490  12.446  19.272  0.00  0.00    +0.000 C 
ATOM     29  O   UNL     1      -2.596  12.343  20.410  0.00  0.00    +0.000 OA
ATOM     30  C   UNL     1      -1.362  11.996  19.785  0.00  0.00    +0.000 C 
ENDBRANCH  18  25
ENDBRANCH   1  19
TORSDOF 4
ENDMDL
MODEL 2
REMARK VINA RESULT:      -8.6      1.599      2.106
REMARK  Name = 
REMARK  6 active torsions:
REMARK  status: ('A' for Active; 'I' for Inactive)
REMARK    1  A    between atoms: C_1  and  C_2
REMARK    2  A    between atoms: C_2  and  C_3
REMARK    3  A    between atoms: C_4  and  N_5
REMARK    4  A    between atoms: C_6  and  C_8
REMARK    5  A    between atoms: C_10  and  C_11
REMARK    6  A    between atoms: N_17  and  C_18
REMARK                            x       y       z     vdW  Elec       q    Type
REMARK                         _______ _______ _______ _____ _____    ______ ____
ROOT
ATOM      1  C   UNL     1       2.766   7.523  17.834  0.00  0.00    +0.000 A 
ATOM      2  C   UNL     1       3.903   7.496  17.006  0.00  0.00    +0.000 A 
ATOM      3  C   UNL     1       4.261   6.166  16.878  0.00  0.00    +0.000 A 
ATOM      4  N   UNL     1       3.387   5.473  17.731  0.00  0.00    +0.000 N 
ATOM      5  N   UNL     1       2.393   6.285  18.192  0.00  0.00    +0.000 NA
ENDROOT
BRANCH   3   6
ATOM      6  C   UNL     1       5.310   5.612  16.010  0.00  0.00    +0.000 A 
ATOM      7  C   UNL     1       4.980   4.722  14.983  0.00  0.00    +0.000 A 
ATOM      8  C   UNL     1       5.978   4.214  14.151  0.00  0.00    +0.000 A 
ATOM      9  C   UNL     1       7.286   4.608  14.376  0.00  0.00    +0.000 A 
ATOM     10  N   UNL     1       7.653   5.440  15.372  0.00  0.00    +0.000 NA
ATOM     11  C   UNL     1       6.662   5.901  16.171  0.00  0.00    +0.000 A 
ENDBRANCH   3   6
BRANCH   4  12
ATOM     12  C   UNL     1       3.448   4.129  18.188  0.00  0.00    +0.000 A 
ATOM     13  C   UNL     1       4.230   3.766  19.293  0.00  0.00    +0.000 A 
ATOM     14  C   UNL     1       4.299   2.432  19.695  0.00  0.00    +0.000 A 
ATOM     15  C   UNL     1       3.572   1.457  19.016  0.00  0.00    +0.000 A 
ATOM     16  C   UNL     1       2.763   1.816  17.937  0.00  0.00    +0.000 A 
ATOM     17  C   UNL     1       2.689   3.151  17.529  0.00  0.00    +0.000 A 
ENDBRANCH   4  12
BRANCH   1  19
ATOM     18  N   UNL     1       1.317   8.569  19.434  0.00  0.00    +0.000 N 
ATOM     19  C   UNL     1       2.078   8.731  18.289  0.00  0.00    +0.000 C 
ATOM     20  O   UNL     1       2.232   9.818  17.736  0.00  0.00    +0.000 OA
ATOM     21  H   UNL     1       1.396   7.649  19.862  0.00  0.00    +0.000 HD
BRANCH  18  25
ATOM     22  C   UNL     1       1.527   9.493  22.675  0.00  0.00    +0.000 C 
ATOM     23  C   UNL     1       0.361   9.576  21.688  0.00  0.00    +0.000 C 
ATOM     24  C   UNL     1      -0.698   8.527  22.047  0.00  0.00    +0.000 C 
ATOM     25  C   UNL     1       0.960   9.762  20.194  0.00  0.00    +0.000 C 
ATOM     26  C   UNL     1      -0.427  10.387  19.887  0.00  0.00    +0.000 C 
ATOM     27  C   UNL     1      -1.170  11.571  19.273  0.00  0.00    +0.000 C 
ATOM     28  C   UNL     1      -1.594  12.480  20.446  0.00  0.00    +0.000 C 
ATOM     29  O   UNL     1      -1.423  11.653  21.625  0.00  0.00    +0.000 OA
ATOM     30  C   UNL     1      -0.198  10.981  21.337  0.00  0.00    +0.000 C 
ENDBRANCH  18  25
ENDBRANCH   1  19
TORSDOF 4
ENDMDL
MODEL 3
REMARK VINA RESULT:      -8.6      1.111      3.420
REMARK  Name = 
REMARK  6 active torsions:
REMARK  status: ('A' for Active; 'I' for Inactive)
REMARK    1  A    between atoms: C_1  and  C_2
REMARK    2  A    between atoms: C_2  and  C_3
REMARK    3  A    between atoms: C_4  and  N_5
REMARK    4  A    between atoms: C_6  and  C_8
REMARK    5  A    between atoms: C_10  and  C_11
REMARK    6  A    between atoms: N_17  and  C_18
REMARK                            x       y       z     vdW  Elec       q    Type
REMARK                         _______ _______ _______ _____ _____    ______ ____
ROOT
ATOM      1  C   UNL     1       2.523   8.039  17.893  0.00  0.00    +0.000 A 
ATOM      2  C   UNL     1       1.898   6.835  18.269  0.00  0.00    +0.000 A 
ATOM      3  C   UNL     1       2.837   5.835  18.090  0.00  0.00    +0.000 A 
ATOM      4  N   UNL     1       3.941   6.476  17.506  0.00  0.00    +0.000 N 
ATOM      5  N   UNL     1       3.797   7.834  17.526  0.00  0.00    +0.000 NA
ENDROOT
BRANCH   3   6
ATOM      6  C   UNL     1       2.704   4.420  18.464  0.00  0.00    +0.000 A 
ATOM      7  C   UNL     1       2.525   3.443  17.479  0.00  0.00    +0.000 A 
ATOM      8  C   UNL     1       2.417   2.100  17.839  0.00  0.00    +0.000 A 
ATOM      9  C   UNL     1       2.485   1.771  19.182  0.00  0.00    +0.000 A 
ATOM     10  N   UNL     1       2.626   2.682  20.166  0.00  0.00    +0.000 NA
ATOM     11  C   UNL     1       2.711   3.977  19.784  0.00  0.00    +0.000 A 
ENDBRANCH   3   6
BRANCH   4  12
ATOM     12  C   UNL     1       5.087   5.913  16.884  0.00  0.00    +0.000 A 
ATOM     13  C   UNL     1       5.164   5.760  15.493  0.00  0.00    +0.000 A 
ATOM     14  C   UNL     1       6.288   5.169  14.913  0.00  0.00    +0.000 A 
ATOM     15  C   UNL     1       7.349   4.750  15.712  0.00  0.00    +0.000 A 
ATOM     16  C   UNL     1       7.295   4.933  17.095  0.00  0.00    +0.000 A 
ATOM     17  C   UNL     1       6.174   5.524  17.682  0.00  0.00    +0.000 A 
ENDBRANCH   4  12
BRANCH   1  19
ATOM     18  N   UNL     1       0.537   9.350  18.194  0.00  0.00    +0.000 N 
ATOM     19  C   UNL     1       1.883   9.353  17.866  0.00  0.00    +0.000 C 
ATOM     20  O   UNL     1       2.515  10.383  17.644  0.00  0.00    +0.000 OA
ATOM     21  H   UNL     1       0.182   8.444  18.491  0.00  0.00    +0.000 HD
BRANCH  18  25
ATOM     22  C   UNL     1       1.255  11.696  20.513  0.00  0.00    +0.000 C 
ATOM     23  C   UNL     1      -0.060  10.984  20.189  0.00  0.00    +0.000 C 
ATOM     24  C   UNL     1      -0.392   9.979  21.296  0.00  0.00    +0.000 C 
ATOM     25  C   UNL     1      -0.069  10.609  18.612  0.00  0.00    +0.000 C 
ATOM     26  C   UNL     1      -1.611  10.610  18.783  0.00  0.00    +0.000 C 
ATOM     27  C   UNL     1      -2.942  11.115  18.232  0.00  0.00    +0.000 C 
ATOM     28  C   UNL     1      -3.360  12.309  19.116  0.00  0.00    +0.000 C 
ATOM     29  O   UNL     1      -2.506  12.210  20.285  0.00  0.00    +0.000 OA
ATOM     30  C   UNL     1      -1.255  11.849  19.704  0.00  0.00    +0.000 C 
ENDBRANCH  18  25
ENDBRANCH   1  19
TORSDOF 4
ENDMDL
MODEL 4
REMARK VINA RESULT:      -8.5      1.353      3.575
REMARK  Name = 
REMARK  6 active torsions:
REMARK  status: ('A' for Active; 'I' for Inactive)
REMARK    1  A    between atoms: C_1  and  C_2
REMARK    2  A    between atoms: C_2  and  C_3
REMARK    3  A    between atoms: C_4  and  N_5
REMARK    4  A    between atoms: C_6  and  C_8
REMARK    5  A    between atoms: C_10  and  C_11
REMARK    6  A    between atoms: N_17  and  C_18
REMARK                            x       y       z     vdW  Elec       q    Type
REMARK                         _______ _______ _______ _____ _____    ______ ____
ROOT
ATOM      1  C   UNL     1       2.525   7.970  18.192  0.00  0.00    +0.000 A 
ATOM      2  C   UNL     1       2.043   6.934  19.013  0.00  0.00    +0.000 A 
ATOM      3  C   UNL     1       3.008   5.943  18.999  0.00  0.00    +0.000 A 
ATOM      4  N   UNL     1       3.969   6.388  18.077  0.00  0.00    +0.000 N 
ATOM      5  N   UNL     1       3.740   7.681  17.704  0.00  0.00    +0.000 NA
ENDROOT
BRANCH   3   6
ATOM      6  C   UNL     1       3.025   4.714  19.803  0.00  0.00    +0.000 A 
ATOM      7  C   UNL     1       2.182   4.583  20.912  0.00  0.00    +0.000 A 
ATOM      8  C   UNL     1       2.189   3.406  21.660  0.00  0.00    +0.000 A 
ATOM      9  C   UNL     1       3.049   2.390  21.280  0.00  0.00    +0.000 A 
ATOM     10  N   UNL     1       3.900   2.483  20.238  0.00  0.00    +0.000 NA
ATOM     11  C   UNL     1       3.879   3.645  19.543  0.00  0.00    +0.000 A 
ENDBRANCH   3   6
BRANCH   4  12
ATOM     12  C   UNL     1       5.044   5.677  17.479  0.00  0.00    +0.000 A 
ATOM     13  C   UNL     1       6.333   5.701  18.029  0.00  0.00    +0.000 A 
ATOM     14  C   UNL     1       7.377   5.023  17.398  0.00  0.00    +0.000 A 
ATOM     15  C   UNL     1       7.139   4.300  16.232  0.00  0.00    +0.000 A 
ATOM     16  C   UNL     1       5.850   4.241  15.699  0.00  0.00    +0.000 A 
ATOM     17  C   UNL     1       4.800   4.917  16.325  0.00  0.00    +0.000 A 
ENDBRANCH   4  12
BRANCH   1  19
ATOM     18  N   UNL     1       0.437   9.146  18.089  0.00  0.00    +0.000 N 
ATOM     19  C   UNL     1       1.803   9.200  17.868  0.00  0.00    +0.000 C 
ATOM     20  O   UNL     1       2.382  10.220  17.502  0.00  0.00    +0.000 OA
ATOM     21  H   UNL     1       0.118   8.284  18.526  0.00  0.00    +0.000 HD
BRANCH  18  25
ATOM     22  C   UNL     1       0.881  11.995  19.846  0.00  0.00    +0.000 C 
ATOM     23  C   UNL     1      -0.357  11.115  19.671  0.00  0.00    +0.000 C 
ATOM     24  C   UNL     1      -0.636  10.348  20.969  0.00  0.00    +0.000 C 
ATOM     25  C   UNL     1      -0.287  10.407  18.215  0.00  0.00    +0.000 C 
ATOM     26  C   UNL     1      -1.828  10.306  18.365  0.00  0.00    +0.000 C 
ATOM     27  C   UNL     1      -3.180  10.557  17.703  0.00  0.00    +0.000 C 
ATOM     28  C   UNL     1      -3.725  11.872  18.298  0.00  0.00    +0.000 C 
ATOM     29  O   UNL     1      -2.901  12.107  19.470  0.00  0.00    +0.000 OA
ATOM     30  C   UNL     1      -1.607  11.742  18.995  0.00  0.00    +0.000 C 
ENDBRANCH  18  25
ENDBRANCH   1  19
TORSDOF 4
ENDMDL
MODEL 5
REMARK VINA RESULT:      -8.4      0.610      1.270
REMARK  Name = 
REMARK  6 active torsions:
REMARK  status: ('A' for Active; 'I' for Inactive)
REMARK    1  A    between atoms: C_1  and  C_2
REMARK    2  A    between atoms: C_2  and  C_3
REMARK    3  A    between atoms: C_4  and  N_5
REMARK    4  A    between atoms: C_6  and  C_8
REMARK    5  A    between atoms: C_10  and  C_11
REMARK    6  A    between atoms: N_17  and  C_18
REMARK                            x       y       z     vdW  Elec       q    Type
REMARK                         _______ _______ _______ _____ _____    ______ ____
ROOT
ATOM      1  C   UNL     1       2.423   8.238  17.777  0.00  0.00    +0.000 A 
ATOM      2  C   UNL     1       3.767   7.986  17.445  0.00  0.00    +0.000 A 
ATOM      3  C   UNL     1       3.960   6.626  17.603  0.00  0.00    +0.000 A 
ATOM      4  N   UNL     1       2.751   6.148  18.132  0.00  0.00    +0.000 N 
ATOM      5  N   UNL     1       1.779   7.106  18.097  0.00  0.00    +0.000 NA
ENDROOT
BRANCH   3   6
ATOM      6  C   UNL     1       5.164   5.858  17.257  0.00  0.00    +0.000 A 
ATOM      7  C   UNL     1       6.150   5.616  18.220  0.00  0.00    +0.000 A 
ATOM      8  C   UNL     1       7.281   4.871  17.891  0.00  0.00    +0.000 A 
ATOM      9  C   UNL     1       7.399   4.391  16.597  0.00  0.00    +0.000 A 
ATOM     10  N   UNL     1       6.490   4.624  15.629  0.00  0.00    +0.000 NA
ATOM     11  C   UNL     1       5.412   5.365  15.979  0.00  0.00    +0.000 A 
ENDBRANCH   3   6
BRANCH   4  12
ATOM     12  C   UNL     1       2.456   4.888  18.718  0.00  0.00    +0.000 A 
ATOM     13  C   UNL     1       2.898   4.558  20.006  0.00  0.00    +0.000 A 
ATOM     14  C   UNL     1       2.624   3.298  20.540  0.00  0.00    +0.000 A 
ATOM     15  C   UNL     1       1.891   2.370  19.804  0.00  0.00    +0.000 A 
ATOM     16  C   UNL     1       1.416   2.705  18.535  0.00  0.00    +0.000 A 
ATOM     17  C   UNL     1       1.686   3.965  17.995  0.00  0.00    +0.000 A 
ENDBRANCH   4  12
BRANCH   1  19
ATOM     18  N   UNL     1       0.426   9.541  18.040  0.00  0.00    +0.000 N 
ATOM     19  C   UNL     1       1.792   9.557  17.809  0.00  0.00    +0.000 C 
ATOM     20  O   UNL     1       2.442  10.595  17.715  0.00  0.00    +0.000 OA
ATOM     21  H   UNL     1       0.048   8.618  18.239  0.00  0.00    +0.000 HD
BRANCH  18  25
ATOM     22  C   UNL     1       1.151  11.845  20.399  0.00  0.00    +0.000 C 
ATOM     23  C   UNL     1      -0.152  11.101  20.098  0.00  0.00    +0.000 C 
ATOM     24  C   UNL     1      -0.415  10.056  21.188  0.00  0.00    +0.000 C 
ATOM     25  C   UNL     1      -0.203  10.769  18.514  0.00  0.00    +0.000 C 
ATOM     26  C   UNL     1      -1.738  10.716  18.736  0.00  0.00    +0.000 C 
ATOM     27  C   UNL     1      -3.102  11.193  18.244  0.00  0.00    +0.000 C 
ATOM     28  C   UNL     1      -3.526  12.349  19.174  0.00  0.00    +0.000 C 
ATOM     29  O   UNL     1      -2.630  12.246  20.310  0.00  0.00    +0.000 OA
ATOM     30  C   UNL     1      -1.388  11.940  19.678  0.00  0.00    +0.000 C 
ENDBRANCH  18  25
ENDBRANCH   1  19
TORSDOF 4
ENDMDL
MODEL 6
REMARK VINA RESULT:      -8.1      1.732      3.723
REMARK  Name = 
REMARK  6 active torsions:
REMARK  status: ('A' for Active; 'I' for Inactive)
REMARK    1  A    between atoms: C_1  and  C_2
REMARK    2  A    between atoms: C_2  and  C_3
REMARK    3  A    between atoms: C_4  and  N_5
REMARK    4  A    between atoms: C_6  and  C_8
REMARK    5  A    between atoms: C_10  and  C_11
REMARK    6  A    between atoms: N_17  and  C_18
REMARK                            x       y       z     vdW  Elec       q    Type
REMARK                         _______ _______ _______ _____ _____    ______ ____
ROOT
ATOM      1  C   UNL     1       2.985   7.235  17.995  0.00  0.00    +0.000 A 
ATOM      2  C   UNL     1       2.703   5.996  18.599  0.00  0.00    +0.000 A 
ATOM      3  C   UNL     1       3.643   5.103  18.115  0.00  0.00    +0.000 A 
ATOM      4  N   UNL     1       4.370   5.828  17.157  0.00  0.00    +0.000 N 
ATOM      5  N   UNL     1       4.060   7.156  17.197  0.00  0.00    +0.000 NA
ENDROOT
BRANCH   3   6
ATOM      6  C   UNL     1       3.843   3.712  18.544  0.00  0.00    +0.000 A 
ATOM      7  C   UNL     1       3.252   2.661  17.835  0.00  0.00    +0.000 A 
ATOM      8  C   UNL     1       3.461   1.343  18.236  0.00  0.00    +0.000 A 
ATOM      9  C   UNL     1       4.255   1.110  19.346  0.00  0.00    +0.000 A 
ATOM     10  N   UNL     1       4.819   2.093  20.077  0.00  0.00    +0.000 NA
ATOM     11  C   UNL     1       4.583   3.362  19.670  0.00  0.00    +0.000 A 
ENDBRANCH   3   6
BRANCH   4  12
ATOM     12  C   UNL     1       5.285   5.361  16.175  0.00  0.00    +0.000 A 
ATOM     13  C   UNL     1       6.662   5.591  16.290  0.00  0.00    +0.000 A 
ATOM     14  C   UNL     1       7.532   5.153  15.290  0.00  0.00    +0.000 A 
ATOM     15  C   UNL     1       7.037   4.464  14.185  0.00  0.00    +0.000 A 
ATOM     16  C   UNL     1       5.671   4.199  14.082  0.00  0.00    +0.000 A 
ATOM     17  C   UNL     1       4.795   4.635  15.080  0.00  0.00    +0.000 A 
ENDBRANCH   4  12
BRANCH   1  19
ATOM     18  N   UNL     1       1.356   8.455  19.264  0.00  0.00    +0.000 N 
ATOM     19  C   UNL     1       2.206   8.460  18.171  0.00  0.00    +0.000 C 
ATOM     20  O   UNL     1       2.357   9.440  17.445  0.00  0.00    +0.000 OA
ATOM     21  H   UNL     1       1.441   7.631  19.855  0.00  0.00    +0.000 HD
BRANCH  18  25
ATOM     22  C   UNL     1       1.377  10.006  22.264  0.00  0.00    +0.000 C 
ATOM     23  C   UNL     1       0.244   9.798  21.257  0.00  0.00    +0.000 C 
ATOM     24  C   UNL     1      -0.741   8.754  21.794  0.00  0.00    +0.000 C 
ATOM     25  C   UNL     1       0.881   9.740  19.768  0.00  0.00    +0.000 C 
ATOM     26  C   UNL     1      -0.539  10.176  19.316  0.00  0.00    +0.000 C 
ATOM     27  C   UNL     1      -1.350  11.151  18.468  0.00  0.00    +0.000 C 
ATOM     28  C   UNL     1      -1.885  12.232  19.430  0.00  0.00    +0.000 C 
ATOM     29  O   UNL     1      -1.692  11.667  20.752  0.00  0.00    +0.000 OA
ATOM     30  C   UNL     1      -0.409  11.057  20.626  0.00  0.00    +0.000 C 
ENDBRANCH  18  25
ENDBRANCH   1  19
TORSDOF 4
ENDMDL
MODEL 7
REMARK VINA RESULT:      -8.0      3.007      8.391
REMARK  Name = 
REMARK  6 active torsions:
REMARK  status: ('A' for Active; 'I' for Inactive)
REMARK    1  A    between atoms: C_1  and  C_2
REMARK    2  A    between atoms: C_2  and  C_3
REMARK    3  A    between atoms: C_4  and  N_5
REMARK    4  A    between atoms: C_6  and  C_8
REMARK    5  A    between atoms: C_10  and  C_11
REMARK    6  A    between atoms: N_17  and  C_18
REMARK                            x       y       z     vdW  Elec       q    Type
REMARK                         _______ _______ _______ _____ _____    ______ ____
ROOT
ATOM      1  C   UNL     1       2.234   8.278  18.587  0.00  0.00    +0.000 A 
ATOM      2  C   UNL     1       2.073   9.510  17.928  0.00  0.00    +0.000 A 
ATOM      3  C   UNL     1       1.490  10.369  18.842  0.00  0.00    +0.000 A 
ATOM      4  N   UNL     1       1.227   9.573  19.969  0.00  0.00    +0.000 N 
ATOM      5  N   UNL     1       1.813   8.346  19.859  0.00  0.00    +0.000 NA
ENDROOT
BRANCH   3   6
ATOM      6  C   UNL     1       1.237  11.806  18.669  0.00  0.00    +0.000 A 
ATOM      7  C   UNL     1      -0.051  12.267  18.374  0.00  0.00    +0.000 A 
ATOM      8  C   UNL     1      -0.288  13.633  18.229  0.00  0.00    +0.000 A 
ATOM      9  C   UNL     1       0.777  14.505  18.376  0.00  0.00    +0.000 A 
ATOM     10  N   UNL     1       2.039  14.104  18.629  0.00  0.00    +0.000 NA
ATOM     11  C   UNL     1       2.238  12.770  18.748  0.00  0.00    +0.000 A 
ENDBRANCH   3   6
BRANCH   4  12
ATOM     12  C   UNL     1       0.424   9.855  21.106  0.00  0.00    +0.000 A 
ATOM     13  C   UNL     1      -0.564  10.849  21.077  0.00  0.00    +0.000 A 
ATOM     14  C   UNL     1      -1.311  11.129  22.222  0.00  0.00    +0.000 A 
ATOM     15  C   UNL     1      -1.096  10.406  23.392  0.00  0.00    +0.000 A 
ATOM     16  C   UNL     1      -0.139   9.389  23.418  0.00  0.00    +0.000 A 
ATOM     17  C   UNL     1       0.612   9.104  22.276  0.00  0.00    +0.000 A 
ENDBRANCH   4  12
BRANCH   1  19
ATOM     18  N   UNL     1       4.025   7.179  17.430  0.00  0.00    +0.000 N 
ATOM     19  C   UNL     1       2.761   7.055  17.981  0.00  0.00    +0.000 C 
ATOM     20  O   UNL     1       2.154   5.988  18.031  0.00  0.00    +0.000 OA
ATOM     21  H   UNL     1       4.462   8.084  17.587  0.00  0.00    +0.000 HD
BRANCH  18  25
ATOM     22  C   UNL     1       6.303   5.424  19.199  0.00  0.00    +0.000 C 
ATOM     23  C   UNL     1       6.321   5.900  17.745  0.00  0.00    +0.000 C 
ATOM     24  C   UNL     1       7.318   7.053  17.589  0.00  0.00    +0.000 C 
ATOM     25  C   UNL     1       4.795   5.961  17.203  0.00  0.00    +0.000 C 
ATOM     26  C   UNL     1       5.454   5.811  15.805  0.00  0.00    +0.000 C 
ATOM     27  C   UNL     1       5.442   5.057  14.478  0.00  0.00    +0.000 C 
ATOM     28  C   UNL     1       6.577   4.014  14.555  0.00  0.00    +0.000 C 
ATOM     29  O   UNL     1       7.380   4.435  15.688  0.00  0.00    +0.000 OA
ATOM     30  C   UNL     1       6.379   4.824  16.628  0.00  0.00    +0.000 C 
ENDBRANCH  18  25
ENDBRANCH   1  19
TORSDOF 4
ENDMDL
MODEL 8
REMARK VINA RESULT:      -7.9      3.013      8.806
REMARK  Name = 
REMARK  6 active torsions:
REMARK  status: ('A' for Active; 'I' for Inactive)
REMARK    1  A    between atoms: C_1  and  C_2
REMARK    2  A    between atoms: C_2  and  C_3
REMARK    3  A    between atoms: C_4  and  N_5
REMARK    4  A    between atoms: C_6  and  C_8
REMARK    5  A    between atoms: C_10  and  C_11
REMARK    6  A    between atoms: N_17  and  C_18
REMARK                            x       y       z     vdW  Elec       q    Type
REMARK                         _______ _______ _______ _____ _____    ______ ____
ROOT
ATOM      1  C   UNL     1       2.140   7.960  18.528  0.00  0.00    +0.000 A 
ATOM      2  C   UNL     1       1.679   7.984  19.856  0.00  0.00    +0.000 A 
ATOM      3  C   UNL     1       1.158   9.249  20.066  0.00  0.00    +0.000 A 
ATOM      4  N   UNL     1       1.438   9.955  18.885  0.00  0.00    +0.000 N 
ATOM      5  N   UNL     1       1.903   9.125  17.906  0.00  0.00    +0.000 NA
ENDROOT
BRANCH   3   6
ATOM      6  C   UNL     1       0.442   9.724  21.258  0.00  0.00    +0.000 A 
ATOM      7  C   UNL     1      -0.609  10.639  21.134  0.00  0.00    +0.000 A 
ATOM      8  C   UNL     1      -1.296  11.072  22.267  0.00  0.00    +0.000 A 
ATOM      9  C   UNL     1      -0.907  10.579  23.501  0.00  0.00    +0.000 A 
ATOM     10  N   UNL     1       0.118   9.719  23.671  0.00  0.00    +0.000 NA
ATOM     11  C   UNL     1       0.774   9.332  22.552  0.00  0.00    +0.000 A 
ENDBRANCH   3   6
BRANCH   4  12
ATOM     12  C   UNL     1       1.359  11.350  18.627  0.00  0.00    +0.000 A 
ATOM     13  C   UNL     1       2.508  12.117  18.394  0.00  0.00    +0.000 A 
ATOM     14  C   UNL     1       2.401  13.492  18.179  0.00  0.00    +0.000 A 
ATOM     15  C   UNL     1       1.150  14.104  18.173  0.00  0.00    +0.000 A 
ATOM     16  C   UNL     1      -0.002  13.340  18.369  0.00  0.00    +0.000 A 
ATOM     17  C   UNL     1       0.098  11.963  18.583  0.00  0.00    +0.000 A 
ENDBRANCH   4  12
BRANCH   1  19
ATOM     18  N   UNL     1       4.128   7.093  17.503  0.00  0.00    +0.000 N 
ATOM     19  C   UNL     1       2.824   6.836  17.889  0.00  0.00    +0.000 C 
ATOM     20  O   UNL     1       2.299   5.730  17.778  0.00  0.00    +0.000 OA
ATOM     21  H   UNL     1       4.474   8.007  17.785  0.00  0.00    +0.000 HD
BRANCH  18  25
ATOM     22  C   UNL     1       6.685   5.662  19.180  0.00  0.00    +0.000 C 
ATOM     23  C   UNL     1       6.564   6.078  17.713  0.00  0.00    +0.000 C 
ATOM     24  C   UNL     1       7.419   7.322  17.454  0.00  0.00    +0.000 C 
ATOM     25  C   UNL     1       5.011   5.955  17.268  0.00  0.00    +0.000 C 
ATOM     26  C   UNL     1       5.596   5.819  15.837  0.00  0.00    +0.000 C 
ATOM     27  C   UNL     1       5.586   5.014  14.540  0.00  0.00    +0.000 C 
ATOM     28  C   UNL     1       6.829   4.101  14.579  0.00  0.00    +0.000 C 
ATOM     29  O   UNL     1       7.648   4.650  15.643  0.00  0.00    +0.000 OA
ATOM     30  C   UNL     1       6.670   4.969  16.631  0.00  0.00    +0.000 C 
ENDBRANCH  18  25
ENDBRANCH   1  19
TORSDOF 4
ENDMDL
MODEL 9
REMARK VINA RESULT:      -7.6      2.351      8.723
REMARK  Name = 
REMARK  6 active torsions:
REMARK  status: ('A' for Active; 'I' for Inactive)
REMARK    1  A    between atoms: C_1  and  C_2
REMARK    2  A    between atoms: C_2  and  C_3
REMARK    3  A    between atoms: C_4  and  N_5
REMARK    4  A    between atoms: C_6  and  C_8
REMARK    5  A    between atoms: C_10  and  C_11
REMARK    6  A    between atoms: N_17  and  C_18
REMARK                            x       y       z     vdW  Elec       q    Type
REMARK                         _______ _______ _______ _____ _____    ______ ____
ROOT
ATOM      1  C   UNL     1       1.182   9.546  18.162  0.00  0.00    +0.000 A 
ATOM      2  C   UNL     1       1.425  10.806  18.739  0.00  0.00    +0.000 A 
ATOM      3  C   UNL     1       0.204  11.455  18.787  0.00  0.00    +0.000 A 
ATOM      4  N   UNL     1      -0.689  10.593  18.131  0.00  0.00    +0.000 N 
ATOM      5  N   UNL     1      -0.120   9.377  17.886  0.00  0.00    +0.000 NA
ENDROOT
BRANCH   3   6
ATOM      6  C   UNL     1      -0.084  12.749  19.419  0.00  0.00    +0.000 A 
ATOM      7  C   UNL     1      -0.112  13.920  18.653  0.00  0.00    +0.000 A 
ATOM      8  C   UNL     1      -0.404  15.143  19.256  0.00  0.00    +0.000 A 
ATOM      9  C   UNL     1      -0.656  15.162  20.617  0.00  0.00    +0.000 A 
ATOM     10  N   UNL     1      -0.611  14.065  21.399  0.00  0.00    +0.000 NA
ATOM     11  C   UNL     1      -0.308  12.897  20.785  0.00  0.00    +0.000 A 
ENDBRANCH   3   6
BRANCH   4  12
ATOM     12  C   UNL     1      -2.009  10.843  17.668  0.00  0.00    +0.000 A 
ATOM     13  C   UNL     1      -2.972  11.442  18.491  0.00  0.00    +0.000 A 
ATOM     14  C   UNL     1      -4.271  11.640  18.020  0.00  0.00    +0.000 A 
ATOM     15  C   UNL     1      -4.610  11.265  16.722  0.00  0.00    +0.000 A 
ATOM     16  C   UNL     1      -3.646  10.701  15.885  0.00  0.00    +0.000 A 
ATOM     17  C   UNL     1      -2.344  10.500  16.350  0.00  0.00    +0.000 A 
ENDBRANCH   4  12
BRANCH   1  19
ATOM     18  N   UNL     1       2.133   7.395  18.635  0.00  0.00    +0.000 N 
ATOM     19  C   UNL     1       2.202   8.541  17.862  0.00  0.00    +0.000 C 
ATOM     20  O   UNL     1       3.004   8.680  16.941  0.00  0.00    +0.000 OA
ATOM     21  H   UNL     1       1.331   7.361  19.260  0.00  0.00    +0.000 HD
BRANCH  18  25
ATOM     22  C   UNL     1       1.311   4.127  18.410  0.00  0.00    +0.000 C 
ATOM     23  C   UNL     1       2.576   4.803  18.942  0.00  0.00    +0.000 C 
ATOM     24  C   UNL     1       2.617   4.696  20.471  0.00  0.00    +0.000 C 
ATOM     25  C   UNL     1       2.796   6.193  18.140  0.00  0.00    +0.000 C 
ATOM     26  C   UNL     1       4.283   6.009  18.546  0.00  0.00    +0.000 C 
ATOM     27  C   UNL     1       5.731   5.999  18.065  0.00  0.00    +0.000 C 
ATOM     28  C   UNL     1       6.129   4.518  17.896  0.00  0.00    +0.000 C 
ATOM     29  O   UNL     1       5.094   3.783  18.598  0.00  0.00    +0.000 OA
ATOM     30  C   UNL     1       3.919   4.501  18.225  0.00  0.00    +0.000 C 
ENDBRANCH  18  25
ENDBRANCH   1  19
TORSDOF 4
ENDMDL
