MODEL 1
REMARK VINA RESULT:      -8.8      0.000      0.000
REMARK  Name = 
REMARK  9 active torsions:
REMARK  status: ('A' for Active; 'I' for Inactive)
REMARK    1  A    between atoms: C_1  and  C_2
REMARK    2  A    between atoms: C_5  and  C_6
REMARK    3  A    between atoms: C_7  and  C_8
REMARK    4  A    between atoms: C_8  and  C_9
REMARK    5  A    between atoms: C_9  and  C_10
REMARK    6  A    between atoms: N_12  and  C_13
REMARK    7  A    between atoms: C_17  and  S_18
REMARK    8  A    between atoms: S_18  and  N_21
REMARK    9  A    between atoms: N_21  and  C_22
REMARK                            x       y       z     vdW  Elec       q    Type
REMARK                         _______ _______ _______ _____ _____    ______ ____
ROOT
ATOM      1  C   UNL     1       2.485   7.433  18.806  0.00  0.00    +0.000 A 
ATOM      2  C   UNL     1       2.217   8.241  17.694  0.00  0.00    +0.000 A 
ATOM      3  C   UNL     1       1.486   9.424  17.813  0.00  0.00    +0.000 A 
ATOM      4  C   UNL     1       0.997   9.818  19.053  0.00  0.00    +0.000 A 
ATOM      5  C   UNL     1       1.237   9.007  20.166  0.00  0.00    +0.000 A 
ATOM      6  C   UNL     1       1.950   7.800  20.046  0.00  0.00    +0.000 A 
ENDROOT
BRANCH   1   9
ATOM      7  C   UNL     1       2.838   5.029  18.269  0.00  0.00    +0.000 C 
ATOM      8  O   UNL     1       1.709   4.793  17.840  0.00  0.00    +0.000 OA
ATOM      9  N   UNL     1       3.283   6.263  18.722  0.00  0.00    +0.000 N 
ATOM     10  H   UNL     1       4.281   6.376  18.866  0.00  0.00    +0.000 HD
BRANCH   7  11
ATOM     11  C   UNL     1       3.893   3.937  18.311  0.00  0.00    +0.000 C 
BRANCH  11  12
ATOM     12  C   UNL     1       4.416   3.677  16.893  0.00  0.00    +0.000 C 
BRANCH  12  19
ATOM     13  C   UNL     1       5.821   4.101  13.985  0.00  0.00    +0.000 C 
ATOM     14  C   UNL     1       6.302   4.558  15.310  0.00  0.00    +0.000 A 
ATOM     15  N   UNL     1       7.437   5.258  15.407  0.00  0.00    +0.000 NA
ATOM     16  O   UNL     1       7.587   5.549  16.748  0.00  0.00    +0.000 OA
ATOM     17  C   UNL     1       6.549   5.021  17.448  0.00  0.00    +0.000 A 
ATOM     18  C   UNL     1       6.556   5.270  18.902  0.00  0.00    +0.000 C 
ATOM     19  C   UNL     1       5.697   4.365  16.584  0.00  0.00    +0.000 A 
ENDBRANCH  12  19
ENDBRANCH  11  12
ENDBRANCH   7  11
ENDBRANCH   1   9
BRANCH   5  20
ATOM     20  S   UNL     1       0.560   9.489  21.740  0.00  0.00    +0.000 S 
ATOM     21  O   UNL     1      -0.696   8.794  21.924  0.00  0.00    +0.000 OA
ATOM     22  O   UNL     1       1.630   9.368  22.709  0.00  0.00    +0.000 OA
BRANCH  20  23
ATOM     23  N   UNL     1       0.260  11.145  21.574  0.00  0.00    +0.000 N 
ATOM     24  H   UNL     1       0.681  11.498  20.715  0.00  0.00    +0.000 HD
BRANCH  23  25
ATOM     25  C   UNL     1      -1.056  11.635  21.839  0.00  0.00    +0.000 A 
ATOM     26  C   UNL     1      -1.571  11.610  23.136  0.00  0.00    +0.000 A 
ATOM     27  C   UNL     1      -2.844  12.134  23.384  0.00  0.00    +0.000 A 
ATOM     28  C   UNL     1      -3.613  12.649  22.338  0.00  0.00    +0.000 A 
ATOM     29  C   UNL     1      -3.114  12.640  21.035  0.00  0.00    +0.000 A 
ATOM     30  C   UNL     1      -1.840  12.137  20.797  0.00  0.00    +0.000 A 
ATOM     31  F   UNL     1      -1.351  12.152  19.546  0.00  0.00    +0.000 F 
ENDBRANCH  23  25
ENDBRANCH  20  23
ENDBRANCH   5  20
TORSDOF 7
ENDMDL
MODEL 2
REMARK VINA RESULT:      -8.7      4.636      7.012
REMARK  Name = 
REMARK  9 active torsions:
REMARK  status: ('A' for Active; 'I' for Inactive)
REMARK    1  A    between atoms: C_1  and  C_2
REMARK    2  A    between atoms: C_5  and  C_6
REMARK    3  A    between atoms: C_7  and  C_8
REMARK    4  A    between atoms: C_8  and  C_9
REMARK    5  A    between atoms: C_9  and  C_10
REMARK    6  A    between atoms: N_12  and  C_13
REMARK    7  A    between atoms: C_17  and  S_18
REMARK    8  A    between atoms: S_18  and  N_21
REMARK    9  A    between atoms: N_21  and  C_22
REMARK                            x       y       z     vdW  Elec       q    Type
REMARK                         _______ _______ _______ _____ _____    ______ ____
ROOT
ATOM      1  C   UNL     1       6.342   6.468  16.994  0.00  0.00    +0.000 A 
ATOM      2  C   UNL     1       6.800   5.327  16.324  0.00  0.00    +0.000 A 
ATOM      3  C   UNL     1       6.087   4.127  16.360  0.00  0.00    +0.000 A 
ATOM      4  C   UNL     1       4.901   4.044  17.078  0.00  0.00    +0.000 A 
ATOM      5  C   UNL     1       4.446   5.169  17.771  0.00  0.00    +0.000 A 
ATOM      6  C   UNL     1       5.176   6.372  17.761  0.00  0.00    +0.000 A 
ENDROOT
BRANCH   1   9
ATOM      7  C   UNL     1       7.951   8.172  17.832  0.00  0.00    +0.000 C 
ATOM      8  O   UNL     1       8.359   7.541  18.806  0.00  0.00    +0.000 OA
ATOM      9  N   UNL     1       7.012   7.717  16.917  0.00  0.00    +0.000 N 
ATOM     10  H   UNL     1       6.903   8.245  16.057  0.00  0.00    +0.000 HD
BRANCH   7  11
ATOM     11  C   UNL     1       8.492   9.557  17.527  0.00  0.00    +0.000 C 
BRANCH  11  12
ATOM     12  C   UNL     1       9.079  10.169  18.805  0.00  0.00    +0.000 C 
BRANCH  12  19
ATOM     13  C   UNL     1      11.718  11.656  20.003  0.00  0.00    +0.000 C 
ATOM     14  C   UNL     1      10.630  12.241  19.185  0.00  0.00    +0.000 A 
ATOM     15  N   UNL     1      10.674  13.530  18.832  0.00  0.00    +0.000 NA
ATOM     16  O   UNL     1       9.549  13.749  18.064  0.00  0.00    +0.000 OA
ATOM     17  C   UNL     1       8.834  12.598  17.964  0.00  0.00    +0.000 A 
ATOM     18  C   UNL     1       7.606  12.668  17.149  0.00  0.00    +0.000 C 
ATOM     19  C   UNL     1       9.469  11.597  18.669  0.00  0.00    +0.000 A 
ENDBRANCH  12  19
ENDBRANCH  11  12
ENDBRANCH   7  11
ENDBRANCH   1   9
BRANCH   5  20
ATOM     20  S   UNL     1       2.956   5.038  18.736  0.00  0.00    +0.000 S 
ATOM     21  O   UNL     1       1.826   5.172  17.841  0.00  0.00    +0.000 OA
ATOM     22  O   UNL     1       3.107   3.871  19.580  0.00  0.00    +0.000 OA
BRANCH  20  23
ATOM     23  N   UNL     1       3.010   6.376  19.767  0.00  0.00    +0.000 N 
ATOM     24  H   UNL     1       3.969   6.563  20.059  0.00  0.00    +0.000 HD
BRANCH  23  25
ATOM     25  C   UNL     1       2.253   7.540  19.424  0.00  0.00    +0.000 A 
ATOM     26  C   UNL     1       2.314   8.066  18.133  0.00  0.00    +0.000 A 
ATOM     27  C   UNL     1       1.535   9.179  17.802  0.00  0.00    +0.000 A 
ATOM     28  C   UNL     1       0.723   9.785  18.764  0.00  0.00    +0.000 A 
ATOM     29  C   UNL     1       0.690   9.282  20.066  0.00  0.00    +0.000 A 
ATOM     30  C   UNL     1       1.451   8.163  20.384  0.00  0.00    +0.000 A 
ATOM     31  F   UNL     1       1.399   7.665  21.630  0.00  0.00    +0.000 F 
ENDBRANCH  23  25
ENDBRANCH  20  23
ENDBRANCH   5  20
TORSDOF 7
ENDMDL
MODEL 3
REMARK VINA RESULT:      -8.4      0.494      1.536
REMARK  Name = 
REMARK  9 active torsions:
REMARK  status: ('A' for Active; 'I' for Inactive)
REMARK    1  A    between atoms: C_1  and  C_2
REMARK    2  A    between atoms: C_5  and  C_6
REMARK    3  A    between atoms: C_7  and  C_8
REMARK    4  A    between atoms: C_8  and  C_9
REMARK    5  A    between atoms: C_9  and  C_10
REMARK    6  A    between atoms: N_12  and  C_13
REMARK    7  A    between atoms: C_17  and  S_18
REMARK    8  A    between atoms: S_18  and  N_21
REMARK    9  A    between atoms: N_21  and  C_22
REMARK                            x       y       z     vdW  Elec       q    Type
REMARK                         _______ _______ _______ _____ _____    ______ ____
ROOT
ATOM      1  C   UNL     1       2.396   7.523  18.689  0.00  0.00    +0.000 A 
ATOM      2  C   UNL     1       2.125   8.390  17.623  0.00  0.00    +0.000 A 
ATOM      3  C   UNL     1       1.430   9.585  17.816  0.00  0.00    +0.000 A 
ATOM      4  C   UNL     1       0.983   9.934  19.084  0.00  0.00    +0.000 A 
ATOM      5  C   UNL     1       1.226   9.065  20.152  0.00  0.00    +0.000 A 
ATOM      6  C   UNL     1       1.901   7.846  19.958  0.00  0.00    +0.000 A 
ENDROOT
BRANCH   1   9
ATOM      7  C   UNL     1       2.631   5.055  18.477  0.00  0.00    +0.000 C 
ATOM      8  O   UNL     1       1.433   4.777  18.514  0.00  0.00    +0.000 OA
ATOM      9  N   UNL     1       3.159   6.337  18.532  0.00  0.00    +0.000 N 
ATOM     10  H   UNL     1       4.141   6.450  18.298  0.00  0.00    +0.000 HD
BRANCH   7  11
ATOM     11  C   UNL     1       3.675   3.961  18.332  0.00  0.00    +0.000 C 
BRANCH  11  12
ATOM     12  C   UNL     1       4.183   3.928  16.886  0.00  0.00    +0.000 C 
BRANCH  12  19
ATOM     13  C   UNL     1       6.239   4.966  19.191  0.00  0.00    +0.000 C 
ATOM     14  C   UNL     1       6.511   4.749  17.751  0.00  0.00    +0.000 A 
ATOM     15  N   UNL     1       7.737   4.962  17.260  0.00  0.00    +0.000 NA
ATOM     16  O   UNL     1       7.666   4.646  15.919  0.00  0.00    +0.000 OA
ATOM     17  C   UNL     1       6.404   4.252  15.609  0.00  0.00    +0.000 A 
ATOM     18  C   UNL     1       6.174   3.858  14.206  0.00  0.00    +0.000 C 
ATOM     19  C   UNL     1       5.613   4.307  16.738  0.00  0.00    +0.000 A 
ENDBRANCH  12  19
ENDBRANCH  11  12
ENDBRANCH   7  11
ENDBRANCH   1   9
BRANCH   5  20
ATOM     20  S   UNL     1       0.600   9.491  21.763  0.00  0.00    +0.000 S 
ATOM     21  O   UNL     1      -0.652   8.791  21.961  0.00  0.00    +0.000 OA
ATOM     22  O   UNL     1       1.700   9.332  22.693  0.00  0.00    +0.000 OA
BRANCH  20  23
ATOM     23  N   UNL     1       0.300  11.151  21.667  0.00  0.00    +0.000 N 
ATOM     24  H   UNL     1       0.743  11.546  20.837  0.00  0.00    +0.000 HD
BRANCH  23  25
ATOM     25  C   UNL     1      -1.025  11.626  21.919  0.00  0.00    +0.000 A 
ATOM     26  C   UNL     1      -1.567  11.559  23.204  0.00  0.00    +0.000 A 
ATOM     27  C   UNL     1      -2.848  12.068  23.442  0.00  0.00    +0.000 A 
ATOM     28  C   UNL     1      -3.598  12.611  22.396  0.00  0.00    +0.000 A 
ATOM     29  C   UNL     1      -3.071  12.644  21.104  0.00  0.00    +0.000 A 
ATOM     30  C   UNL     1      -1.790  12.156  20.877  0.00  0.00    +0.000 A 
ATOM     31  F   UNL     1      -1.275  12.212  19.638  0.00  0.00    +0.000 F 
ENDBRANCH  23  25
ENDBRANCH  20  23
ENDBRANCH   5  20
TORSDOF 7
ENDMDL
MODEL 4
REMARK VINA RESULT:      -8.3      5.981      8.870
REMARK  Name = 
REMARK  9 active torsions:
REMARK  status: ('A' for Active; 'I' for Inactive)
REMARK    1  A    between atoms: C_1  and  C_2
REMARK    2  A    between atoms: C_5  and  C_6
REMARK    3  A    between atoms: C_7  and  C_8
REMARK    4  A    between atoms: C_8  and  C_9
REMARK    5  A    between atoms: C_9  and  C_10
REMARK    6  A    between atoms: N_12  and  C_13
REMARK    7  A    between atoms: C_17  and  S_18
REMARK    8  A    between atoms: S_18  and  N_21
REMARK    9  A    between atoms: N_21  and  C_22
REMARK                            x       y       z     vdW  Elec       q    Type
REMARK                         _______ _______ _______ _____ _____    ______ ____
ROOT
ATOM      1  C   UNL     1       7.700   7.767  17.935  0.00  0.00    +0.000 A 
ATOM      2  C   UNL     1       8.365   7.009  18.906  0.00  0.00    +0.000 A 
ATOM      3  C   UNL     1       8.009   5.684  19.165  0.00  0.00    +0.000 A 
ATOM      4  C   UNL     1       6.969   5.093  18.459  0.00  0.00    +0.000 A 
ATOM      5  C   UNL     1       6.281   5.847  17.504  0.00  0.00    +0.000 A 
ATOM      6  C   UNL     1       6.618   7.191  17.259  0.00  0.00    +0.000 A 
ENDROOT
BRANCH   1   9
ATOM      7  C   UNL     1       8.750   9.961  18.461  0.00  0.00    +0.000 C 
ATOM      8  O   UNL     1       9.126   9.690  19.600  0.00  0.00    +0.000 OA
ATOM      9  N   UNL     1       8.088   9.092  17.605  0.00  0.00    +0.000 N 
ATOM     10  H   UNL     1       8.004   9.367  16.632  0.00  0.00    +0.000 HD
BRANCH   7  11
ATOM     11  C   UNL     1       9.020  11.331  17.865  0.00  0.00    +0.000 C 
BRANCH  11  12
ATOM     12  C   UNL     1      10.499  11.689  18.054  0.00  0.00    +0.000 C 
BRANCH  12  19
ATOM     13  C   UNL     1      11.447  14.572  16.871  0.00  0.00    +0.000 C 
ATOM     14  C   UNL     1      11.129  14.217  18.274  0.00  0.00    +0.000 A 
ATOM     15  N   UNL     1      11.194  15.147  19.233  0.00  0.00    +0.000 NA
ATOM     16  O   UNL     1      10.819  14.513  20.400  0.00  0.00    +0.000 OA
ATOM     17  C   UNL     1      10.536  13.210  20.139  0.00  0.00    +0.000 A 
ATOM     18  C   UNL     1      10.094  12.401  21.291  0.00  0.00    +0.000 C 
ATOM     19  C   UNL     1      10.726  12.956  18.797  0.00  0.00    +0.000 A 
ENDBRANCH  12  19
ENDBRANCH  11  12
ENDBRANCH   7  11
ENDBRANCH   1   9
BRANCH   5  20
ATOM     20  S   UNL     1       4.914   5.100  16.643  0.00  0.00    +0.000 S 
ATOM     21  O   UNL     1       5.014   5.453  15.243  0.00  0.00    +0.000 OA
ATOM     22  O   UNL     1       4.863   3.714  17.064  0.00  0.00    +0.000 OA
BRANCH  20  23
ATOM     23  N   UNL     1       3.549   5.843  17.308  0.00  0.00    +0.000 N 
ATOM     24  H   UNL     1       3.070   6.404  16.603  0.00  0.00    +0.000 HD
BRANCH  23  25
ATOM     25  C   UNL     1       2.684   5.071  18.144  0.00  0.00    +0.000 A 
ATOM     26  C   UNL     1       1.911   4.043  17.603  0.00  0.00    +0.000 A 
ATOM     27  C   UNL     1       1.103   3.268  18.442  0.00  0.00    +0.000 A 
ATOM     28  C   UNL     1       1.042   3.540  19.811  0.00  0.00    +0.000 A 
ATOM     29  C   UNL     1       1.786   4.592  20.347  0.00  0.00    +0.000 A 
ATOM     30  C   UNL     1       2.603   5.345  19.512  0.00  0.00    +0.000 A 
ATOM     31  F   UNL     1       3.337   6.340  20.034  0.00  0.00    +0.000 F 
ENDBRANCH  23  25
ENDBRANCH  20  23
ENDBRANCH   5  20
TORSDOF 7
ENDMDL
MODEL 5
REMARK VINA RESULT:      -8.3      2.839      9.958
REMARK  Name = 
REMARK  9 active torsions:
REMARK  status: ('A' for Active; 'I' for Inactive)
REMARK    1  A    between atoms: C_1  and  C_2
REMARK    2  A    between atoms: C_5  and  C_6
REMARK    3  A    between atoms: C_7  and  C_8
REMARK    4  A    between atoms: C_8  and  C_9
REMARK    5  A    between atoms: C_9  and  C_10
REMARK    6  A    between atoms: N_12  and  C_13
REMARK    7  A    between atoms: C_17  and  S_18
REMARK    8  A    between atoms: S_18  and  N_21
REMARK    9  A    between atoms: N_21  and  C_22
REMARK                            x       y       z     vdW  Elec       q    Type
REMARK                         _______ _______ _______ _____ _____    ______ ____
ROOT
ATOM      1  C   UNL     1       0.772   9.484  19.958  0.00  0.00    +0.000 A 
ATOM      2  C   UNL     1       1.205  10.284  18.893  0.00  0.00    +0.000 A 
ATOM      3  C   UNL     1       2.029   9.775  17.888  0.00  0.00    +0.000 A 
ATOM      4  C   UNL     1       2.446   8.450  17.934  0.00  0.00    +0.000 A 
ATOM      5  C   UNL     1       2.040   7.648  19.005  0.00  0.00    +0.000 A 
ATOM      6  C   UNL     1       1.232   8.164  20.035  0.00  0.00    +0.000 A 
ENDROOT
BRANCH   1   9
ATOM      7  C   UNL     1       0.149   9.982  22.315  0.00  0.00    +0.000 C 
ATOM      8  O   UNL     1       1.207   9.635  22.837  0.00  0.00    +0.000 OA
ATOM      9  N   UNL     1      -0.121   9.959  20.953  0.00  0.00    +0.000 N 
ATOM     10  H   UNL     1      -0.950  10.447  20.632  0.00  0.00    +0.000 HD
BRANCH   7  11
ATOM     11  C   UNL     1      -0.993  10.514  23.163  0.00  0.00    +0.000 C 
BRANCH  11  12
ATOM     12  C   UNL     1      -1.161  12.017  22.908  0.00  0.00    +0.000 C 
BRANCH  12  19
ATOM     13  C   UNL     1      -1.993  12.575  19.809  0.00  0.00    +0.000 C 
ATOM     14  C   UNL     1      -2.856  12.627  21.012  0.00  0.00    +0.000 A 
ATOM     15  N   UNL     1      -4.157  12.911  20.894  0.00  0.00    +0.000 NA
ATOM     16  O   UNL     1      -4.674  12.854  22.172  0.00  0.00    +0.000 OA
ATOM     17  C   UNL     1      -3.685  12.543  23.050  0.00  0.00    +0.000 A 
ATOM     18  C   UNL     1      -4.088  12.421  24.464  0.00  0.00    +0.000 C 
ATOM     19  C   UNL     1      -2.493  12.395  22.370  0.00  0.00    +0.000 A 
ENDBRANCH  12  19
ENDBRANCH  11  12
ENDBRANCH   7  11
ENDBRANCH   1   9
BRANCH   5  20
ATOM     20  S   UNL     1       2.623   5.968  19.087  0.00  0.00    +0.000 S 
ATOM     21  O   UNL     1       2.449   5.495  20.444  0.00  0.00    +0.000 OA
ATOM     22  O   UNL     1       2.029   5.265  17.968  0.00  0.00    +0.000 OA
BRANCH  20  23
ATOM     23  N   UNL     1       4.275   6.084  18.746  0.00  0.00    +0.000 N 
ATOM     24  H   UNL     1       4.826   5.824  19.563  0.00  0.00    +0.000 HD
BRANCH  23  25
ATOM     25  C   UNL     1       4.759   5.560  17.507  0.00  0.00    +0.000 A 
ATOM     26  C   UNL     1       4.951   6.402  16.411  0.00  0.00    +0.000 A 
ATOM     27  C   UNL     1       5.467   5.880  15.220  0.00  0.00    +0.000 A 
ATOM     28  C   UNL     1       5.759   4.518  15.113  0.00  0.00    +0.000 A 
ATOM     29  C   UNL     1       5.531   3.669  16.197  0.00  0.00    +0.000 A 
ATOM     30  C   UNL     1       5.038   4.196  17.385  0.00  0.00    +0.000 A 
ATOM     31  F   UNL     1       4.843   3.382  18.434  0.00  0.00    +0.000 F 
ENDBRANCH  23  25
ENDBRANCH  20  23
ENDBRANCH   5  20
TORSDOF 7
ENDMDL
MODEL 6
REMARK VINA RESULT:      -8.3      3.270      4.603
REMARK  Name = 
REMARK  9 active torsions:
REMARK  status: ('A' for Active; 'I' for Inactive)
REMARK    1  A    between atoms: C_1  and  C_2
REMARK    2  A    between atoms: C_5  and  C_6
REMARK    3  A    between atoms: C_7  and  C_8
REMARK    4  A    between atoms: C_8  and  C_9
REMARK    5  A    between atoms: C_9  and  C_10
REMARK    6  A    between atoms: N_12  and  C_13
REMARK    7  A    between atoms: C_17  and  S_18
REMARK    8  A    between atoms: S_18  and  N_21
REMARK    9  A    between atoms: N_21  and  C_22
REMARK                            x       y       z     vdW  Elec       q    Type
REMARK                         _______ _______ _______ _____ _____    ______ ____
ROOT
ATOM      1  C   UNL     1       1.067   9.666  18.134  0.00  0.00    +0.000 A 
ATOM      2  C   UNL     1       1.355  10.751  18.971  0.00  0.00    +0.000 A 
ATOM      3  C   UNL     1       0.390  11.715  19.270  0.00  0.00    +0.000 A 
ATOM      4  C   UNL     1      -0.885  11.616  18.727  0.00  0.00    +0.000 A 
ATOM      5  C   UNL     1      -1.176  10.551  17.870  0.00  0.00    +0.000 A 
ATOM      6  C   UNL     1      -0.200   9.592  17.543  0.00  0.00    +0.000 A 
ENDROOT
BRANCH   1   9
ATOM      7  C   UNL     1       2.388   7.657  18.776  0.00  0.00    +0.000 C 
ATOM      8  O   UNL     1       1.933   7.522  19.910  0.00  0.00    +0.000 OA
ATOM      9  N   UNL     1       2.008   8.637  17.869  0.00  0.00    +0.000 N 
ATOM     10  H   UNL     1       2.312   8.528  16.907  0.00  0.00    +0.000 HD
BRANCH   7  11
ATOM     11  C   UNL     1       3.436   6.695  18.243  0.00  0.00    +0.000 C 
BRANCH  11  12
ATOM     12  C   UNL     1       3.581   5.513  19.208  0.00  0.00    +0.000 C 
BRANCH  12  19
ATOM     13  C   UNL     1       4.541   3.547  16.795  0.00  0.00    +0.000 C 
ATOM     14  C   UNL     1       3.366   3.397  17.685  0.00  0.00    +0.000 A 
ATOM     15  N   UNL     1       2.561   2.337  17.562  0.00  0.00    +0.000 NA
ATOM     16  O   UNL     1       1.597   2.479  18.539  0.00  0.00    +0.000 OA
ATOM     17  C   UNL     1       1.823   3.621  19.239  0.00  0.00    +0.000 A 
ATOM     18  C   UNL     1       0.884   3.902  20.341  0.00  0.00    +0.000 C 
ATOM     19  C   UNL     1       2.936   4.260  18.734  0.00  0.00    +0.000 A 
ENDBRANCH  12  19
ENDBRANCH  11  12
ENDBRANCH   7  11
ENDBRANCH   1   9
BRANCH   5  20
ATOM     20  S   UNL     1      -2.794  10.462  17.133  0.00  0.00    +0.000 S 
ATOM     21  O   UNL     1      -2.633  10.395  15.696  0.00  0.00    +0.000 OA
ATOM     22  O   UNL     1      -3.524   9.438  17.852  0.00  0.00    +0.000 OA
BRANCH  20  23
ATOM     23  N   UNL     1      -3.519  11.932  17.543  0.00  0.00    +0.000 N 
ATOM     24  H   UNL     1      -3.506  12.570  16.748  0.00  0.00    +0.000 HD
BRANCH  23  25
ATOM     25  C   UNL     1      -4.750  11.913  18.271  0.00  0.00    +0.000 A 
ATOM     26  C   UNL     1      -5.952  11.635  17.618  0.00  0.00    +0.000 A 
ATOM     27  C   UNL     1      -7.141  11.577  18.353  0.00  0.00    +0.000 A 
ATOM     28  C   UNL     1      -7.135  11.827  19.727  0.00  0.00    +0.000 A 
ATOM     29  C   UNL     1      -5.939  12.142  20.374  0.00  0.00    +0.000 A 
ATOM     30  C   UNL     1      -4.757  12.178  19.643  0.00  0.00    +0.000 A 
ATOM     31  F   UNL     1      -3.604  12.457  20.271  0.00  0.00    +0.000 F 
ENDBRANCH  23  25
ENDBRANCH  20  23
ENDBRANCH   5  20
TORSDOF 7
ENDMDL
MODEL 7
REMARK VINA RESULT:      -8.3      4.808      7.514
REMARK  Name = 
REMARK  9 active torsions:
REMARK  status: ('A' for Active; 'I' for Inactive)
REMARK    1  A    between atoms: C_1  and  C_2
REMARK    2  A    between atoms: C_5  and  C_6
REMARK    3  A    between atoms: C_7  and  C_8
REMARK    4  A    between atoms: C_8  and  C_9
REMARK    5  A    between atoms: C_9  and  C_10
REMARK    6  A    between atoms: N_12  and  C_13
REMARK    7  A    between atoms: C_17  and  S_18
REMARK    8  A    between atoms: S_18  and  N_21
REMARK    9  A    between atoms: N_21  and  C_22
REMARK                            x       y       z     vdW  Elec       q    Type
REMARK                         _______ _______ _______ _____ _____    ______ ____
ROOT
ATOM      1  C   UNL     1       6.714   6.402  16.696  0.00  0.00    +0.000 A 
ATOM      2  C   UNL     1       7.167   5.689  15.578  0.00  0.00    +0.000 A 
ATOM      3  C   UNL     1       6.665   4.424  15.270  0.00  0.00    +0.000 A 
ATOM      4  C   UNL     1       5.702   3.840  16.084  0.00  0.00    +0.000 A 
ATOM      5  C   UNL     1       5.261   4.531  17.216  0.00  0.00    +0.000 A 
ATOM      6  C   UNL     1       5.784   5.794  17.546  0.00  0.00    +0.000 A 
ENDROOT
BRANCH   1   9
ATOM      7  C   UNL     1       8.001   8.053  18.042  0.00  0.00    +0.000 C 
ATOM      8  O   UNL     1       8.509   7.256  18.830  0.00  0.00    +0.000 OA
ATOM      9  N   UNL     1       7.158   7.717  16.992  0.00  0.00    +0.000 N 
ATOM     10  H   UNL     1       6.962   8.435  16.302  0.00  0.00    +0.000 HD
BRANCH   7  11
ATOM     11  C   UNL     1       8.295   9.539  18.149  0.00  0.00    +0.000 C 
BRANCH  11  12
ATOM     12  C   UNL     1       9.296   9.781  19.284  0.00  0.00    +0.000 C 
BRANCH  12  19
ATOM     13  C   UNL     1      10.609  12.063  17.365  0.00  0.00    +0.000 C 
ATOM     14  C   UNL     1      10.092  12.214  18.746  0.00  0.00    +0.000 A 
ATOM     15  N   UNL     1      10.110  13.410  19.342  0.00  0.00    +0.000 NA
ATOM     16  O   UNL     1       9.543  13.220  20.586  0.00  0.00    +0.000 OA
ATOM     17  C   UNL     1       9.193  11.916  20.733  0.00  0.00    +0.000 A 
ATOM     18  C   UNL     1       8.549  11.559  22.011  0.00  0.00    +0.000 C 
ATOM     19  C   UNL     1       9.528  11.217  19.592  0.00  0.00    +0.000 A 
ENDBRANCH  12  19
ENDBRANCH  11  12
ENDBRANCH   7  11
ENDBRANCH   1   9
BRANCH   5  20
ATOM     20  S   UNL     1       4.069   3.752  18.285  0.00  0.00    +0.000 S 
ATOM     21  O   UNL     1       3.913   2.377  17.862  0.00  0.00    +0.000 OA
ATOM     22  O   UNL     1       4.453   4.077  19.644  0.00  0.00    +0.000 OA
BRANCH  20  23
ATOM     23  N   UNL     1       2.633   4.592  17.988  0.00  0.00    +0.000 N 
ATOM     24  H   UNL     1       1.874   3.941  17.789  0.00  0.00    +0.000 HD
BRANCH  23  25
ATOM     25  C   UNL     1       2.279   5.675  18.852  0.00  0.00    +0.000 A 
ATOM     26  C   UNL     1       1.707   5.424  20.100  0.00  0.00    +0.000 A 
ATOM     27  C   UNL     1       1.407   6.493  20.951  0.00  0.00    +0.000 A 
ATOM     28  C   UNL     1       1.645   7.808  20.544  0.00  0.00    +0.000 A 
ATOM     29  C   UNL     1       2.181   8.061  19.280  0.00  0.00    +0.000 A 
ATOM     30  C   UNL     1       2.497   6.995  18.448  0.00  0.00    +0.000 A 
ATOM     31  F   UNL     1       3.036   7.239  17.243  0.00  0.00    +0.000 F 
ENDBRANCH  23  25
ENDBRANCH  20  23
ENDBRANCH   5  20
TORSDOF 7
ENDMDL
MODEL 8
REMARK VINA RESULT:      -8.2      3.428      4.662
REMARK  Name = 
REMARK  9 active torsions:
REMARK  status: ('A' for Active; 'I' for Inactive)
REMARK    1  A    between atoms: C_1  and  C_2
REMARK    2  A    between atoms: C_5  and  C_6
REMARK    3  A    between atoms: C_7  and  C_8
REMARK    4  A    between atoms: C_8  and  C_9
REMARK    5  A    between atoms: C_9  and  C_10
REMARK    6  A    between atoms: N_12  and  C_13
REMARK    7  A    between atoms: C_17  and  S_18
REMARK    8  A    between atoms: S_18  and  N_21
REMARK    9  A    between atoms: N_21  and  C_22
REMARK                            x       y       z     vdW  Elec       q    Type
REMARK                         _______ _______ _______ _____ _____    ______ ____
ROOT
ATOM      1  C   UNL     1       0.517  10.225  18.919  0.00  0.00    +0.000 A 
ATOM      2  C   UNL     1       0.909  11.544  19.182  0.00  0.00    +0.000 A 
ATOM      3  C   UNL     1       0.119  12.628  18.798  0.00  0.00    +0.000 A 
ATOM      4  C   UNL     1      -1.081  12.414  18.131  0.00  0.00    +0.000 A 
ATOM      5  C   UNL     1      -1.472  11.104  17.841  0.00  0.00    +0.000 A 
ATOM      6  C   UNL     1      -0.666  10.009  18.202  0.00  0.00    +0.000 A 
ENDROOT
BRANCH   1   9
ATOM      7  C   UNL     1       2.090   8.333  18.550  0.00  0.00    +0.000 C 
ATOM      8  O   UNL     1       2.312   8.539  17.358  0.00  0.00    +0.000 OA
ATOM      9  N   UNL     1       1.267   9.105  19.360  0.00  0.00    +0.000 N 
ATOM     10  H   UNL     1       1.317   8.949  20.361  0.00  0.00    +0.000 HD
BRANCH   7  11
ATOM     11  C   UNL     1       2.755   7.173  19.271  0.00  0.00    +0.000 C 
BRANCH  11  12
ATOM     12  C   UNL     1       3.006   6.032  18.279  0.00  0.00    +0.000 C 
BRANCH  12  19
ATOM     13  C   UNL     1       1.481   3.515  19.675  0.00  0.00    +0.000 C 
ATOM     14  C   UNL     1       2.937   3.715  19.490  0.00  0.00    +0.000 A 
ATOM     15  N   UNL     1       3.800   2.780  19.900  0.00  0.00    +0.000 NA
ATOM     16  O   UNL     1       5.053   3.249  19.562  0.00  0.00    +0.000 OA
ATOM     17  C   UNL     1       4.939   4.460  18.958  0.00  0.00    +0.000 A 
ATOM     18  C   UNL     1       6.200   5.084  18.514  0.00  0.00    +0.000 C 
ATOM     19  C   UNL     1       3.609   4.818  18.891  0.00  0.00    +0.000 A 
ENDBRANCH  12  19
ENDBRANCH  11  12
ENDBRANCH   7  11
ENDBRANCH   1   9
BRANCH   5  20
ATOM     20  S   UNL     1      -2.982  10.840  16.937  0.00  0.00    +0.000 S 
ATOM     21  O   UNL     1      -2.687  10.940  15.524  0.00  0.00    +0.000 OA
ATOM     22  O   UNL     1      -3.596   9.650  17.490  0.00  0.00    +0.000 OA
BRANCH  20  23
ATOM     23  N   UNL     1      -3.970  12.134  17.392  0.00  0.00    +0.000 N 
ATOM     24  H   UNL     1      -4.290  12.644  16.569  0.00  0.00    +0.000 HD
BRANCH  23  25
ATOM     25  C   UNL     1      -4.975  11.915  18.385  0.00  0.00    +0.000 A 
ATOM     26  C   UNL     1      -6.163  11.260  18.056  0.00  0.00    +0.000 A 
ATOM     27  C   UNL     1      -7.117  11.016  19.050  0.00  0.00    +0.000 A 
ATOM     28  C   UNL     1      -6.900  11.453  20.359  0.00  0.00    +0.000 A 
ATOM     29  C   UNL     1      -5.729  12.141  20.681  0.00  0.00    +0.000 A 
ATOM     30  C   UNL     1      -4.776  12.362  19.694  0.00  0.00    +0.000 A 
ATOM     31  F   UNL     1      -3.639  13.002  20.012  0.00  0.00    +0.000 F 
ENDBRANCH  23  25
ENDBRANCH  20  23
ENDBRANCH   5  20
TORSDOF 7
ENDMDL
MODEL 9
REMARK VINA RESULT:      -8.2      3.613      9.529
REMARK  Name = 
REMARK  9 active torsions:
REMARK  status: ('A' for Active; 'I' for Inactive)
REMARK    1  A    between atoms: C_1  and  C_2
REMARK    2  A    between atoms: C_5  and  C_6
REMARK    3  A    between atoms: C_7  and  C_8
REMARK    4  A    between atoms: C_8  and  C_9
REMARK    5  A    between atoms: C_9  and  C_10
REMARK    6  A    between atoms: N_12  and  C_13
REMARK    7  A    between atoms: C_17  and  S_18
REMARK    8  A    between atoms: S_18  and  N_21
REMARK    9  A    between atoms: N_21  and  C_22
REMARK                            x       y       z     vdW  Elec       q    Type
REMARK                         _______ _______ _______ _____ _____    ______ ____
ROOT
ATOM      1  C   UNL     1       1.748   5.271  20.435  0.00  0.00    +0.000 A 
ATOM      2  C   UNL     1       0.617   4.447  20.470  0.00  0.00    +0.000 A 
ATOM      3  C   UNL     1       0.701   3.083  20.186  0.00  0.00    +0.000 A 
ATOM      4  C   UNL     1       1.924   2.515  19.851  0.00  0.00    +0.000 A 
ATOM      5  C   UNL     1       3.056   3.332  19.788  0.00  0.00    +0.000 A 
ATOM      6  C   UNL     1       2.972   4.713  20.046  0.00  0.00    +0.000 A 
ENDROOT
BRANCH   1   9
ATOM      7  C   UNL     1       1.885   7.697  19.899  0.00  0.00    +0.000 C 
ATOM      8  O   UNL     1       2.069   7.583  18.688  0.00  0.00    +0.000 OA
ATOM      9  N   UNL     1       1.702   6.645  20.786  0.00  0.00    +0.000 N 
ATOM     10  H   UNL     1       1.368   6.871  21.717  0.00  0.00    +0.000 HD
BRANCH   7  11
ATOM     11  C   UNL     1       1.812   9.070  20.544  0.00  0.00    +0.000 C 
BRANCH  11  12
ATOM     12  C   UNL     1       0.476   9.731  20.189  0.00  0.00    +0.000 C 
BRANCH  12  19
ATOM     13  C   UNL     1      -0.236  12.867  19.668  0.00  0.00    +0.000 C 
ATOM     14  C   UNL     1      -0.301  12.112  20.942  0.00  0.00    +0.000 A 
ATOM     15  N   UNL     1      -0.716  12.717  22.060  0.00  0.00    +0.000 NA
ATOM     16  O   UNL     1      -0.690  11.750  23.044  0.00  0.00    +0.000 OA
ATOM     17  C   UNL     1      -0.256  10.576  22.517  0.00  0.00    +0.000 A 
ATOM     18  C   UNL     1      -0.194   9.432  23.447  0.00  0.00    +0.000 C 
ATOM     19  C   UNL     1       0.020  10.745  21.176  0.00  0.00    +0.000 A 
ENDBRANCH  12  19
ENDBRANCH  11  12
ENDBRANCH   7  11
ENDBRANCH   1   9
BRANCH   5  20
ATOM     20  S   UNL     1       4.609   2.610  19.302  0.00  0.00    +0.000 S 
ATOM     21  O   UNL     1       5.143   1.882  20.434  0.00  0.00    +0.000 OA
ATOM     22  O   UNL     1       4.383   1.953  18.030  0.00  0.00    +0.000 OA
BRANCH  20  23
ATOM     23  N   UNL     1       5.602   3.938  18.977  0.00  0.00    +0.000 N 
ATOM     24  H   UNL     1       6.457   3.888  19.530  0.00  0.00    +0.000 HD
BRANCH  23  25
ATOM     25  C   UNL     1       5.793   4.336  17.617  0.00  0.00    +0.000 A 
ATOM     26  C   UNL     1       4.696   4.607  16.799  0.00  0.00    +0.000 A 
ATOM     27  C   UNL     1       4.902   5.037  15.484  0.00  0.00    +0.000 A 
ATOM     28  C   UNL     1       6.198   5.165  14.977  0.00  0.00    +0.000 A 
ATOM     29  C   UNL     1       7.295   4.857  15.783  0.00  0.00    +0.000 A 
ATOM     30  C   UNL     1       7.085   4.450  17.095  0.00  0.00    +0.000 A 
ATOM     31  F   UNL     1       8.143   4.179  17.876  0.00  0.00    +0.000 F 
ENDBRANCH  23  25
ENDBRANCH  20  23
ENDBRANCH   5  20
TORSDOF 7
ENDMDL
