MODEL 1
REMARK VINA RESULT:      -9.3      0.000      0.000
REMARK  Name = 
REMARK  3 active torsions:
REMARK  status: ('A' for Active; 'I' for Inactive)
REMARK    1  A    between atoms: C_1  and  C_2
REMARK    2  A    between atoms: N_5  and  C_6
REMARK    3  A    between atoms: C_9  and  N_10
REMARK                            x       y       z     vdW  Elec       q    Type
REMARK                         _______ _______ _______ _____ _____    ______ ____
ROOT
ATOM      1  N   UNL     1       2.095   7.263  19.369  0.00  0.00    +0.000 N 
ATOM      2  C   UNL     1       2.218   5.962  19.782  0.00  0.00    +0.000 C 
ATOM      3  O   UNL     1       1.884   5.565  20.898  0.00  0.00    +0.000 OA
ATOM      4  N   UNL     1       2.704   5.078  18.821  0.00  0.00    +0.000 N 
ATOM      5  C   UNL     1       2.795   3.680  19.217  0.00  0.00    +0.000 C 
ATOM      6  C   UNL     1       4.235   3.384  19.577  0.00  0.00    +0.000 C 
ATOM      7  O   UNL     1       5.100   3.613  18.471  0.00  0.00    +0.000 OA
ATOM      8  C   UNL     1       4.962   4.842  17.723  0.00  0.00    +0.000 C 
ATOM      9  C   UNL     1       5.625   4.400  16.391  0.00  0.00    +0.000 C 
ATOM     10  C   UNL     1       7.055   4.977  16.514  0.00  0.00    +0.000 C 
ATOM     11  C   UNL     1       7.805   4.586  17.822  0.00  0.00    +0.000 C 
ATOM     12  C   UNL     1       7.107   5.411  18.921  0.00  0.00    +0.000 C 
ATOM     13  C   UNL     1       5.937   6.002  18.147  0.00  0.00    +0.000 C 
ATOM     14  C   UNL     1       6.664   6.409  16.838  0.00  0.00    +0.000 C 
ATOM     15  C   UNL     1       3.495   5.360  17.601  0.00  0.00    +0.000 C 
ATOM     16  H   UNL     1       2.185   7.408  18.379  0.00  0.00    +0.000 HD
ENDROOT
BRANCH   1  20
ATOM     17  C   UNL     1       0.322  10.573  21.344  0.00  0.00    +0.000 A 
ATOM     18  C   UNL     1       0.846   9.523  22.114  0.00  0.00    +0.000 A 
ATOM     19  C   UNL     1       1.455   8.416  21.492  0.00  0.00    +0.000 A 
ATOM     20  C   UNL     1       1.556   8.348  20.097  0.00  0.00    +0.000 A 
ATOM     21  C   UNL     1       1.082   9.420  19.342  0.00  0.00    +0.000 A 
ATOM     22  C   UNL     1       0.472  10.513  19.955  0.00  0.00    +0.000 A 
ATOM     23  F   UNL     1       0.033  11.481  19.143  0.00  0.00    +0.000 F 
BRANCH  17  28
ATOM     24  C   UNL     1      -2.982  13.392  23.845  0.00  0.00    +0.000 C 
ATOM     25  C   UNL     1      -1.807  12.922  23.075  0.00  0.00    +0.000 A 
ATOM     26  C   UNL     1      -0.683  13.648  22.642  0.00  0.00    +0.000 A 
ATOM     27  N   UNL     1       0.200  12.900  21.982  0.00  0.00    +0.000 NA
ATOM     28  N   UNL     1      -0.353  11.652  21.968  0.00  0.00    +0.000 N 
ATOM     29  C   UNL     1      -1.561  11.642  22.631  0.00  0.00    +0.000 A 
ENDBRANCH  17  28
ENDBRANCH   1  20
TORSDOF 2
ENDMDL
MODEL 2
REMARK VINA RESULT:      -8.8      0.946      1.317
REMARK  Name = 
REMARK  3 active torsions:
REMARK  status: ('A' for Active; 'I' for Inactive)
REMARK    1  A    between atoms: C_1  and  C_2
REMARK    2  A    between atoms: N_5  and  C_6
REMARK    3  A    between atoms: C_9  and  N_10
REMARK                            x       y       z     vdW  Elec       q    Type
REMARK                         _______ _______ _______ _____ _____    ______ ____
ROOT
ATOM      1  N   UNL     1       2.088   7.354  18.996  0.00  0.00    +0.000 N 
ATOM      2  C   UNL     1       2.204   6.112  19.562  0.00  0.00    +0.000 C 
ATOM      3  O   UNL     1       1.828   5.843  20.702  0.00  0.00    +0.000 OA
ATOM      4  N   UNL     1       2.737   5.129  18.731  0.00  0.00    +0.000 N 
ATOM      5  C   UNL     1       2.824   3.787  19.289  0.00  0.00    +0.000 C 
ATOM      6  C   UNL     1       4.250   3.554  19.739  0.00  0.00    +0.000 C 
ATOM      7  O   UNL     1       5.158   3.664  18.649  0.00  0.00    +0.000 OA
ATOM      8  C   UNL     1       5.041   4.797  17.759  0.00  0.00    +0.000 C 
ATOM      9  C   UNL     1       5.762   4.213  16.515  0.00  0.00    +0.000 C 
ATOM     10  C   UNL     1       7.180   4.819  16.627  0.00  0.00    +0.000 C 
ATOM     11  C   UNL     1       7.879   4.591  18.001  0.00  0.00    +0.000 C 
ATOM     12  C   UNL     1       7.129   5.529  18.968  0.00  0.00    +0.000 C 
ATOM     13  C   UNL     1       5.988   6.011  18.084  0.00  0.00    +0.000 C 
ATOM     14  C   UNL     1       6.765   6.273  16.767  0.00  0.00    +0.000 C 
ATOM     15  C   UNL     1       3.576   5.278  17.519  0.00  0.00    +0.000 C 
ATOM     16  H   UNL     1       2.218   7.385  18.000  0.00  0.00    +0.000 HD
ENDROOT
BRANCH   1  20
ATOM     17  C   UNL     1       0.494  10.771  20.943  0.00  0.00    +0.000 A 
ATOM     18  C   UNL     1       0.567  10.759  19.542  0.00  0.00    +0.000 A 
ATOM     19  C   UNL     1       1.076   9.636  18.862  0.00  0.00    +0.000 A 
ATOM     20  C   UNL     1       1.510   8.509  19.571  0.00  0.00    +0.000 A 
ATOM     21  C   UNL     1       1.384   8.506  20.960  0.00  0.00    +0.000 A 
ATOM     22  C   UNL     1       0.887   9.620  21.635  0.00  0.00    +0.000 A 
ATOM     23  F   UNL     1       0.824   9.527  22.968  0.00  0.00    +0.000 F 
BRANCH  17  28
ATOM     24  C   UNL     1      -2.029  13.970  23.860  0.00  0.00    +0.000 C 
ATOM     25  C   UNL     1      -1.060  13.365  22.918  0.00  0.00    +0.000 A 
ATOM     26  C   UNL     1       0.034  13.963  22.267  0.00  0.00    +0.000 A 
ATOM     27  N   UNL     1       0.710  13.113  21.495  0.00  0.00    +0.000 NA
ATOM     28  N   UNL     1       0.047  11.928  21.629  0.00  0.00    +0.000 N 
ATOM     29  C   UNL     1      -1.020  12.056  22.492  0.00  0.00    +0.000 A 
ENDBRANCH  17  28
ENDBRANCH   1  20
TORSDOF 2
ENDMDL
MODEL 3
REMARK VINA RESULT:      -8.4      2.367      3.680
REMARK  Name = 
REMARK  3 active torsions:
REMARK  status: ('A' for Active; 'I' for Inactive)
REMARK    1  A    between atoms: C_1  and  C_2
REMARK    2  A    between atoms: N_5  and  C_6
REMARK    3  A    between atoms: C_9  and  N_10
REMARK                            x       y       z     vdW  Elec       q    Type
REMARK                         _______ _______ _______ _____ _____    ______ ____
ROOT
ATOM      1  N   UNL     1       1.600   8.169  21.093  0.00  0.00    +0.000 N 
ATOM      2  C   UNL     1       1.900   7.982  19.769  0.00  0.00    +0.000 C 
ATOM      3  O   UNL     1       1.472   8.697  18.864  0.00  0.00    +0.000 OA
ATOM      4  N   UNL     1       2.788   6.940  19.503  0.00  0.00    +0.000 N 
ATOM      5  C   UNL     1       3.165   6.753  18.110  0.00  0.00    +0.000 C 
ATOM      6  C   UNL     1       2.347   5.608  17.550  0.00  0.00    +0.000 C 
ATOM      7  O   UNL     1       2.592   4.403  18.265  0.00  0.00    +0.000 OA
ATOM      8  C   UNL     1       2.572   4.436  19.710  0.00  0.00    +0.000 C 
ATOM      9  C   UNL     1       3.413   3.165  20.000  0.00  0.00    +0.000 C 
ATOM     10  C   UNL     1       2.331   2.102  20.301  0.00  0.00    +0.000 C 
ATOM     11  C   UNL     1       1.229   1.967  19.208  0.00  0.00    +0.000 C 
ATOM     12  C   UNL     1       0.378   3.241  19.368  0.00  0.00    +0.000 C 
ATOM     13  C   UNL     1       1.207   4.025  20.376  0.00  0.00    +0.000 C 
ATOM     14  C   UNL     1       1.574   2.883  21.361  0.00  0.00    +0.000 C 
ATOM     15  C   UNL     1       3.122   5.758  20.331  0.00  0.00    +0.000 C 
ATOM     16  H   UNL     1       2.186   7.670  21.740  0.00  0.00    +0.000 HD
ENDROOT
BRANCH   1  20
ATOM     17  C   UNL     1      -0.812  11.345  22.541  0.00  0.00    +0.000 A 
ATOM     18  C   UNL     1      -0.806  10.125  23.235  0.00  0.00    +0.000 A 
ATOM     19  C   UNL     1      -0.006   9.054  22.791  0.00  0.00    +0.000 A 
ATOM     20  C   UNL     1       0.804   9.191  21.657  0.00  0.00    +0.000 A 
ATOM     21  C   UNL     1       0.834  10.424  21.005  0.00  0.00    +0.000 A 
ATOM     22  C   UNL     1       0.037  11.482  21.437  0.00  0.00    +0.000 A 
ATOM     23  F   UNL     1       0.122  12.617  20.734  0.00  0.00    +0.000 F 
BRANCH  17  28
ATOM     24  C   UNL     1      -4.824  14.138  23.643  0.00  0.00    +0.000 C 
ATOM     25  C   UNL     1      -3.439  13.654  23.443  0.00  0.00    +0.000 A 
ATOM     26  C   UNL     1      -2.224  14.310  23.709  0.00  0.00    +0.000 A 
ATOM     27  N   UNL     1      -1.156  13.568  23.423  0.00  0.00    +0.000 NA
ATOM     28  N   UNL     1      -1.671  12.397  22.948  0.00  0.00    +0.000 N 
ATOM     29  C   UNL     1      -3.049  12.425  22.960  0.00  0.00    +0.000 A 
ENDBRANCH  17  28
ENDBRANCH   1  20
TORSDOF 2
ENDMDL
MODEL 4
REMARK VINA RESULT:      -8.3      2.211      3.754
REMARK  Name = 
REMARK  3 active torsions:
REMARK  status: ('A' for Active; 'I' for Inactive)
REMARK    1  A    between atoms: C_1  and  C_2
REMARK    2  A    between atoms: N_5  and  C_6
REMARK    3  A    between atoms: C_9  and  N_10
REMARK                            x       y       z     vdW  Elec       q    Type
REMARK                         _______ _______ _______ _____ _____    ______ ____
ROOT
ATOM      1  N   UNL     1       1.756   7.972  20.490  0.00  0.00    +0.000 N 
ATOM      2  C   UNL     1       2.304   7.662  19.273  0.00  0.00    +0.000 C 
ATOM      3  O   UNL     1       2.116   8.320  18.252  0.00  0.00    +0.000 OA
ATOM      4  N   UNL     1       3.156   6.558  19.271  0.00  0.00    +0.000 N 
ATOM      5  C   UNL     1       3.794   6.238  18.002  0.00  0.00    +0.000 C 
ATOM      6  C   UNL     1       3.032   5.094  17.367  0.00  0.00    +0.000 C 
ATOM      7  O   UNL     1       3.046   3.941  18.200  0.00  0.00    +0.000 OA
ATOM      8  C   UNL     1       2.737   4.094  19.604  0.00  0.00    +0.000 C 
ATOM      9  C   UNL     1       3.415   2.810  20.151  0.00  0.00    +0.000 C 
ATOM     10  C   UNL     1       2.226   1.831  20.295  0.00  0.00    +0.000 C 
ATOM     11  C   UNL     1       1.362   1.663  19.010  0.00  0.00    +0.000 C 
ATOM     12  C   UNL     1       0.583   2.987  18.900  0.00  0.00    +0.000 C 
ATOM     13  C   UNL     1       1.241   3.808  20.000  0.00  0.00    +0.000 C 
ATOM     14  C   UNL     1       1.324   2.735  21.118  0.00  0.00    +0.000 C 
ATOM     15  C   UNL     1       3.236   5.433  20.231  0.00  0.00    +0.000 C 
ATOM     16  H   UNL     1       2.164   7.500  21.278  0.00  0.00    +0.000 HD
ENDROOT
BRANCH   1  20
ATOM     17  C   UNL     1      -0.668  11.243  21.689  0.00  0.00    +0.000 A 
ATOM     18  C   UNL     1      -0.083  11.261  20.414  0.00  0.00    +0.000 A 
ATOM     19  C   UNL     1       0.715  10.186  19.977  0.00  0.00    +0.000 A 
ATOM     20  C   UNL     1       0.931   9.077  20.804  0.00  0.00    +0.000 A 
ATOM     21  C   UNL     1       0.302   9.040  22.048  0.00  0.00    +0.000 A 
ATOM     22  C   UNL     1      -0.481  10.107  22.485  0.00  0.00    +0.000 A 
ATOM     23  F   UNL     1      -1.026   9.986  23.701  0.00  0.00    +0.000 F 
BRANCH  17  28
ATOM     24  C   UNL     1      -4.165  14.775  22.323  0.00  0.00    +0.000 C 
ATOM     25  C   UNL     1      -2.954  13.933  22.452  0.00  0.00    +0.000 A 
ATOM     26  C   UNL     1      -1.899  14.033  23.376  0.00  0.00    +0.000 A 
ATOM     27  N   UNL     1      -0.970  13.092  23.214  0.00  0.00    +0.000 NA
ATOM     28  N   UNL     1      -1.412  12.356  22.154  0.00  0.00    +0.000 N 
ATOM     29  C   UNL     1      -2.614  12.841  21.684  0.00  0.00    +0.000 A 
ENDBRANCH  17  28
ENDBRANCH   1  20
TORSDOF 2
ENDMDL
MODEL 5
REMARK VINA RESULT:      -8.2      5.775      8.118
REMARK  Name = 
REMARK  3 active torsions:
REMARK  status: ('A' for Active; 'I' for Inactive)
REMARK    1  A    between atoms: C_1  and  C_2
REMARK    2  A    between atoms: N_5  and  C_6
REMARK    3  A    between atoms: C_9  and  N_10
REMARK                            x       y       z     vdW  Elec       q    Type
REMARK                         _______ _______ _______ _____ _____    ______ ____
ROOT
ATOM      1  N   UNL     1       7.656   7.794  18.382  0.00  0.00    +0.000 N 
ATOM      2  C   UNL     1       7.625   6.843  17.395  0.00  0.00    +0.000 C 
ATOM      3  O   UNL     1       7.980   7.050  16.236  0.00  0.00    +0.000 OA
ATOM      4  N   UNL     1       7.209   5.577  17.805  0.00  0.00    +0.000 N 
ATOM      5  C   UNL     1       7.217   4.535  16.788  0.00  0.00    +0.000 C 
ATOM      6  C   UNL     1       5.800   4.353  16.288  0.00  0.00    +0.000 C 
ATOM      7  O   UNL     1       4.927   3.968  17.344  0.00  0.00    +0.000 OA
ATOM      8  C   UNL     1       4.980   4.698  18.591  0.00  0.00    +0.000 C 
ATOM      9  C   UNL     1       4.359   3.631  19.531  0.00  0.00    +0.000 C 
ATOM     10  C   UNL     1       2.891   4.101  19.656  0.00  0.00    +0.000 C 
ATOM     11  C   UNL     1       2.163   4.333  18.298  0.00  0.00    +0.000 C 
ATOM     12  C   UNL     1       2.793   5.626  17.746  0.00  0.00    +0.000 C 
ATOM     13  C   UNL     1       3.922   5.852  18.742  0.00  0.00    +0.000 C 
ATOM     14  C   UNL     1       3.175   5.535  20.065  0.00  0.00    +0.000 C 
ATOM     15  C   UNL     1       6.407   5.190  18.988  0.00  0.00    +0.000 C 
ATOM     16  H   UNL     1       7.561   7.443  19.319  0.00  0.00    +0.000 HD
ENDROOT
BRANCH   1  20
ATOM     17  C   UNL     1       9.266  11.712  18.126  0.00  0.00    +0.000 A 
ATOM     18  C   UNL     1       8.129  11.393  17.368  0.00  0.00    +0.000 A 
ATOM     19  C   UNL     1       7.559  10.107  17.439  0.00  0.00    +0.000 A 
ATOM     20  C   UNL     1       8.111   9.128  18.274  0.00  0.00    +0.000 A 
ATOM     21  C   UNL     1       9.208   9.468  19.066  0.00  0.00    +0.000 A 
ATOM     22  C   UNL     1       9.778  10.738  18.991  0.00  0.00    +0.000 A 
ATOM     23  F   UNL     1      10.838  10.961  19.775  0.00  0.00    +0.000 F 
BRANCH  17  28
ATOM     24  C   UNL     1      10.535  16.526  18.688  0.00  0.00    +0.000 C 
ATOM     25  C   UNL     1      10.458  15.119  18.233  0.00  0.00    +0.000 A 
ATOM     26  C   UNL     1      11.234  14.457  17.266  0.00  0.00    +0.000 A 
ATOM     27  N   UNL     1      10.903  13.175  17.118  0.00  0.00    +0.000 NA
ATOM     28  N   UNL     1       9.879  12.983  17.999  0.00  0.00    +0.000 N 
ATOM     29  C   UNL     1       9.601  14.143  18.690  0.00  0.00    +0.000 A 
ENDBRANCH  17  28
ENDBRANCH   1  20
TORSDOF 2
ENDMDL
MODEL 6
REMARK VINA RESULT:      -8.2      3.130      9.858
REMARK  Name = 
REMARK  3 active torsions:
REMARK  status: ('A' for Active; 'I' for Inactive)
REMARK    1  A    between atoms: C_1  and  C_2
REMARK    2  A    between atoms: N_5  and  C_6
REMARK    3  A    between atoms: C_9  and  N_10
REMARK                            x       y       z     vdW  Elec       q    Type
REMARK                         _______ _______ _______ _____ _____    ______ ____
ROOT
ATOM      1  N   UNL     1       0.495  10.737  19.045  0.00  0.00    +0.000 N 
ATOM      2  C   UNL     1       0.972  12.021  19.065  0.00  0.00    +0.000 C 
ATOM      3  O   UNL     1       2.168  12.306  19.016  0.00  0.00    +0.000 OA
ATOM      4  N   UNL     1      -0.004  13.016  19.090  0.00  0.00    +0.000 N 
ATOM      5  C   UNL     1       0.475  14.391  19.058  0.00  0.00    +0.000 C 
ATOM      6  C   UNL     1       0.436  14.936  20.470  0.00  0.00    +0.000 C 
ATOM      7  O   UNL     1      -0.887  14.914  20.993  0.00  0.00    +0.000 OA
ATOM      8  C   UNL     1      -1.673  13.709  20.848  0.00  0.00    +0.000 C 
ATOM      9  C   UNL     1      -3.092  14.317  21.003  0.00  0.00    +0.000 C 
ATOM     10  C   UNL     1      -3.434  14.013  22.480  0.00  0.00    +0.000 C 
ATOM     11  C   UNL     1      -2.364  14.488  23.507  0.00  0.00    +0.000 C 
ATOM     12  C   UNL     1      -1.192  13.507  23.315  0.00  0.00    +0.000 C 
ATOM     13  C   UNL     1      -1.651  12.737  22.085  0.00  0.00    +0.000 C 
ATOM     14  C   UNL     1      -3.144  12.522  22.448  0.00  0.00    +0.000 C 
ATOM     15  C   UNL     1      -1.419  12.932  19.519  0.00  0.00    +0.000 C 
ATOM     16  H   UNL     1      -0.489  10.648  18.861  0.00  0.00    +0.000 HD
ENDROOT
BRANCH   1  20
ATOM     17  C   UNL     1       2.573   7.041  18.884  0.00  0.00    +0.000 A 
ATOM     18  C   UNL     1       2.667   7.921  17.796  0.00  0.00    +0.000 A 
ATOM     19  C   UNL     1       2.003   9.163  17.821  0.00  0.00    +0.000 A 
ATOM     20  C   UNL     1       1.245   9.544  18.935  0.00  0.00    +0.000 A 
ATOM     21  C   UNL     1       1.200   8.687  20.035  0.00  0.00    +0.000 A 
ATOM     22  C   UNL     1       1.851   7.455  20.009  0.00  0.00    +0.000 A 
ATOM     23  F   UNL     1       1.732   6.696  21.104  0.00  0.00    +0.000 F 
BRANCH  17  28
ATOM     24  C   UNL     1       3.546   2.198  18.044  0.00  0.00    +0.000 C 
ATOM     25  C   UNL     1       3.636   3.614  18.465  0.00  0.00    +0.000 A 
ATOM     26  C   UNL     1       4.695   4.284  19.101  0.00  0.00    +0.000 A 
ATOM     27  N   UNL     1       4.442   5.574  19.321  0.00  0.00    +0.000 NA
ATOM     28  N   UNL     1       3.184   5.763  18.828  0.00  0.00    +0.000 N 
ATOM     29  C   UNL     1       2.682   4.594  18.297  0.00  0.00    +0.000 A 
ENDBRANCH  17  28
ENDBRANCH   1  20
TORSDOF 2
ENDMDL
MODEL 7
REMARK VINA RESULT:      -8.2      3.116     10.071
REMARK  Name = 
REMARK  3 active torsions:
REMARK  status: ('A' for Active; 'I' for Inactive)
REMARK    1  A    between atoms: C_1  and  C_2
REMARK    2  A    between atoms: N_5  and  C_6
REMARK    3  A    between atoms: C_9  and  N_10
REMARK                            x       y       z     vdW  Elec       q    Type
REMARK                         _______ _______ _______ _____ _____    ______ ____
ROOT
ATOM      1  N   UNL     1       0.401  11.321  19.655  0.00  0.00    +0.000 N 
ATOM      2  C   UNL     1       0.809  12.316  20.505  0.00  0.00    +0.000 C 
ATOM      3  O   UNL     1       1.830  12.256  21.188  0.00  0.00    +0.000 OA
ATOM      4  N   UNL     1       0.006  13.456  20.510  0.00  0.00    +0.000 N 
ATOM      5  C   UNL     1       0.445  14.550  21.365  0.00  0.00    +0.000 C 
ATOM      6  C   UNL     1      -0.371  14.509  22.639  0.00  0.00    +0.000 C 
ATOM      7  O   UNL     1      -1.759  14.659  22.366  0.00  0.00    +0.000 OA
ATOM      8  C   UNL     1      -2.350  13.867  21.310  0.00  0.00    +0.000 C 
ATOM      9  C   UNL     1      -3.599  14.738  21.013  0.00  0.00    +0.000 C 
ATOM     10  C   UNL     1      -4.718  14.006  21.790  0.00  0.00    +0.000 C 
ATOM     11  C   UNL     1      -4.402  13.741  23.292  0.00  0.00    +0.000 C 
ATOM     12  C   UNL     1      -3.343  12.622  23.266  0.00  0.00    +0.000 C 
ATOM     13  C   UNL     1      -3.045  12.534  21.776  0.00  0.00    +0.000 C 
ATOM     14  C   UNL     1      -4.488  12.621  21.211  0.00  0.00    +0.000 C 
ATOM     15  C   UNL     1      -1.407  13.612  20.094  0.00  0.00    +0.000 C 
ATOM     16  H   UNL     1      -0.310  11.584  18.996  0.00  0.00    +0.000 HD
ENDROOT
BRANCH   1  20
ATOM     17  C   UNL     1       2.207   7.537  19.004  0.00  0.00    +0.000 A 
ATOM     18  C   UNL     1       2.317   8.522  18.011  0.00  0.00    +0.000 A 
ATOM     19  C   UNL     1       1.743   9.794  18.200  0.00  0.00    +0.000 A 
ATOM     20  C   UNL     1       1.061  10.100  19.384  0.00  0.00    +0.000 A 
ATOM     21  C   UNL     1       1.003   9.135  20.388  0.00  0.00    +0.000 A 
ATOM     22  C   UNL     1       1.564   7.873  20.200  0.00  0.00    +0.000 A 
ATOM     23  F   UNL     1       1.438   7.009  21.214  0.00  0.00    +0.000 F 
BRANCH  17  28
ATOM     24  C   UNL     1       2.876   2.813  17.470  0.00  0.00    +0.000 C 
ATOM     25  C   UNL     1       3.040   4.137  18.114  0.00  0.00    +0.000 A 
ATOM     26  C   UNL     1       4.098   4.610  18.909  0.00  0.00    +0.000 A 
ATOM     27  N   UNL     1       3.926   5.868  19.314  0.00  0.00    +0.000 NA
ATOM     28  N   UNL     1       2.724   6.236  18.783  0.00  0.00    +0.000 N 
ATOM     29  C   UNL     1       2.176   5.207  18.047  0.00  0.00    +0.000 A 
ENDBRANCH  17  28
ENDBRANCH   1  20
TORSDOF 2
ENDMDL
MODEL 8
REMARK VINA RESULT:      -8.1      2.112      2.710
REMARK  Name = 
REMARK  3 active torsions:
REMARK  status: ('A' for Active; 'I' for Inactive)
REMARK    1  A    between atoms: C_1  and  C_2
REMARK    2  A    between atoms: N_5  and  C_6
REMARK    3  A    between atoms: C_9  and  N_10
REMARK                            x       y       z     vdW  Elec       q    Type
REMARK                         _______ _______ _______ _____ _____    ______ ____
ROOT
ATOM      1  N   UNL     1       1.831   8.325  18.306  0.00  0.00    +0.000 N 
ATOM      2  C   UNL     1       2.154   7.423  19.287  0.00  0.00    +0.000 C 
ATOM      3  O   UNL     1       2.184   7.698  20.485  0.00  0.00    +0.000 OA
ATOM      4  N   UNL     1       2.400   6.126  18.841  0.00  0.00    +0.000 N 
ATOM      5  C   UNL     1       2.694   5.135  19.867  0.00  0.00    +0.000 C 
ATOM      6  C   UNL     1       4.194   4.931  19.910  0.00  0.00    +0.000 C 
ATOM      7  O   UNL     1       4.685   4.466  18.658  0.00  0.00    +0.000 OA
ATOM      8  C   UNL     1       4.256   5.135  17.450  0.00  0.00    +0.000 C 
ATOM      9  C   UNL     1       4.535   4.003  16.426  0.00  0.00    +0.000 C 
ATOM     10  C   UNL     1       5.898   4.417  15.823  0.00  0.00    +0.000 C 
ATOM     11  C   UNL     1       7.017   4.691  16.871  0.00  0.00    +0.000 C 
ATOM     12  C   UNL     1       6.613   6.030  17.517  0.00  0.00    +0.000 C 
ATOM     13  C   UNL     1       5.233   6.245  16.911  0.00  0.00    +0.000 C 
ATOM     14  C   UNL     1       5.523   5.839  15.442  0.00  0.00    +0.000 C 
ATOM     15  C   UNL     1       2.786   5.654  17.490  0.00  0.00    +0.000 C 
ATOM     16  H   UNL     1       1.622   7.925  17.408  0.00  0.00    +0.000 HD
ENDROOT
BRANCH   1  20
ATOM     17  C   UNL     1       0.524  12.303  18.993  0.00  0.00    +0.000 A 
ATOM     18  C   UNL     1       1.825  12.088  18.515  0.00  0.00    +0.000 A 
ATOM     19  C   UNL     1       2.288  10.782  18.262  0.00  0.00    +0.000 A 
ATOM     20  C   UNL     1       1.454   9.677  18.474  0.00  0.00    +0.000 A 
ATOM     21  C   UNL     1       0.144   9.901  18.896  0.00  0.00    +0.000 A 
ATOM     22  C   UNL     1      -0.312  11.192  19.155  0.00  0.00    +0.000 A 
ATOM     23  F   UNL     1      -1.578  11.303  19.575  0.00  0.00    +0.000 F 
BRANCH  17  28
ATOM     24  C   UNL     1      -0.876  17.108  18.760  0.00  0.00    +0.000 C 
ATOM     25  C   UNL     1      -0.541  15.746  19.232  0.00  0.00    +0.000 A 
ATOM     26  C   UNL     1      -0.616  15.215  20.532  0.00  0.00    +0.000 A 
ATOM     27  N   UNL     1      -0.250  13.936  20.597  0.00  0.00    +0.000 NA
ATOM     28  N   UNL     1       0.084  13.611  19.314  0.00  0.00    +0.000 N 
ATOM     29  C   UNL     1      -0.093  14.688  18.472  0.00  0.00    +0.000 A 
ENDBRANCH  17  28
ENDBRANCH   1  20
TORSDOF 2
ENDMDL
MODEL 9
REMARK VINA RESULT:      -8.1      5.416      7.852
REMARK  Name = 
REMARK  3 active torsions:
REMARK  status: ('A' for Active; 'I' for Inactive)
REMARK    1  A    between atoms: C_1  and  C_2
REMARK    2  A    between atoms: N_5  and  C_6
REMARK    3  A    between atoms: C_9  and  N_10
REMARK                            x       y       z     vdW  Elec       q    Type
REMARK                         _______ _______ _______ _____ _____    ______ ____
ROOT
ATOM      1  N   UNL     1       7.740   7.615  18.437  0.00  0.00    +0.000 N 
ATOM      2  C   UNL     1       7.609   6.754  17.379  0.00  0.00    +0.000 C 
ATOM      3  O   UNL     1       7.947   7.027  16.229  0.00  0.00    +0.000 OA
ATOM      4  N   UNL     1       7.107   5.493  17.700  0.00  0.00    +0.000 N 
ATOM      5  C   UNL     1       7.006   4.540  16.605  0.00  0.00    +0.000 C 
ATOM      6  C   UNL     1       5.566   4.506  16.139  0.00  0.00    +0.000 C 
ATOM      7  O   UNL     1       4.695   4.103  17.190  0.00  0.00    +0.000 OA
ATOM      8  C   UNL     1       4.838   4.723  18.488  0.00  0.00    +0.000 C 
ATOM      9  C   UNL     1       4.162   3.633  19.361  0.00  0.00    +0.000 C 
ATOM     10  C   UNL     1       2.738   4.200  19.571  0.00  0.00    +0.000 C 
ATOM     11  C   UNL     1       1.995   4.596  18.261  0.00  0.00    +0.000 C 
ATOM     12  C   UNL     1       2.708   5.879  17.793  0.00  0.00    +0.000 C 
ATOM     13  C   UNL     1       3.877   5.938  18.765  0.00  0.00    +0.000 C 
ATOM     14  C   UNL     1       3.144   5.571  20.083  0.00  0.00    +0.000 C 
ATOM     15  C   UNL     1       6.309   5.072  18.875  0.00  0.00    +0.000 C 
ATOM     16  H   UNL     1       7.643   7.197  19.345  0.00  0.00    +0.000 HD
ENDROOT
BRANCH   1  20
ATOM     17  C   UNL     1       9.161  11.612  18.327  0.00  0.00    +0.000 A 
ATOM     18  C   UNL     1       9.833  10.673  19.124  0.00  0.00    +0.000 A 
ATOM     19  C   UNL     1       9.399   9.334  19.173  0.00  0.00    +0.000 A 
ATOM     20  C   UNL     1       8.294   8.916  18.420  0.00  0.00    +0.000 A 
ATOM     21  C   UNL     1       7.665   9.842  17.589  0.00  0.00    +0.000 A 
ATOM     22  C   UNL     1       8.089  11.168  17.545  0.00  0.00    +0.000 A 
ATOM     23  F   UNL     1       7.408  11.984  16.732  0.00  0.00    +0.000 F 
BRANCH  17  28
ATOM     24  C   UNL     1      11.311  16.010  17.258  0.00  0.00    +0.000 C 
ATOM     25  C   UNL     1      10.501  14.936  17.876  0.00  0.00    +0.000 A 
ATOM     26  C   UNL     1       9.611  15.010  18.962  0.00  0.00    +0.000 A 
ATOM     27  N   UNL     1       9.033  13.843  19.245  0.00  0.00    +0.000 NA
ATOM     28  N   UNL     1       9.557  12.973  18.334  0.00  0.00    +0.000 N 
ATOM     29  C   UNL     1      10.439  13.615  17.491  0.00  0.00    +0.000 A 
ENDBRANCH  17  28
ENDBRANCH   1  20
TORSDOF 2
ENDMDL
