MODEL 1
REMARK VINA RESULT:      -9.2      0.000      0.000
REMARK  Name = 
REMARK  4 active torsions:
REMARK  status: ('A' for Active; 'I' for Inactive)
REMARK    1  A    between atoms: C_2  and  C_10
REMARK    2  A    between atoms: N_3  and  C_4
REMARK    3  A    between atoms: C_14  and  C_15
REMARK    4  A    between atoms: C_15  and  N_16
REMARK                            x       y       z     vdW  Elec       q    Type
REMARK                         _______ _______ _______ _____ _____    ______ ____
ROOT
ATOM      1  C   UNL     1       7.530   7.348  18.038  0.00  0.00    +0.000 A 
ATOM      2  C   UNL     1       8.223   6.337  18.715  0.00  0.00    +0.000 A 
ATOM      3  C   UNL     1       7.741   5.030  18.688  0.00  0.00    +0.000 A 
ATOM      4  C   UNL     1       6.563   4.729  18.002  0.00  0.00    +0.000 A 
ATOM      5  C   UNL     1       5.838   5.739  17.355  0.00  0.00    +0.000 A 
ATOM      6  C   UNL     1       6.330   7.043  17.370  0.00  0.00    +0.000 A 
ENDROOT
BRANCH   1   8
ATOM      7  O   UNL     1       7.566   9.506  17.172  0.00  0.00    +0.000 OA
ATOM      8  C   UNL     1       7.989   8.759  18.048  0.00  0.00    +0.000 C 
ATOM      9  N   UNL     1       8.914   9.071  19.030  0.00  0.00    +0.000 N 
ATOM     10  H   UNL     1       9.309   8.300  19.552  0.00  0.00    +0.000 HD
BRANCH   9  11
ATOM     11  C   UNL     1       9.514  10.330  19.232  0.00  0.00    +0.000 A 
ATOM     12  C   UNL     1      10.114  11.067  18.208  0.00  0.00    +0.000 A 
ATOM     13  C   UNL     1      10.743  12.282  18.486  0.00  0.00    +0.000 A 
ATOM     14  C   UNL     1      10.771  12.773  19.788  0.00  0.00    +0.000 A 
ATOM     15  C   UNL     1      10.145  12.063  20.811  0.00  0.00    +0.000 A 
ATOM     16  C   UNL     1       9.510  10.851  20.531  0.00  0.00    +0.000 A 
ENDBRANCH   9  11
ENDBRANCH   1   8
BRANCH   5  17
ATOM     17  C   UNL     1       4.495   5.440  16.732  0.00  0.00    +0.000 C 
BRANCH  17  18
ATOM     18  N   UNL     1       3.409   5.056  17.672  0.00  0.00    +0.000 NA
ATOM     19  C   UNL     1       3.678   5.619  19.007  0.00  0.00    +0.000 C 
ATOM     20  C   UNL     1       2.931   4.995  20.183  0.00  0.00    +0.000 C 
ATOM     21  C   UNL     1       2.896   3.471  20.151  0.00  0.00    +0.000 C 
ATOM     22  C   UNL     1       1.703   2.990  20.946  0.00  0.00    +0.000 C 
ATOM     23  O   UNL     1       1.639   2.855  22.154  0.00  0.00    +0.000 OA
ATOM     24  N   UNL     1       0.656   2.808  20.060  0.00  0.00    +0.000 N 
ATOM     25  C   UNL     1       1.032   3.112  18.707  0.00  0.00    +0.000 C 
ATOM     26  C   UNL     1       2.540   2.936  18.763  0.00  0.00    +0.000 C 
ATOM     27  C   UNL     1       3.341   3.587  17.655  0.00  0.00    +0.000 C 
ATOM     28  H   UNL     1      -0.273   2.586  20.392  0.00  0.00    +0.000 HD
ENDBRANCH  17  18
ENDBRANCH   5  17
TORSDOF 4
ENDMDL
MODEL 2
REMARK VINA RESULT:      -8.7      1.108      1.215
REMARK  Name = 
REMARK  4 active torsions:
REMARK  status: ('A' for Active; 'I' for Inactive)
REMARK    1  A    between atoms: C_2  and  C_10
REMARK    2  A    between atoms: N_3  and  C_4
REMARK    3  A    between atoms: C_14  and  C_15
REMARK    4  A    between atoms: C_15  and  N_16
REMARK                            x       y       z     vdW  Elec       q    Type
REMARK                         _______ _______ _______ _____ _____    ______ ____
ROOT
ATOM      1  C   UNL     1       8.006   7.829  18.246  0.00  0.00    +0.000 A 
ATOM      2  C   UNL     1       8.458   6.871  19.163  0.00  0.00    +0.000 A 
ATOM      3  C   UNL     1       8.048   5.545  19.035  0.00  0.00    +0.000 A 
ATOM      4  C   UNL     1       7.178   5.173  18.007  0.00  0.00    +0.000 A 
ATOM      5  C   UNL     1       6.687   6.130  17.109  0.00  0.00    +0.000 A 
ATOM      6  C   UNL     1       7.110   7.454  17.229  0.00  0.00    +0.000 A 
ENDROOT
BRANCH   1   8
ATOM      7  O   UNL     1       7.962  10.031  17.499  0.00  0.00    +0.000 OA
ATOM      8  C   UNL     1       8.397   9.257  18.346  0.00  0.00    +0.000 C 
ATOM      9  N   UNL     1       9.280   9.558  19.368  0.00  0.00    +0.000 N 
ATOM     10  H   UNL     1       9.699   8.778  19.859  0.00  0.00    +0.000 HD
BRANCH   9  11
ATOM     11  C   UNL     1       9.814  10.830  19.655  0.00  0.00    +0.000 A 
ATOM     12  C   UNL     1      10.757  11.467  18.844  0.00  0.00    +0.000 A 
ATOM     13  C   UNL     1      11.290  12.702  19.215  0.00  0.00    +0.000 A 
ATOM     14  C   UNL     1      10.881  13.314  20.396  0.00  0.00    +0.000 A 
ATOM     15  C   UNL     1       9.916  12.704  21.195  0.00  0.00    +0.000 A 
ATOM     16  C   UNL     1       9.377  11.471  20.819  0.00  0.00    +0.000 A 
ENDBRANCH   9  11
ENDBRANCH   1   8
BRANCH   5  17
ATOM     17  C   UNL     1       5.642   5.757  16.086  0.00  0.00    +0.000 C 
BRANCH  17  18
ATOM     18  N   UNL     1       4.319   5.342  16.624  0.00  0.00    +0.000 NA
ATOM     19  C   UNL     1       3.806   6.373  17.544  0.00  0.00    +0.000 C 
ATOM     20  C   UNL     1       2.699   5.949  18.506  0.00  0.00    +0.000 C 
ATOM     21  C   UNL     1       2.943   4.597  19.169  0.00  0.00    +0.000 C 
ATOM     22  C   UNL     1       1.616   4.012  19.594  0.00  0.00    +0.000 C 
ATOM     23  O   UNL     1       0.997   4.272  20.610  0.00  0.00    +0.000 OA
ATOM     24  N   UNL     1       1.179   3.182  18.577  0.00  0.00    +0.000 N 
ATOM     25  C   UNL     1       2.107   3.135  17.481  0.00  0.00    +0.000 C 
ATOM     26  C   UNL     1       3.403   3.543  18.161  0.00  0.00    +0.000 C 
ATOM     27  C   UNL     1       4.518   4.031  17.260  0.00  0.00    +0.000 C 
ATOM     28  H   UNL     1       0.259   2.764  18.606  0.00  0.00    +0.000 HD
ENDBRANCH  17  18
ENDBRANCH   5  17
TORSDOF 4
ENDMDL
MODEL 3
REMARK VINA RESULT:      -8.2      4.506      7.781
REMARK  Name = 
REMARK  4 active torsions:
REMARK  status: ('A' for Active; 'I' for Inactive)
REMARK    1  A    between atoms: C_2  and  C_10
REMARK    2  A    between atoms: N_3  and  C_4
REMARK    3  A    between atoms: C_14  and  C_15
REMARK    4  A    between atoms: C_15  and  N_16
REMARK                            x       y       z     vdW  Elec       q    Type
REMARK                         _______ _______ _______ _____ _____    ______ ____
ROOT
ATOM      1  C   UNL     1       1.824   5.962  20.379  0.00  0.00    +0.000 A 
ATOM      2  C   UNL     1       0.882   4.957  20.635  0.00  0.00    +0.000 A 
ATOM      3  C   UNL     1       1.253   3.618  20.528  0.00  0.00    +0.000 A 
ATOM      4  C   UNL     1       2.553   3.276  20.152  0.00  0.00    +0.000 A 
ATOM      5  C   UNL     1       3.493   4.272  19.854  0.00  0.00    +0.000 A 
ATOM      6  C   UNL     1       3.125   5.611  19.976  0.00  0.00    +0.000 A 
ENDROOT
BRANCH   1   8
ATOM      7  O   UNL     1       2.154   8.192  19.809  0.00  0.00    +0.000 OA
ATOM      8  C   UNL     1       1.479   7.402  20.461  0.00  0.00    +0.000 C 
ATOM      9  N   UNL     1       0.450   7.714  21.333  0.00  0.00    +0.000 N 
ATOM     10  H   UNL     1       0.124   6.976  21.944  0.00  0.00    +0.000 HD
BRANCH   9  11
ATOM     11  C   UNL     1      -0.046   9.005  21.601  0.00  0.00    +0.000 A 
ATOM     12  C   UNL     1      -0.297   9.477  22.892  0.00  0.00    +0.000 A 
ATOM     13  C   UNL     1      -0.844  10.746  23.088  0.00  0.00    +0.000 A 
ATOM     14  C   UNL     1      -1.138  11.557  21.995  0.00  0.00    +0.000 A 
ATOM     15  C   UNL     1      -0.859  11.110  20.705  0.00  0.00    +0.000 A 
ATOM     16  C   UNL     1      -0.305   9.842  20.510  0.00  0.00    +0.000 A 
ENDBRANCH   9  11
ENDBRANCH   1   8
BRANCH   5  17
ATOM     17  C   UNL     1       4.855   3.904  19.315  0.00  0.00    +0.000 C 
BRANCH  17  18
ATOM     18  N   UNL     1       5.210   4.474  17.988  0.00  0.00    +0.000 NA
ATOM     19  C   UNL     1       4.339   3.900  16.947  0.00  0.00    +0.000 C 
ATOM     20  C   UNL     1       4.817   4.025  15.502  0.00  0.00    +0.000 C 
ATOM     21  C   UNL     1       6.297   3.707  15.313  0.00  0.00    +0.000 C 
ATOM     22  C   UNL     1       6.793   4.402  14.066  0.00  0.00    +0.000 C 
ATOM     23  O   UNL     1       6.678   4.009  12.919  0.00  0.00    +0.000 OA
ATOM     24  N   UNL     1       7.333   5.616  14.449  0.00  0.00    +0.000 N 
ATOM     25  C   UNL     1       7.263   5.815  15.870  0.00  0.00    +0.000 C 
ATOM     26  C   UNL     1       7.165   4.385  16.374  0.00  0.00    +0.000 C 
ATOM     27  C   UNL     1       6.638   4.195  17.781  0.00  0.00    +0.000 C 
ATOM     28  H   UNL     1       7.633   6.292  13.760  0.00  0.00    +0.000 HD
ENDBRANCH  17  18
ENDBRANCH   5  17
TORSDOF 4
ENDMDL
MODEL 4
REMARK VINA RESULT:      -8.1      5.946      8.050
REMARK  Name = 
REMARK  4 active torsions:
REMARK  status: ('A' for Active; 'I' for Inactive)
REMARK    1  A    between atoms: C_2  and  C_10
REMARK    2  A    between atoms: N_3  and  C_4
REMARK    3  A    between atoms: C_14  and  C_15
REMARK    4  A    between atoms: C_15  and  N_16
REMARK                            x       y       z     vdW  Elec       q    Type
REMARK                         _______ _______ _______ _____ _____    ______ ____
ROOT
ATOM      1  C   UNL     1       2.126   7.308  19.259  0.00  0.00    +0.000 A 
ATOM      2  C   UNL     1       1.610   7.052  20.536  0.00  0.00    +0.000 A 
ATOM      3  C   UNL     1       0.850   8.025  21.182  0.00  0.00    +0.000 A 
ATOM      4  C   UNL     1       0.615   9.257  20.569  0.00  0.00    +0.000 A 
ATOM      5  C   UNL     1       1.161   9.541  19.310  0.00  0.00    +0.000 A 
ATOM      6  C   UNL     1       1.908   8.561  18.657  0.00  0.00    +0.000 A 
ENDROOT
BRANCH   1   8
ATOM      7  O   UNL     1       2.528   5.169  18.438  0.00  0.00    +0.000 OA
ATOM      8  C   UNL     1       2.956   6.315  18.532  0.00  0.00    +0.000 C 
ATOM      9  N   UNL     1       4.179   6.783  18.084  0.00  0.00    +0.000 N 
ATOM     10  H   UNL     1       4.470   7.696  18.410  0.00  0.00    +0.000 HD
BRANCH   9  11
ATOM     11  C   UNL     1       5.149   6.033  17.391  0.00  0.00    +0.000 A 
ATOM     12  C   UNL     1       6.226   5.404  18.021  0.00  0.00    +0.000 A 
ATOM     13  C   UNL     1       7.187   4.724  17.270  0.00  0.00    +0.000 A 
ATOM     14  C   UNL     1       7.074   4.661  15.884  0.00  0.00    +0.000 A 
ATOM     15  C   UNL     1       5.985   5.255  15.249  0.00  0.00    +0.000 A 
ATOM     16  C   UNL     1       5.021   5.930  16.002  0.00  0.00    +0.000 A 
ENDBRANCH   9  11
ENDBRANCH   1   8
BRANCH   5  17
ATOM     17  C   UNL     1       1.025  10.919  18.708  0.00  0.00    +0.000 C 
BRANCH  17  18
ATOM     18  N   UNL     1      -0.281  11.227  18.067  0.00  0.00    +0.000 NA
ATOM     19  C   UNL     1      -1.149  11.944  19.019  0.00  0.00    +0.000 C 
ATOM     20  C   UNL     1      -2.644  11.964  18.709  0.00  0.00    +0.000 C 
ATOM     21  C   UNL     1      -3.199  10.616  18.262  0.00  0.00    +0.000 C 
ATOM     22  C   UNL     1      -4.448  10.845  17.442  0.00  0.00    +0.000 C 
ATOM     23  O   UNL     1      -5.572  11.041  17.867  0.00  0.00    +0.000 OA
ATOM     24  N   UNL     1      -4.074  10.880  16.111  0.00  0.00    +0.000 N 
ATOM     25  C   UNL     1      -2.662  10.678  15.939  0.00  0.00    +0.000 C 
ATOM     26  C   UNL     1      -2.301   9.946  17.221  0.00  0.00    +0.000 C 
ATOM     27  C   UNL     1      -0.838   9.945  17.613  0.00  0.00    +0.000 C 
ATOM     28  H   UNL     1      -4.740  11.125  15.390  0.00  0.00    +0.000 HD
ENDBRANCH  17  18
ENDBRANCH   5  17
TORSDOF 4
ENDMDL
MODEL 5
REMARK VINA RESULT:      -8.1      1.250      2.028
REMARK  Name = 
REMARK  4 active torsions:
REMARK  status: ('A' for Active; 'I' for Inactive)
REMARK    1  A    between atoms: C_2  and  C_10
REMARK    2  A    between atoms: N_3  and  C_4
REMARK    3  A    between atoms: C_14  and  C_15
REMARK    4  A    between atoms: C_15  and  N_16
REMARK                            x       y       z     vdW  Elec       q    Type
REMARK                         _______ _______ _______ _____ _____    ______ ____
ROOT
ATOM      1  C   UNL     1       7.940   8.183  18.223  0.00  0.00    +0.000 A 
ATOM      2  C   UNL     1       8.638   7.291  19.047  0.00  0.00    +0.000 A 
ATOM      3  C   UNL     1       8.207   5.970  19.158  0.00  0.00    +0.000 A 
ATOM      4  C   UNL     1       7.074   5.539  18.464  0.00  0.00    +0.000 A 
ATOM      5  C   UNL     1       6.344   6.433  17.668  0.00  0.00    +0.000 A 
ATOM      6  C   UNL     1       6.785   7.750  17.547  0.00  0.00    +0.000 A 
ENDROOT
BRANCH   1   8
ATOM      7  O   UNL     1       7.721  10.302  17.289  0.00  0.00    +0.000 OA
ATOM      8  C   UNL     1       8.345   9.603  18.081  0.00  0.00    +0.000 C 
ATOM      9  N   UNL     1       9.448   9.980  18.828  0.00  0.00    +0.000 N 
ATOM     10  H   UNL     1       9.971   9.241  19.281  0.00  0.00    +0.000 HD
BRANCH   9  11
ATOM     11  C   UNL     1      10.037  11.260  18.849  0.00  0.00    +0.000 A 
ATOM     12  C   UNL     1       9.832  12.181  19.879  0.00  0.00    +0.000 A 
ATOM     13  C   UNL     1      10.397  13.456  19.812  0.00  0.00    +0.000 A 
ATOM     14  C   UNL     1      11.179  13.817  18.718  0.00  0.00    +0.000 A 
ATOM     15  C   UNL     1      11.418  12.893  17.702  0.00  0.00    +0.000 A 
ATOM     16  C   UNL     1      10.857  11.616  17.773  0.00  0.00    +0.000 A 
ENDBRANCH   9  11
ENDBRANCH   1   8
BRANCH   5  17
ATOM     17  C   UNL     1       5.044   6.005  17.030  0.00  0.00    +0.000 C 
BRANCH  17  18
ATOM     18  N   UNL     1       4.266   4.969  17.760  0.00  0.00    +0.000 NA
ATOM     19  C   UNL     1       3.907   3.873  16.842  0.00  0.00    +0.000 C 
ATOM     20  C   UNL     1       2.770   2.952  17.278  0.00  0.00    +0.000 C 
ATOM     21  C   UNL     1       1.568   3.690  17.860  0.00  0.00    +0.000 C 
ATOM     22  C   UNL     1       0.808   2.751  18.768  0.00  0.00    +0.000 C 
ATOM     23  O   UNL     1      -0.011   1.915  18.431  0.00  0.00    +0.000 OA
ATOM     24  N   UNL     1       1.269   2.950  20.057  0.00  0.00    +0.000 N 
ATOM     25  C   UNL     1       2.284   3.965  20.118  0.00  0.00    +0.000 C 
ATOM     26  C   UNL     1       1.990   4.766  18.861  0.00  0.00    +0.000 C 
ATOM     27  C   UNL     1       3.104   5.653  18.345  0.00  0.00    +0.000 C 
ATOM     28  H   UNL     1       0.969   2.352  20.815  0.00  0.00    +0.000 HD
ENDBRANCH  17  18
ENDBRANCH   5  17
TORSDOF 4
ENDMDL
MODEL 6
REMARK VINA RESULT:      -8.0      6.441      9.203
REMARK  Name = 
REMARK  4 active torsions:
REMARK  status: ('A' for Active; 'I' for Inactive)
REMARK    1  A    between atoms: C_2  and  C_10
REMARK    2  A    between atoms: N_3  and  C_4
REMARK    3  A    between atoms: C_14  and  C_15
REMARK    4  A    between atoms: C_15  and  N_16
REMARK                            x       y       z     vdW  Elec       q    Type
REMARK                         _______ _______ _______ _____ _____    ______ ____
ROOT
ATOM      1  C   UNL     1       1.643   8.154  19.858  0.00  0.00    +0.000 A 
ATOM      2  C   UNL     1       1.320   8.115  21.220  0.00  0.00    +0.000 A 
ATOM      3  C   UNL     1       0.663   9.195  21.807  0.00  0.00    +0.000 A 
ATOM      4  C   UNL     1       0.342  10.321  21.046  0.00  0.00    +0.000 A 
ATOM      5  C   UNL     1       0.696  10.390  19.691  0.00  0.00    +0.000 A 
ATOM      6  C   UNL     1       1.339   9.301  19.102  0.00  0.00    +0.000 A 
ENDROOT
BRANCH   1   8
ATOM      7  O   UNL     1       3.124   7.319  18.272  0.00  0.00    +0.000 OA
ATOM      8  C   UNL     1       2.356   7.040  19.187  0.00  0.00    +0.000 C 
ATOM      9  N   UNL     1       2.023   5.772  19.633  0.00  0.00    +0.000 N 
ATOM     10  H   UNL     1       1.230   5.697  20.256  0.00  0.00    +0.000 HD
BRANCH   9  11
ATOM     11  C   UNL     1       2.543   4.558  19.142  0.00  0.00    +0.000 A 
ATOM     12  C   UNL     1       3.603   3.878  19.747  0.00  0.00    +0.000 A 
ATOM     13  C   UNL     1       4.111   2.709  19.178  0.00  0.00    +0.000 A 
ATOM     14  C   UNL     1       3.558   2.206  18.003  0.00  0.00    +0.000 A 
ATOM     15  C   UNL     1       2.478   2.858  17.411  0.00  0.00    +0.000 A 
ATOM     16  C   UNL     1       1.966   4.024  17.985  0.00  0.00    +0.000 A 
ENDBRANCH   9  11
ENDBRANCH   1   8
BRANCH   5  17
ATOM     17  C   UNL     1       0.474  11.658  18.904  0.00  0.00    +0.000 C 
BRANCH  17  18
ATOM     18  N   UNL     1      -0.865  11.814  18.278  0.00  0.00    +0.000 NA
ATOM     19  C   UNL     1      -1.829  12.313  19.275  0.00  0.00    +0.000 C 
ATOM     20  C   UNL     1      -3.311  12.131  18.954  0.00  0.00    +0.000 C 
ATOM     21  C   UNL     1      -3.655  10.753  18.398  0.00  0.00    +0.000 C 
ATOM     22  C   UNL     1      -4.927  10.854  17.588  0.00  0.00    +0.000 C 
ATOM     23  O   UNL     1      -6.067  10.842  18.017  0.00  0.00    +0.000 OA
ATOM     24  N   UNL     1      -4.568  11.050  16.267  0.00  0.00    +0.000 N 
ATOM     25  C   UNL     1      -3.142  11.079  16.093  0.00  0.00    +0.000 C 
ATOM     26  C   UNL     1      -2.670  10.312  17.316  0.00  0.00    +0.000 C 
ATOM     27  C   UNL     1      -1.222  10.502  17.720  0.00  0.00    +0.000 C 
ATOM     28  H   UNL     1      -5.265  11.247  15.562  0.00  0.00    +0.000 HD
ENDBRANCH  17  18
ENDBRANCH   5  17
TORSDOF 4
ENDMDL
MODEL 7
REMARK VINA RESULT:      -8.0      6.127      6.999
REMARK  Name = 
REMARK  4 active torsions:
REMARK  status: ('A' for Active; 'I' for Inactive)
REMARK    1  A    between atoms: C_2  and  C_10
REMARK    2  A    between atoms: N_3  and  C_4
REMARK    3  A    between atoms: C_14  and  C_15
REMARK    4  A    between atoms: C_15  and  N_16
REMARK                            x       y       z     vdW  Elec       q    Type
REMARK                         _______ _______ _______ _____ _____    ______ ____
ROOT
ATOM      1  C   UNL     1       0.626  10.415  19.844  0.00  0.00    +0.000 A 
ATOM      2  C   UNL     1       0.180   9.989  21.101  0.00  0.00    +0.000 A 
ATOM      3  C   UNL     1       0.557   8.736  21.581  0.00  0.00    +0.000 A 
ATOM      4  C   UNL     1       1.364   7.900  20.807  0.00  0.00    +0.000 A 
ATOM      5  C   UNL     1       1.783   8.298  19.530  0.00  0.00    +0.000 A 
ATOM      6  C   UNL     1       1.418   9.558  19.058  0.00  0.00    +0.000 A 
ENDROOT
BRANCH   1   8
ATOM      7  O   UNL     1      -0.548  11.743  18.338  0.00  0.00    +0.000 OA
ATOM      8  C   UNL     1       0.241  11.731  19.277  0.00  0.00    +0.000 C 
ATOM      9  N   UNL     1       0.877  12.824  19.840  0.00  0.00    +0.000 N 
ATOM     10  H   UNL     1       1.646  12.636  20.470  0.00  0.00    +0.000 HD
BRANCH   9  11
ATOM     11  C   UNL     1       0.699  14.171  19.463  0.00  0.00    +0.000 A 
ATOM     12  C   UNL     1      -0.516  14.849  19.591  0.00  0.00    +0.000 A 
ATOM     13  C   UNL     1      -0.642  16.165  19.144  0.00  0.00    +0.000 A 
ATOM     14  C   UNL     1       0.447  16.817  18.573  0.00  0.00    +0.000 A 
ATOM     15  C   UNL     1       1.673  16.161  18.473  0.00  0.00    +0.000 A 
ATOM     16  C   UNL     1       1.800  14.846  18.926  0.00  0.00    +0.000 A 
ENDBRANCH   9  11
ENDBRANCH   1   8
BRANCH   5  17
ATOM     17  C   UNL     1       2.538   7.341  18.639  0.00  0.00    +0.000 C 
BRANCH  17  18
ATOM     18  N   UNL     1       2.455   5.902  19.003  0.00  0.00    +0.000 NA
ATOM     19  C   UNL     1       3.784   5.411  19.409  0.00  0.00    +0.000 C 
ATOM     20  C   UNL     1       3.992   3.898  19.402  0.00  0.00    +0.000 C 
ATOM     21  C   UNL     1       3.427   3.204  18.166  0.00  0.00    +0.000 C 
ATOM     22  C   UNL     1       3.142   1.758  18.502  0.00  0.00    +0.000 C 
ATOM     23  O   UNL     1       3.943   0.842  18.512  0.00  0.00    +0.000 OA
ATOM     24  N   UNL     1       1.815   1.670  18.881  0.00  0.00    +0.000 N 
ATOM     25  C   UNL     1       1.150   2.942  18.823  0.00  0.00    +0.000 C 
ATOM     26  C   UNL     1       2.019   3.695  17.830  0.00  0.00    +0.000 C 
ATOM     27  C   UNL     1       1.901   5.205  17.833  0.00  0.00    +0.000 C 
ATOM     28  H   UNL     1       1.435   0.807  19.247  0.00  0.00    +0.000 HD
ENDBRANCH  17  18
ENDBRANCH   5  17
TORSDOF 4
ENDMDL
MODEL 8
REMARK VINA RESULT:      -8.0      3.728      7.356
REMARK  Name = 
REMARK  4 active torsions:
REMARK  status: ('A' for Active; 'I' for Inactive)
REMARK    1  A    between atoms: C_2  and  C_10
REMARK    2  A    between atoms: N_3  and  C_4
REMARK    3  A    between atoms: C_14  and  C_15
REMARK    4  A    between atoms: C_15  and  N_16
REMARK                            x       y       z     vdW  Elec       q    Type
REMARK                         _______ _______ _______ _____ _____    ______ ____
ROOT
ATOM      1  C   UNL     1       1.801   5.189  20.180  0.00  0.00    +0.000 A 
ATOM      2  C   UNL     1       1.081   4.348  21.039  0.00  0.00    +0.000 A 
ATOM      3  C   UNL     1       1.177   2.966  20.894  0.00  0.00    +0.000 A 
ATOM      4  C   UNL     1       1.975   2.417  19.887  0.00  0.00    +0.000 A 
ATOM      5  C   UNL     1       2.668   3.248  18.996  0.00  0.00    +0.000 A 
ATOM      6  C   UNL     1       2.582   4.631  19.152  0.00  0.00    +0.000 A 
ENDROOT
BRANCH   1   8
ATOM      7  O   UNL     1       2.586   7.327  19.710  0.00  0.00    +0.000 OA
ATOM      8  C   UNL     1       1.722   6.667  20.279  0.00  0.00    +0.000 C 
ATOM      9  N   UNL     1       0.696   7.152  21.072  0.00  0.00    +0.000 N 
ATOM     10  H   UNL     1       0.189   6.478  21.630  0.00  0.00    +0.000 HD
BRANCH   9  11
ATOM     11  C   UNL     1       0.426   8.509  21.339  0.00  0.00    +0.000 A 
ATOM     12  C   UNL     1      -0.105   8.961  22.550  0.00  0.00    +0.000 A 
ATOM     13  C   UNL     1      -0.405  10.312  22.731  0.00  0.00    +0.000 A 
ATOM     14  C   UNL     1      -0.170  11.223  21.705  0.00  0.00    +0.000 A 
ATOM     15  C   UNL     1       0.392  10.788  20.506  0.00  0.00    +0.000 A 
ATOM     16  C   UNL     1       0.698   9.437  20.329  0.00  0.00    +0.000 A 
ENDBRANCH   9  11
ENDBRANCH   1   8
BRANCH   5  17
ATOM     17  C   UNL     1       3.417   2.660  17.825  0.00  0.00    +0.000 C 
BRANCH  17  18
ATOM     18  N   UNL     1       4.686   3.339  17.452  0.00  0.00    +0.000 NA
ATOM     19  C   UNL     1       5.276   3.985  18.639  0.00  0.00    +0.000 C 
ATOM     20  C   UNL     1       6.322   5.068  18.387  0.00  0.00    +0.000 C 
ATOM     21  C   UNL     1       5.943   6.044  17.277  0.00  0.00    +0.000 C 
ATOM     22  C   UNL     1       7.203   6.658  16.711  0.00  0.00    +0.000 C 
ATOM     23  O   UNL     1       7.825   7.598  17.171  0.00  0.00    +0.000 OA
ATOM     24  N   UNL     1       7.579   5.905  15.613  0.00  0.00    +0.000 N 
ATOM     25  C   UNL     1       6.670   4.821  15.363  0.00  0.00    +0.000 C 
ATOM     26  C   UNL     1       5.406   5.321  16.041  0.00  0.00    +0.000 C 
ATOM     27  C   UNL     1       4.356   4.281  16.372  0.00  0.00    +0.000 C 
ATOM     28  H   UNL     1       8.457   6.077  15.141  0.00  0.00    +0.000 HD
ENDBRANCH  17  18
ENDBRANCH   5  17
TORSDOF 4
ENDMDL
MODEL 9
REMARK VINA RESULT:      -8.0      6.004      8.674
REMARK  Name = 
REMARK  4 active torsions:
REMARK  status: ('A' for Active; 'I' for Inactive)
REMARK    1  A    between atoms: C_2  and  C_10
REMARK    2  A    between atoms: N_3  and  C_4
REMARK    3  A    between atoms: C_14  and  C_15
REMARK    4  A    between atoms: C_15  and  N_16
REMARK                            x       y       z     vdW  Elec       q    Type
REMARK                         _______ _______ _______ _____ _____    ______ ____
ROOT
ATOM      1  C   UNL     1      -0.016   9.859  20.134  0.00  0.00    +0.000 A 
ATOM      2  C   UNL     1       0.040   9.708  21.526  0.00  0.00    +0.000 A 
ATOM      3  C   UNL     1       0.974   8.843  22.090  0.00  0.00    +0.000 A 
ATOM      4  C   UNL     1       1.843   8.115  21.274  0.00  0.00    +0.000 A 
ATOM      5  C   UNL     1       1.769   8.226  19.879  0.00  0.00    +0.000 A 
ATOM      6  C   UNL     1       0.844   9.104  19.316  0.00  0.00    +0.000 A 
ENDROOT
BRANCH   1   8
ATOM      7  O   UNL     1      -0.996  11.940  19.790  0.00  0.00    +0.000 OA
ATOM      8  C   UNL     1      -1.002  10.754  19.479  0.00  0.00    +0.000 C 
ATOM      9  N   UNL     1      -1.885  10.128  18.616  0.00  0.00    +0.000 N 
ATOM     10  H   UNL     1      -1.889   9.116  18.615  0.00  0.00    +0.000 HD
BRANCH   9  11
ATOM     11  C   UNL     1      -2.921  10.752  17.894  0.00  0.00    +0.000 A 
ATOM     12  C   UNL     1      -3.938  11.495  18.500  0.00  0.00    +0.000 A 
ATOM     13  C   UNL     1      -4.970  12.039  17.733  0.00  0.00    +0.000 A 
ATOM     14  C   UNL     1      -4.989  11.853  16.354  0.00  0.00    +0.000 A 
ATOM     15  C   UNL     1      -3.961  11.143  15.736  0.00  0.00    +0.000 A 
ATOM     16  C   UNL     1      -2.925  10.604  16.503  0.00  0.00    +0.000 A 
ENDBRANCH   9  11
ENDBRANCH   1   8
BRANCH   5  17
ATOM     17  C   UNL     1       2.611   7.339  18.994  0.00  0.00    +0.000 C 
BRANCH  17  18
ATOM     18  N   UNL     1       2.484   5.875  19.224  0.00  0.00    +0.000 NA
ATOM     19  C   UNL     1       3.780   5.323  19.660  0.00  0.00    +0.000 C 
ATOM     20  C   UNL     1       3.964   3.813  19.531  0.00  0.00    +0.000 C 
ATOM     21  C   UNL     1       3.463   3.242  18.208  0.00  0.00    +0.000 C 
ATOM     22  C   UNL     1       3.137   1.778  18.397  0.00  0.00    +0.000 C 
ATOM     23  O   UNL     1       3.922   0.848  18.373  0.00  0.00    +0.000 OA
ATOM     24  N   UNL     1       1.788   1.684  18.691  0.00  0.00    +0.000 N 
ATOM     25  C   UNL     1       1.147   2.970  18.707  0.00  0.00    +0.000 C 
ATOM     26  C   UNL     1       2.084   3.789  17.836  0.00  0.00    +0.000 C 
ATOM     27  C   UNL     1       1.990   5.295  17.967  0.00  0.00    +0.000 C 
ATOM     28  H   UNL     1       1.375   0.801  18.957  0.00  0.00    +0.000 HD
ENDBRANCH  17  18
ENDBRANCH   5  17
TORSDOF 4
ENDMDL
