MODEL 1
REMARK VINA RESULT:      -8.9      0.000      0.000
REMARK  Name = 
REMARK  5 active torsions:
REMARK  status: ('A' for Active; 'I' for Inactive)
REMARK    1  A    between atoms: C_1  and  C_2
REMARK    2  A    between atoms: C_2  and  N_3
REMARK    3  A    between atoms: C_2  and  C_20
REMARK    4  A    between atoms: N_3  and  C_4
REMARK    5  A    between atoms: C_6  and  C_7
REMARK                            x       y       z     vdW  Elec       q    Type
REMARK                         _______ _______ _______ _____ _____    ______ ____
ROOT
ATOM      1  C   UNL     1       3.229   5.948  18.986  0.00  0.00    +0.000 A 
ATOM      2  N   UNL     1       4.171   5.959  18.029  0.00  0.00    +0.000 NA
ATOM      3  C   UNL     1       4.516   4.771  17.501  0.00  0.00    +0.000 A 
ATOM      4  N   UNL     1       4.051   3.580  17.920  0.00  0.00    +0.000 NA
ATOM      5  C   UNL     1       3.111   3.584  18.866  0.00  0.00    +0.000 A 
ATOM      6  C   UNL     1       2.621   2.368  19.327  0.00  0.00    +0.000 A 
ATOM      7  C   UNL     1       1.598   2.297  20.277  0.00  0.00    +0.000 A 
ATOM      8  C   UNL     1       1.034   3.466  20.767  0.00  0.00    +0.000 A 
ATOM      9  C   UNL     1       1.534   4.695  20.344  0.00  0.00    +0.000 A 
ATOM     10  C   UNL     1       2.596   4.764  19.406  0.00  0.00    +0.000 A 
ENDROOT
BRANCH   3  11
ATOM     11  C   UNL     1       5.387   4.762  16.311  0.00  0.00    +0.000 A 
ATOM     12  C   UNL     1       4.989   4.158  15.110  0.00  0.00    +0.000 A 
ATOM     13  C   UNL     1       5.869   4.126  14.040  0.00  0.00    +0.000 A 
ATOM     14  N   UNL     1       7.111   4.649  14.073  0.00  0.00    +0.000 NA
ATOM     15  C   UNL     1       7.487   5.232  15.228  0.00  0.00    +0.000 A 
ATOM     16  C   UNL     1       6.677   5.315  16.349  0.00  0.00    +0.000 A 
ENDBRANCH   3  11
BRANCH   1  17
ATOM     17  N   UNL     1       2.841   7.158  19.574  0.00  0.00    +0.000 N 
ATOM     18  H   UNL     1       2.639   6.988  20.557  0.00  0.00    +0.000 HD
BRANCH  17  20
ATOM     19  C   UNL     1       2.386   8.920  17.887  0.00  0.00    +0.000 C 
ATOM     20  C   UNL     1       1.801   7.974  18.942  0.00  0.00    +0.000 C 
BRANCH  20  21
ATOM     21  C   UNL     1       1.164   8.798  20.064  0.00  0.00    +0.000 A 
ATOM     22  C   UNL     1       1.176   8.329  21.398  0.00  0.00    +0.000 A 
ATOM     23  C   UNL     1       0.654   9.108  22.440  0.00  0.00    +0.000 A 
ATOM     24  C   UNL     1       0.126  10.341  22.123  0.00  0.00    +0.000 A 
ATOM     25  C   UNL     1       0.088  10.799  20.829  0.00  0.00    +0.000 A 
ATOM     26  C   UNL     1       0.588  10.055  19.784  0.00  0.00    +0.000 A 
ATOM     27  O   UNL     1      -0.466  12.035  20.728  0.00  0.00    +0.000 OA
ATOM     28  C   UNL     1      -0.768  12.310  22.110  0.00  0.00    +0.000 C 
ATOM     29  O   UNL     1      -0.396  11.237  23.003  0.00  0.00    +0.000 OA
ENDBRANCH  20  21
ENDBRANCH  17  20
ENDBRANCH   1  17
TORSDOF 4
ENDMDL
MODEL 2
REMARK VINA RESULT:      -8.6      3.140      6.518
REMARK  Name = 
REMARK  5 active torsions:
REMARK  status: ('A' for Active; 'I' for Inactive)
REMARK    1  A    between atoms: C_1  and  C_2
REMARK    2  A    between atoms: C_2  and  N_3
REMARK    3  A    between atoms: C_2  and  C_20
REMARK    4  A    between atoms: N_3  and  C_4
REMARK    5  A    between atoms: C_6  and  C_7
REMARK                            x       y       z     vdW  Elec       q    Type
REMARK                         _______ _______ _______ _____ _____    ______ ____
ROOT
ATOM      1  C   UNL     1       3.468   4.651  18.169  0.00  0.00    +0.000 A 
ATOM      2  N   UNL     1       3.028   5.909  18.000  0.00  0.00    +0.000 NA
ATOM      3  C   UNL     1       2.352   6.460  19.023  0.00  0.00    +0.000 A 
ATOM      4  N   UNL     1       2.015   5.817  20.156  0.00  0.00    +0.000 NA
ATOM      5  C   UNL     1       2.463   4.570  20.314  0.00  0.00    +0.000 A 
ATOM      6  C   UNL     1       2.121   3.877  21.468  0.00  0.00    +0.000 A 
ATOM      7  C   UNL     1       2.599   2.589  21.725  0.00  0.00    +0.000 A 
ATOM      8  C   UNL     1       3.457   1.982  20.819  0.00  0.00    +0.000 A 
ATOM      9  C   UNL     1       3.785   2.646  19.640  0.00  0.00    +0.000 A 
ATOM     10  C   UNL     1       3.270   3.938  19.366  0.00  0.00    +0.000 A 
ENDROOT
BRANCH   3  11
ATOM     11  C   UNL     1       2.037   7.899  18.959  0.00  0.00    +0.000 A 
ATOM     12  C   UNL     1       1.417   8.567  20.026  0.00  0.00    +0.000 A 
ATOM     13  C   UNL     1       1.091   9.906  19.892  0.00  0.00    +0.000 A 
ATOM     14  N   UNL     1       1.335  10.632  18.782  0.00  0.00    +0.000 NA
ATOM     15  C   UNL     1       1.934   9.987  17.762  0.00  0.00    +0.000 A 
ATOM     16  C   UNL     1       2.300   8.651  17.804  0.00  0.00    +0.000 A 
ENDBRANCH   3  11
BRANCH   1  17
ATOM     17  N   UNL     1       4.170   4.029  17.129  0.00  0.00    +0.000 N 
ATOM     18  H   UNL     1       4.745   3.290  17.527  0.00  0.00    +0.000 HD
BRANCH  17  20
ATOM     19  C   UNL     1       5.657   3.974  15.143  0.00  0.00    +0.000 C 
ATOM     20  C   UNL     1       4.923   4.842  16.171  0.00  0.00    +0.000 C 
BRANCH  20  21
ATOM     21  C   UNL     1       5.946   5.631  16.992  0.00  0.00    +0.000 A 
ATOM     22  C   UNL     1       6.754   4.981  17.953  0.00  0.00    +0.000 A 
ATOM     23  C   UNL     1       7.738   5.685  18.660  0.00  0.00    +0.000 A 
ATOM     24  C   UNL     1       7.892   7.028  18.392  0.00  0.00    +0.000 A 
ATOM     25  C   UNL     1       7.100   7.676  17.477  0.00  0.00    +0.000 A 
ATOM     26  C   UNL     1       6.121   7.014  16.770  0.00  0.00    +0.000 A 
ATOM     27  O   UNL     1       7.412   8.993  17.355  0.00  0.00    +0.000 OA
ATOM     28  C   UNL     1       8.499   9.101  18.295  0.00  0.00    +0.000 C 
ATOM     29  O   UNL     1       8.809   7.857  18.959  0.00  0.00    +0.000 OA
ENDBRANCH  20  21
ENDBRANCH  17  20
ENDBRANCH   1  17
TORSDOF 4
ENDMDL
MODEL 3
REMARK VINA RESULT:      -8.5      0.727      1.596
REMARK  Name = 
REMARK  5 active torsions:
REMARK  status: ('A' for Active; 'I' for Inactive)
REMARK    1  A    between atoms: C_1  and  C_2
REMARK    2  A    between atoms: C_2  and  N_3
REMARK    3  A    between atoms: C_2  and  C_20
REMARK    4  A    between atoms: N_3  and  C_4
REMARK    5  A    between atoms: C_6  and  C_7
REMARK                            x       y       z     vdW  Elec       q    Type
REMARK                         _______ _______ _______ _____ _____    ______ ____
ROOT
ATOM      1  C   UNL     1       3.200   6.005  19.165  0.00  0.00    +0.000 A 
ATOM      2  N   UNL     1       4.187   5.996  18.255  0.00  0.00    +0.000 NA
ATOM      3  C   UNL     1       4.651   4.793  17.872  0.00  0.00    +0.000 A 
ATOM      4  N   UNL     1       4.259   3.617  18.395  0.00  0.00    +0.000 NA
ATOM      5  C   UNL     1       3.273   3.640  19.294  0.00  0.00    +0.000 A 
ATOM      6  C   UNL     1       2.856   2.442  19.861  0.00  0.00    +0.000 A 
ATOM      7  C   UNL     1       1.794   2.384  20.767  0.00  0.00    +0.000 A 
ATOM      8  C   UNL     1       1.115   3.547  21.104  0.00  0.00    +0.000 A 
ATOM      9  C   UNL     1       1.540   4.763  20.574  0.00  0.00    +0.000 A 
ATOM     10  C   UNL     1       2.640   4.822  19.681  0.00  0.00    +0.000 A 
ENDROOT
BRANCH   3  11
ATOM     11  C   UNL     1       5.581   4.733  16.730  0.00  0.00    +0.000 A 
ATOM     12  C   UNL     1       6.797   5.433  16.731  0.00  0.00    +0.000 A 
ATOM     13  C   UNL     1       7.607   5.390  15.608  0.00  0.00    +0.000 A 
ATOM     14  N   UNL     1       7.304   4.703  14.488  0.00  0.00    +0.000 NA
ATOM     15  C   UNL     1       6.138   4.029  14.494  0.00  0.00    +0.000 A 
ATOM     16  C   UNL     1       5.263   4.010  15.569  0.00  0.00    +0.000 A 
ENDBRANCH   3  11
BRANCH   1  17
ATOM     17  N   UNL     1       2.688   7.233  19.602  0.00  0.00    +0.000 N 
ATOM     18  H   UNL     1       2.244   7.092  20.507  0.00  0.00    +0.000 HD
BRANCH  17  20
ATOM     19  C   UNL     1       2.691   8.844  17.714  0.00  0.00    +0.000 C 
ATOM     20  C   UNL     1       1.849   8.033  18.707  0.00  0.00    +0.000 C 
BRANCH  20  21
ATOM     21  C   UNL     1       1.059   8.990  19.603  0.00  0.00    +0.000 A 
ATOM     22  C   UNL     1       0.476  10.162  19.068  0.00  0.00    +0.000 A 
ATOM     23  C   UNL     1      -0.304  11.008  19.869  0.00  0.00    +0.000 A 
ATOM     24  C   UNL     1      -0.481  10.664  21.192  0.00  0.00    +0.000 A 
ATOM     25  C   UNL     1       0.097   9.541  21.729  0.00  0.00    +0.000 A 
ATOM     26  C   UNL     1       0.873   8.693  20.970  0.00  0.00    +0.000 A 
ATOM     27  O   UNL     1      -0.201   9.377  23.044  0.00  0.00    +0.000 OA
ATOM     28  C   UNL     1      -1.042  10.525  23.275  0.00  0.00    +0.000 C 
ATOM     29  O   UNL     1      -1.224  11.348  22.103  0.00  0.00    +0.000 OA
ENDBRANCH  20  21
ENDBRANCH  17  20
ENDBRANCH   1  17
TORSDOF 4
ENDMDL
MODEL 4
REMARK VINA RESULT:      -8.3      0.755      1.357
REMARK  Name = 
REMARK  5 active torsions:
REMARK  status: ('A' for Active; 'I' for Inactive)
REMARK    1  A    between atoms: C_1  and  C_2
REMARK    2  A    between atoms: C_2  and  N_3
REMARK    3  A    between atoms: C_2  and  C_20
REMARK    4  A    between atoms: N_3  and  C_4
REMARK    5  A    between atoms: C_6  and  C_7
REMARK                            x       y       z     vdW  Elec       q    Type
REMARK                         _______ _______ _______ _____ _____    ______ ____
ROOT
ATOM      1  C   UNL     1       3.128   5.830  18.680  0.00  0.00    +0.000 A 
ATOM      2  N   UNL     1       4.083   5.843  17.736  0.00  0.00    +0.000 NA
ATOM      3  C   UNL     1       4.451   4.654  17.227  0.00  0.00    +0.000 A 
ATOM      4  N   UNL     1       3.997   3.462  17.655  0.00  0.00    +0.000 NA
ATOM      5  C   UNL     1       3.045   3.464  18.589  0.00  0.00    +0.000 A 
ATOM      6  C   UNL     1       2.566   2.247  19.059  0.00  0.00    +0.000 A 
ATOM      7  C   UNL     1       1.532   2.173  19.996  0.00  0.00    +0.000 A 
ATOM      8  C   UNL     1       0.944   3.340  20.464  0.00  0.00    +0.000 A 
ATOM      9  C   UNL     1       1.433   4.571  20.031  0.00  0.00    +0.000 A 
ATOM     10  C   UNL     1       2.506   4.643  19.107  0.00  0.00    +0.000 A 
ENDROOT
BRANCH   3  11
ATOM     11  C   UNL     1       5.338   4.642  16.049  0.00  0.00    +0.000 A 
ATOM     12  C   UNL     1       5.058   3.855  14.923  0.00  0.00    +0.000 A 
ATOM     13  C   UNL     1       5.955   3.835  13.867  0.00  0.00    +0.000 A 
ATOM     14  N   UNL     1       7.104   4.539  13.844  0.00  0.00    +0.000 NA
ATOM     15  C   UNL     1       7.367   5.297  14.926  0.00  0.00    +0.000 A 
ATOM     16  C   UNL     1       6.530   5.383  16.028  0.00  0.00    +0.000 A 
ENDBRANCH   3  11
BRANCH   1  17
ATOM     17  N   UNL     1       2.715   7.042  19.247  0.00  0.00    +0.000 N 
ATOM     18  H   UNL     1       2.220   6.840  20.113  0.00  0.00    +0.000 HD
BRANCH  17  20
ATOM     19  C   UNL     1       2.957   8.906  17.626  0.00  0.00    +0.000 C 
ATOM     20  C   UNL     1       1.995   8.021  18.430  0.00  0.00    +0.000 C 
BRANCH  20  21
ATOM     21  C   UNL     1       1.201   8.892  19.406  0.00  0.00    +0.000 A 
ATOM     22  C   UNL     1       0.498  10.031  18.949  0.00  0.00    +0.000 A 
ATOM     23  C   UNL     1      -0.284  10.794  19.826  0.00  0.00    +0.000 A 
ATOM     24  C   UNL     1      -0.345  10.402  21.146  0.00  0.00    +0.000 A 
ATOM     25  C   UNL     1       0.350   9.312  21.608  0.00  0.00    +0.000 A 
ATOM     26  C   UNL     1       1.131   8.546  20.772  0.00  0.00    +0.000 A 
ATOM     27  O   UNL     1       0.155   9.091  22.934  0.00  0.00    +0.000 OA
ATOM     28  C   UNL     1      -0.750  10.166  23.257  0.00  0.00    +0.000 C 
ATOM     29  O   UNL     1      -1.072  11.004  22.126  0.00  0.00    +0.000 OA
ENDBRANCH  20  21
ENDBRANCH  17  20
ENDBRANCH   1  17
TORSDOF 4
ENDMDL
MODEL 5
REMARK VINA RESULT:      -8.1      4.041      7.972
REMARK  Name = 
REMARK  5 active torsions:
REMARK  status: ('A' for Active; 'I' for Inactive)
REMARK    1  A    between atoms: C_1  and  C_2
REMARK    2  A    between atoms: C_2  and  N_3
REMARK    3  A    between atoms: C_2  and  C_20
REMARK    4  A    between atoms: N_3  and  C_4
REMARK    5  A    between atoms: C_6  and  C_7
REMARK                            x       y       z     vdW  Elec       q    Type
REMARK                         _______ _______ _______ _____ _____    ______ ____
ROOT
ATOM      1  C   UNL     1       1.045   9.974  19.368  0.00  0.00    +0.000 A 
ATOM      2  N   UNL     1       1.439  11.106  18.762  0.00  0.00    +0.000 NA
ATOM      3  C   UNL     1       1.239  12.256  19.430  0.00  0.00    +0.000 A 
ATOM      4  N   UNL     1       0.601  12.357  20.610  0.00  0.00    +0.000 NA
ATOM      5  C   UNL     1       0.219  11.225  21.204  0.00  0.00    +0.000 A 
ATOM      6  C   UNL     1      -0.453  11.299  22.418  0.00  0.00    +0.000 A 
ATOM      7  C   UNL     1      -0.833  10.154  23.122  0.00  0.00    +0.000 A 
ATOM      8  C   UNL     1      -0.519   8.901  22.617  0.00  0.00    +0.000 A 
ATOM      9  C   UNL     1       0.124   8.804  21.385  0.00  0.00    +0.000 A 
ATOM     10  C   UNL     1       0.478   9.967  20.656  0.00  0.00    +0.000 A 
ENDROOT
BRANCH   3  11
ATOM     11  C   UNL     1       1.843  13.490  18.895  0.00  0.00    +0.000 A 
ATOM     12  C   UNL     1       3.115  13.492  18.303  0.00  0.00    +0.000 A 
ATOM     13  C   UNL     1       3.661  14.689  17.869  0.00  0.00    +0.000 A 
ATOM     14  N   UNL     1       3.040  15.881  17.976  0.00  0.00    +0.000 NA
ATOM     15  C   UNL     1       1.817  15.873  18.542  0.00  0.00    +0.000 A 
ATOM     16  C   UNL     1       1.189  14.727  19.003  0.00  0.00    +0.000 A 
ENDBRANCH   3  11
BRANCH   1  17
ATOM     17  N   UNL     1       1.224   8.751  18.710  0.00  0.00    +0.000 N 
ATOM     18  H   UNL     1       0.458   8.133  18.967  0.00  0.00    +0.000 HD
BRANCH  17  20
ATOM     19  C   UNL     1       3.259   8.111  17.442  0.00  0.00    +0.000 C 
ATOM     20  C   UNL     1       2.518   8.068  18.784  0.00  0.00    +0.000 C 
BRANCH  20  21
ATOM     21  C   UNL     1       2.212   6.612  19.147  0.00  0.00    +0.000 A 
ATOM     22  C   UNL     1       2.036   6.228  20.497  0.00  0.00    +0.000 A 
ATOM     23  C   UNL     1       1.691   4.912  20.831  0.00  0.00    +0.000 A 
ATOM     24  C   UNL     1       1.531   4.005  19.806  0.00  0.00    +0.000 A 
ATOM     25  C   UNL     1       1.719   4.359  18.493  0.00  0.00    +0.000 A 
ATOM     26  C   UNL     1       2.065   5.643  18.133  0.00  0.00    +0.000 A 
ATOM     27  O   UNL     1       1.510   3.325  17.637  0.00  0.00    +0.000 OA
ATOM     28  C   UNL     1       1.161   2.276  18.562  0.00  0.00    +0.000 C 
ATOM     29  O   UNL     1       1.172   2.700  19.942  0.00  0.00    +0.000 OA
ENDBRANCH  20  21
ENDBRANCH  17  20
ENDBRANCH   1  17
TORSDOF 4
ENDMDL
MODEL 6
REMARK VINA RESULT:      -8.0      3.855      8.214
REMARK  Name = 
REMARK  5 active torsions:
REMARK  status: ('A' for Active; 'I' for Inactive)
REMARK    1  A    between atoms: C_1  and  C_2
REMARK    2  A    between atoms: C_2  and  N_3
REMARK    3  A    between atoms: C_2  and  C_20
REMARK    4  A    between atoms: N_3  and  C_4
REMARK    5  A    between atoms: C_6  and  C_7
REMARK                            x       y       z     vdW  Elec       q    Type
REMARK                         _______ _______ _______ _____ _____    ______ ____
ROOT
ATOM      1  C   UNL     1       3.308   6.112  18.849  0.00  0.00    +0.000 A 
ATOM      2  N   UNL     1       2.642   7.242  19.139  0.00  0.00    +0.000 NA
ATOM      3  C   UNL     1       1.813   7.206  20.198  0.00  0.00    +0.000 A 
ATOM      4  N   UNL     1       1.543   6.106  20.924  0.00  0.00    +0.000 NA
ATOM      5  C   UNL     1       2.216   4.992  20.630  0.00  0.00    +0.000 A 
ATOM      6  C   UNL     1       1.949   3.837  21.355  0.00  0.00    +0.000 A 
ATOM      7  C   UNL     1       2.654   2.650  21.139  0.00  0.00    +0.000 A 
ATOM      8  C   UNL     1       3.664   2.615  20.189  0.00  0.00    +0.000 A 
ATOM      9  C   UNL     1       3.924   3.752  19.427  0.00  0.00    +0.000 A 
ATOM     10  C   UNL     1       3.184   4.945  19.625  0.00  0.00    +0.000 A 
ENDROOT
BRANCH   3  11
ATOM     11  C   UNL     1       1.228   8.473  20.671  0.00  0.00    +0.000 A 
ATOM     12  C   UNL     1       0.889   8.671  22.018  0.00  0.00    +0.000 A 
ATOM     13  C   UNL     1       0.288   9.860  22.400  0.00  0.00    +0.000 A 
ATOM     14  N   UNL     1       0.002  10.865  21.548  0.00  0.00    +0.000 NA
ATOM     15  C   UNL     1       0.334  10.672  20.257  0.00  0.00    +0.000 A 
ATOM     16  C   UNL     1       0.940   9.519  19.781  0.00  0.00    +0.000 A 
ENDBRANCH   3  11
BRANCH   1  17
ATOM     17  N   UNL     1       4.177   6.096  17.752  0.00  0.00    +0.000 N 
ATOM     18  H   UNL     1       3.654   5.795  16.932  0.00  0.00    +0.000 HD
BRANCH  17  20
ATOM     19  C   UNL     1       6.568   6.341  18.370  0.00  0.00    +0.000 C 
ATOM     20  C   UNL     1       5.466   5.408  17.853  0.00  0.00    +0.000 C 
BRANCH  20  21
ATOM     21  C   UNL     1       5.816   4.946  16.436  0.00  0.00    +0.000 A 
ATOM     22  C   UNL     1       5.045   3.951  15.791  0.00  0.00    +0.000 A 
ATOM     23  C   UNL     1       5.320   3.571  14.471  0.00  0.00    +0.000 A 
ATOM     24  C   UNL     1       6.365   4.193  13.823  0.00  0.00    +0.000 A 
ATOM     25  C   UNL     1       7.135   5.144  14.444  0.00  0.00    +0.000 A 
ATOM     26  C   UNL     1       6.894   5.535  15.743  0.00  0.00    +0.000 A 
ATOM     27  O   UNL     1       8.110   5.638  13.636  0.00  0.00    +0.000 OA
ATOM     28  C   UNL     1       7.861   4.892  12.428  0.00  0.00    +0.000 C 
ATOM     29  O   UNL     1       6.755   3.972  12.539  0.00  0.00    +0.000 OA
ENDBRANCH  20  21
ENDBRANCH  17  20
ENDBRANCH   1  17
TORSDOF 4
ENDMDL
MODEL 7
REMARK VINA RESULT:      -8.0      3.902      7.930
REMARK  Name = 
REMARK  5 active torsions:
REMARK  status: ('A' for Active; 'I' for Inactive)
REMARK    1  A    between atoms: C_1  and  C_2
REMARK    2  A    between atoms: C_2  and  N_3
REMARK    3  A    between atoms: C_2  and  C_20
REMARK    4  A    between atoms: N_3  and  C_4
REMARK    5  A    between atoms: C_6  and  C_7
REMARK                            x       y       z     vdW  Elec       q    Type
REMARK                         _______ _______ _______ _____ _____    ______ ____
ROOT
ATOM      1  C   UNL     1       1.030   9.873  19.377  0.00  0.00    +0.000 A 
ATOM      2  N   UNL     1       1.417  11.007  18.770  0.00  0.00    +0.000 NA
ATOM      3  C   UNL     1       1.219  12.155  19.442  0.00  0.00    +0.000 A 
ATOM      4  N   UNL     1       0.590  12.252  20.627  0.00  0.00    +0.000 NA
ATOM      5  C   UNL     1       0.216  11.118  21.222  0.00  0.00    +0.000 A 
ATOM      6  C   UNL     1      -0.447  11.188  22.440  0.00  0.00    +0.000 A 
ATOM      7  C   UNL     1      -0.819  10.040  23.145  0.00  0.00    +0.000 A 
ATOM      8  C   UNL     1      -0.506   8.789  22.634  0.00  0.00    +0.000 A 
ATOM      9  C   UNL     1       0.128   8.696  21.398  0.00  0.00    +0.000 A 
ATOM     10  C   UNL     1       0.473   9.862  20.668  0.00  0.00    +0.000 A 
ENDROOT
BRANCH   3  11
ATOM     11  C   UNL     1       1.817  13.391  18.905  0.00  0.00    +0.000 A 
ATOM     12  C   UNL     1       3.084  13.398  18.304  0.00  0.00    +0.000 A 
ATOM     13  C   UNL     1       3.624  14.597  17.869  0.00  0.00    +0.000 A 
ATOM     14  N   UNL     1       3.001  15.787  17.982  0.00  0.00    +0.000 NA
ATOM     15  C   UNL     1       1.782  15.775  18.556  0.00  0.00    +0.000 A 
ATOM     16  C   UNL     1       1.160  14.626  19.020  0.00  0.00    +0.000 A 
ENDBRANCH   3  11
BRANCH   1  17
ATOM     17  N   UNL     1       1.208   8.652  18.715  0.00  0.00    +0.000 N 
ATOM     18  H   UNL     1       0.443   8.032  18.973  0.00  0.00    +0.000 HD
BRANCH  17  20
ATOM     19  C   UNL     1       3.294   8.129  17.476  0.00  0.00    +0.000 C 
ATOM     20  C   UNL     1       2.502   7.969  18.780  0.00  0.00    +0.000 C 
BRANCH  20  21
ATOM     21  C   UNL     1       2.193   6.487  19.007  0.00  0.00    +0.000 A 
ATOM     22  C   UNL     1       1.962   5.623  17.911  0.00  0.00    +0.000 A 
ATOM     23  C   UNL     1       1.744   4.253  18.109  0.00  0.00    +0.000 A 
ATOM     24  C   UNL     1       1.758   3.776  19.402  0.00  0.00    +0.000 A 
ATOM     25  C   UNL     1       1.959   4.607  20.476  0.00  0.00    +0.000 A 
ATOM     26  C   UNL     1       2.170   5.958  20.314  0.00  0.00    +0.000 A 
ATOM     27  O   UNL     1       1.941   3.943  21.661  0.00  0.00    +0.000 OA
ATOM     28  C   UNL     1       1.711   2.593  21.211  0.00  0.00    +0.000 C 
ATOM     29  O   UNL     1       1.593   2.479  19.777  0.00  0.00    +0.000 OA
ENDBRANCH  20  21
ENDBRANCH  17  20
ENDBRANCH   1  17
TORSDOF 4
ENDMDL
MODEL 8
REMARK VINA RESULT:      -7.9      4.249      9.783
REMARK  Name = 
REMARK  5 active torsions:
REMARK  status: ('A' for Active; 'I' for Inactive)
REMARK    1  A    between atoms: C_1  and  C_2
REMARK    2  A    between atoms: C_2  and  N_3
REMARK    3  A    between atoms: C_2  and  C_20
REMARK    4  A    between atoms: N_3  and  C_4
REMARK    5  A    between atoms: C_6  and  C_7
REMARK                            x       y       z     vdW  Elec       q    Type
REMARK                         _______ _______ _______ _____ _____    ______ ____
ROOT
ATOM      1  C   UNL     1      -0.549  10.913  19.965  0.00  0.00    +0.000 A 
ATOM      2  N   UNL     1      -0.837  11.662  21.043  0.00  0.00    +0.000 NA
ATOM      3  C   UNL     1      -2.008  12.322  21.031  0.00  0.00    +0.000 A 
ATOM      4  N   UNL     1      -2.862  12.352  19.991  0.00  0.00    +0.000 NA
ATOM      5  C   UNL     1      -2.568  11.599  18.930  0.00  0.00    +0.000 A 
ATOM      6  C   UNL     1      -3.424  11.620  17.836  0.00  0.00    +0.000 A 
ATOM      7  C   UNL     1      -3.208  10.816  16.713  0.00  0.00    +0.000 A 
ATOM      8  C   UNL     1      -2.122   9.954  16.686  0.00  0.00    +0.000 A 
ATOM      9  C   UNL     1      -1.232   9.942  17.757  0.00  0.00    +0.000 A 
ATOM     10  C   UNL     1      -1.435  10.784  18.880  0.00  0.00    +0.000 A 
ENDROOT
BRANCH   3  11
ATOM     11  C   UNL     1      -2.452  12.981  22.272  0.00  0.00    +0.000 A 
ATOM     12  C   UNL     1      -1.664  13.945  22.918  0.00  0.00    +0.000 A 
ATOM     13  C   UNL     1      -2.102  14.492  24.113  0.00  0.00    +0.000 A 
ATOM     14  N   UNL     1      -3.261  14.156  24.713  0.00  0.00    +0.000 NA
ATOM     15  C   UNL     1      -4.017  13.233  24.087  0.00  0.00    +0.000 A 
ATOM     16  C   UNL     1      -3.664  12.633  22.889  0.00  0.00    +0.000 A 
ENDBRANCH   3  11
BRANCH   1  17
ATOM     17  N   UNL     1       0.662  10.212  19.926  0.00  0.00    +0.000 N 
ATOM     18  H   UNL     1       0.967  10.151  18.957  0.00  0.00    +0.000 HD
BRANCH  17  20
ATOM     19  C   UNL     1       1.410   9.077  22.003  0.00  0.00    +0.000 C 
ATOM     20  C   UNL     1       0.781   8.924  20.612  0.00  0.00    +0.000 C 
BRANCH  20  21
ATOM     21  C   UNL     1       1.690   8.056  19.737  0.00  0.00    +0.000 A 
ATOM     22  C   UNL     1       2.119   8.512  18.470  0.00  0.00    +0.000 A 
ATOM     23  C   UNL     1       3.003   7.752  17.693  0.00  0.00    +0.000 A 
ATOM     24  C   UNL     1       3.439   6.547  18.201  0.00  0.00    +0.000 A 
ATOM     25  C   UNL     1       3.013   6.082  19.420  0.00  0.00    +0.000 A 
ATOM     26  C   UNL     1       2.140   6.804  20.204  0.00  0.00    +0.000 A 
ATOM     27  O   UNL     1       3.560   4.881  19.742  0.00  0.00    +0.000 OA
ATOM     28  C   UNL     1       4.386   4.643  18.585  0.00  0.00    +0.000 C 
ATOM     29  O   UNL     1       4.314   5.696  17.601  0.00  0.00    +0.000 OA
ENDBRANCH  20  21
ENDBRANCH  17  20
ENDBRANCH   1  17
TORSDOF 4
ENDMDL
MODEL 9
REMARK VINA RESULT:      -7.9      3.840      8.211
REMARK  Name = 
REMARK  5 active torsions:
REMARK  status: ('A' for Active; 'I' for Inactive)
REMARK    1  A    between atoms: C_1  and  C_2
REMARK    2  A    between atoms: C_2  and  N_3
REMARK    3  A    between atoms: C_2  and  C_20
REMARK    4  A    between atoms: N_3  and  C_4
REMARK    5  A    between atoms: C_6  and  C_7
REMARK                            x       y       z     vdW  Elec       q    Type
REMARK                         _______ _______ _______ _____ _____    ______ ____
ROOT
ATOM      1  C   UNL     1       3.246   5.762  18.500  0.00  0.00    +0.000 A 
ATOM      2  N   UNL     1       2.654   6.944  18.738  0.00  0.00    +0.000 NA
ATOM      3  C   UNL     1       1.961   7.057  19.885  0.00  0.00    +0.000 A 
ATOM      4  N   UNL     1       1.749   6.054  20.756  0.00  0.00    +0.000 NA
ATOM      5  C   UNL     1       2.348   4.887  20.511  0.00  0.00    +0.000 A 
ATOM      6  C   UNL     1       2.138   3.829  21.387  0.00  0.00    +0.000 A 
ATOM      7  C   UNL     1       2.775   2.597  21.222  0.00  0.00    +0.000 A 
ATOM      8  C   UNL     1       3.660   2.417  20.169  0.00  0.00    +0.000 A 
ATOM      9  C   UNL     1       3.858   3.453  19.260  0.00  0.00    +0.000 A 
ATOM     10  C   UNL     1       3.184   4.691  19.410  0.00  0.00    +0.000 A 
ENDROOT
BRANCH   3  11
ATOM     11  C   UNL     1       1.476   8.392  20.280  0.00  0.00    +0.000 A 
ATOM     12  C   UNL     1       1.174   8.702  21.614  0.00  0.00    +0.000 A 
ATOM     13  C   UNL     1       0.666   9.953  21.923  0.00  0.00    +0.000 A 
ATOM     14  N   UNL     1       0.439  10.918  21.010  0.00  0.00    +0.000 NA
ATOM     15  C   UNL     1       0.734  10.617  19.730  0.00  0.00    +0.000 A 
ATOM     16  C   UNL     1       1.247   9.395  19.325  0.00  0.00    +0.000 A 
ENDBRANCH   3  11
BRANCH   1  17
ATOM     17  N   UNL     1       3.974   5.591  17.315  0.00  0.00    +0.000 N 
ATOM     18  H   UNL     1       3.511   4.879  16.754  0.00  0.00    +0.000 HD
BRANCH  17  20
ATOM     19  C   UNL     1       6.164   6.640  17.826  0.00  0.00    +0.000 C 
ATOM     20  C   UNL     1       5.421   5.377  17.375  0.00  0.00    +0.000 C 
BRANCH  20  21
ATOM     21  C   UNL     1       5.858   5.014  15.953  0.00  0.00    +0.000 A 
ATOM     22  C   UNL     1       7.180   5.265  15.518  0.00  0.00    +0.000 A 
ATOM     23  C   UNL     1       7.604   4.875  14.241  0.00  0.00    +0.000 A 
ATOM     24  C   UNL     1       6.693   4.242  13.422  0.00  0.00    +0.000 A 
ATOM     25  C   UNL     1       5.401   4.011  13.823  0.00  0.00    +0.000 A 
ATOM     26  C   UNL     1       4.953   4.388  15.070  0.00  0.00    +0.000 A 
ATOM     27  O   UNL     1       4.665   3.374  12.875  0.00  0.00    +0.000 OA
ATOM     28  C   UNL     1       5.645   3.223  11.830  0.00  0.00    +0.000 C 
ATOM     29  O   UNL     1       6.936   3.773  12.169  0.00  0.00    +0.000 OA
ENDBRANCH  20  21
ENDBRANCH  17  20
ENDBRANCH   1  17
TORSDOF 4
ENDMDL
