MODEL 1
REMARK VINA RESULT:      -8.4      0.000      0.000
REMARK  Name = 
REMARK  5 active torsions:
REMARK  status: ('A' for Active; 'I' for Inactive)
REMARK    1  A    between atoms: C_2  and  C_17
REMARK    2  A    between atoms: N_3  and  C_4
REMARK    3  A    between atoms: C_9  and  O_10
REMARK    4  A    between atoms: O_10  and  C_11
REMARK    5  A    between atoms: N_19  and  C_20
REMARK                            x       y       z     vdW  Elec       q    Type
REMARK                         _______ _______ _______ _____ _____    ______ ____
ROOT
ATOM      1  O   UNL     1       1.811   9.723  17.489  0.00  0.00    +0.000 OA
ATOM      2  C   UNL     1       1.634   9.567  18.692  0.00  0.00    +0.000 C 
ATOM      3  N   UNL     1       1.223  10.508  19.619  0.00  0.00    +0.000 N 
ATOM      4  H   UNL     1       1.417  10.300  20.595  0.00  0.00    +0.000 HD
ENDROOT
BRANCH   3   5
ATOM      5  C   UNL     1       0.815  11.817  19.286  0.00  0.00    +0.000 A 
ATOM      6  C   UNL     1       1.766  12.841  19.155  0.00  0.00    +0.000 A 
ATOM      7  C   UNL     1       1.378  14.138  18.813  0.00  0.00    +0.000 A 
ATOM      8  C   UNL     1       0.031  14.442  18.668  0.00  0.00    +0.000 A 
ATOM      9  C   UNL     1      -0.923  13.439  18.824  0.00  0.00    +0.000 A 
ATOM     10  C   UNL     1      -0.541  12.105  19.051  0.00  0.00    +0.000 A 
BRANCH  10  11
ATOM     11  O   UNL     1      -1.453  11.062  19.140  0.00  0.00    +0.000 OA
BRANCH  11  12
ATOM     12  C   UNL     1      -2.275  10.822  18.057  0.00  0.00    +0.000 A 
ATOM     13  C   UNL     1      -1.890  10.002  16.991  0.00  0.00    +0.000 A 
ATOM     14  C   UNL     1      -2.699   9.902  15.859  0.00  0.00    +0.000 A 
ATOM     15  C   UNL     1      -3.929  10.556  15.825  0.00  0.00    +0.000 A 
ATOM     16  C   UNL     1      -4.356  11.299  16.926  0.00  0.00    +0.000 A 
ATOM     17  C   UNL     1      -3.530  11.434  18.045  0.00  0.00    +0.000 A 
ENDBRANCH  11  12
ENDBRANCH  10  11
ENDBRANCH   3   5
BRANCH   2  18
ATOM     18  C   UNL     1       1.966   8.191  19.305  0.00  0.00    +0.000 C 
ATOM     19  O   UNL     1       1.507   7.867  20.388  0.00  0.00    +0.000 OA
ATOM     20  N   UNL     1       2.785   7.417  18.508  0.00  0.00    +0.000 N 
ATOM     21  H   UNL     1       3.072   7.850  17.627  0.00  0.00    +0.000 HD
BRANCH  20  22
ATOM     22  C   UNL     1       3.157   6.031  18.765  0.00  0.00    +0.000 C 
ATOM     23  C   UNL     1       4.684   5.800  18.629  0.00  0.00    +0.000 C 
ATOM     24  C   UNL     1       5.111   4.395  19.109  0.00  0.00    +0.000 C 
ATOM     25  C   UNL     1       4.125   3.390  18.642  0.00  0.00    +0.000 A 
ATOM     26  N   UNL     1       4.271   2.035  18.667  0.00  0.00    +0.000 N 
ATOM     27  N   UNL     1       3.182   1.387  18.209  0.00  0.00    +0.000 NA
ATOM     28  C   UNL     1       2.337   2.368  17.872  0.00  0.00    +0.000 A 
ATOM     29  C   UNL     1       2.873   3.642  18.127  0.00  0.00    +0.000 A 
ATOM     30  C   UNL     1       2.340   5.012  17.924  0.00  0.00    +0.000 C 
ATOM     31  H   UNL     1       5.061   1.486  18.985  0.00  0.00    +0.000 HD
ENDBRANCH  20  22
ENDBRANCH   2  18
TORSDOF 5
ENDMDL
MODEL 2
REMARK VINA RESULT:      -8.2      2.250      9.416
REMARK  Name = 
REMARK  5 active torsions:
REMARK  status: ('A' for Active; 'I' for Inactive)
REMARK    1  A    between atoms: C_2  and  C_17
REMARK    2  A    between atoms: N_3  and  C_4
REMARK    3  A    between atoms: C_9  and  O_10
REMARK    4  A    between atoms: O_10  and  C_11
REMARK    5  A    between atoms: N_19  and  C_20
REMARK                            x       y       z     vdW  Elec       q    Type
REMARK                         _______ _______ _______ _____ _____    ______ ____
ROOT
ATOM      1  O   UNL     1       2.615   6.853  20.000  0.00  0.00    +0.000 OA
ATOM      2  C   UNL     1       2.252   7.107  18.857  0.00  0.00    +0.000 C 
ATOM      3  N   UNL     1       2.196   6.248  17.774  0.00  0.00    +0.000 N 
ATOM      4  H   UNL     1       2.166   6.679  16.853  0.00  0.00    +0.000 HD
ENDROOT
BRANCH   3   5
ATOM      5  C   UNL     1       2.449   4.862  17.852  0.00  0.00    +0.000 A 
ATOM      6  C   UNL     1       1.511   4.005  18.449  0.00  0.00    +0.000 A 
ATOM      7  C   UNL     1       1.742   2.630  18.521  0.00  0.00    +0.000 A 
ATOM      8  C   UNL     1       2.943   2.106  18.063  0.00  0.00    +0.000 A 
ATOM      9  C   UNL     1       3.894   2.952  17.495  0.00  0.00    +0.000 A 
ATOM     10  C   UNL     1       3.626   4.320  17.308  0.00  0.00    +0.000 A 
BRANCH  10  11
ATOM     11  O   UNL     1       4.513   5.184  16.682  0.00  0.00    +0.000 OA
BRANCH  11  12
ATOM     12  C   UNL     1       5.650   5.561  17.368  0.00  0.00    +0.000 A 
ATOM     13  C   UNL     1       6.010   4.987  18.594  0.00  0.00    +0.000 A 
ATOM     14  C   UNL     1       7.091   5.497  19.313  0.00  0.00    +0.000 A 
ATOM     15  C   UNL     1       7.862   6.525  18.772  0.00  0.00    +0.000 A 
ATOM     16  C   UNL     1       7.560   7.035  17.509  0.00  0.00    +0.000 A 
ATOM     17  C   UNL     1       6.453   6.554  16.804  0.00  0.00    +0.000 A 
ENDBRANCH  11  12
ENDBRANCH  10  11
ENDBRANCH   3   5
BRANCH   2  18
ATOM     18  C   UNL     1       1.871   8.563  18.520  0.00  0.00    +0.000 C 
ATOM     19  O   UNL     1       2.157   9.043  17.436  0.00  0.00    +0.000 OA
ATOM     20  N   UNL     1       1.190   9.203  19.536  0.00  0.00    +0.000 N 
ATOM     21  H   UNL     1       1.034   8.642  20.377  0.00  0.00    +0.000 HD
BRANCH  20  22
ATOM     22  C   UNL     1       0.594  10.530  19.454  0.00  0.00    +0.000 C 
ATOM     23  C   UNL     1      -0.605  10.574  18.471  0.00  0.00    +0.000 C 
ATOM     24  C   UNL     1      -1.373  11.913  18.541  0.00  0.00    +0.000 C 
ATOM     25  C   UNL     1      -0.408  13.034  18.644  0.00  0.00    +0.000 A 
ATOM     26  N   UNL     1      -0.684  14.360  18.498  0.00  0.00    +0.000 N 
ATOM     27  N   UNL     1       0.398  15.140  18.688  0.00  0.00    +0.000 NA
ATOM     28  C   UNL     1       1.384  14.272  18.944  0.00  0.00    +0.000 A 
ATOM     29  C   UNL     1       0.935  12.941  18.935  0.00  0.00    +0.000 A 
ATOM     30  C   UNL     1       1.631  11.648  19.151  0.00  0.00    +0.000 C 
ATOM     31  H   UNL     1      -1.568  14.807  18.284  0.00  0.00    +0.000 HD
ENDBRANCH  20  22
ENDBRANCH   2  18
TORSDOF 5
ENDMDL
MODEL 3
REMARK VINA RESULT:      -8.2      2.524      8.537
REMARK  Name = 
REMARK  5 active torsions:
REMARK  status: ('A' for Active; 'I' for Inactive)
REMARK    1  A    between atoms: C_2  and  C_17
REMARK    2  A    between atoms: N_3  and  C_4
REMARK    3  A    between atoms: C_9  and  O_10
REMARK    4  A    between atoms: O_10  and  C_11
REMARK    5  A    between atoms: N_19  and  C_20
REMARK                            x       y       z     vdW  Elec       q    Type
REMARK                         _______ _______ _______ _____ _____    ______ ____
ROOT
ATOM      1  O   UNL     1       2.585   7.781  19.511  0.00  0.00    +0.000 OA
ATOM      2  C   UNL     1       2.601   8.227  18.369  0.00  0.00    +0.000 C 
ATOM      3  N   UNL     1       3.390   7.817  17.310  0.00  0.00    +0.000 N 
ATOM      4  H   UNL     1       3.495   8.474  16.541  0.00  0.00    +0.000 HD
ENDROOT
BRANCH   3   5
ATOM      5  C   UNL     1       4.251   6.700  17.353  0.00  0.00    +0.000 A 
ATOM      6  C   UNL     1       5.639   6.872  17.246  0.00  0.00    +0.000 A 
ATOM      7  C   UNL     1       6.503   5.777  17.301  0.00  0.00    +0.000 A 
ATOM      8  C   UNL     1       5.986   4.492  17.390  0.00  0.00    +0.000 A 
ATOM      9  C   UNL     1       4.607   4.307  17.467  0.00  0.00    +0.000 A 
ATOM     10  C   UNL     1       3.731   5.405  17.533  0.00  0.00    +0.000 A 
BRANCH  10  11
ATOM     11  O   UNL     1       2.359   5.270  17.684  0.00  0.00    +0.000 OA
BRANCH  11  12
ATOM     12  C   UNL     1       1.892   4.457  18.698  0.00  0.00    +0.000 A 
ATOM     13  C   UNL     1       2.037   4.788  20.051  0.00  0.00    +0.000 A 
ATOM     14  C   UNL     1       1.673   3.871  21.037  0.00  0.00    +0.000 A 
ATOM     15  C   UNL     1       1.091   2.657  20.676  0.00  0.00    +0.000 A 
ATOM     16  C   UNL     1       0.861   2.365  19.331  0.00  0.00    +0.000 A 
ATOM     17  C   UNL     1       1.261   3.264  18.339  0.00  0.00    +0.000 A 
ENDBRANCH  11  12
ENDBRANCH  10  11
ENDBRANCH   3   5
BRANCH   2  18
ATOM     18  C   UNL     1       1.702   9.437  18.047  0.00  0.00    +0.000 C 
ATOM     19  O   UNL     1       2.094  10.319  17.300  0.00  0.00    +0.000 OA
ATOM     20  N   UNL     1       0.467   9.386  18.662  0.00  0.00    +0.000 N 
ATOM     21  H   UNL     1       0.309   8.566  19.253  0.00  0.00    +0.000 HD
BRANCH  20  22
ATOM     22  C   UNL     1      -0.631  10.318  18.441  0.00  0.00    +0.000 C 
ATOM     23  C   UNL     1      -1.208  10.869  19.771  0.00  0.00    +0.000 C 
ATOM     24  C   UNL     1      -2.219  12.014  19.543  0.00  0.00    +0.000 C 
ATOM     25  C   UNL     1      -3.093  11.683  18.392  0.00  0.00    +0.000 A 
ATOM     26  N   UNL     1      -4.239  12.326  18.029  0.00  0.00    +0.000 N 
ATOM     27  N   UNL     1      -4.790  11.814  16.911  0.00  0.00    +0.000 NA
ATOM     28  C   UNL     1      -3.972  10.810  16.576  0.00  0.00    +0.000 A 
ATOM     29  C   UNL     1      -2.891  10.686  17.464  0.00  0.00    +0.000 A 
ATOM     30  C   UNL     1      -1.744   9.745  17.521  0.00  0.00    +0.000 C 
ATOM     31  H   UNL     1      -4.696  13.113  18.475  0.00  0.00    +0.000 HD
ENDBRANCH  20  22
ENDBRANCH   2  18
TORSDOF 5
ENDMDL
MODEL 4
REMARK VINA RESULT:      -8.1      3.189      8.446
REMARK  Name = 
REMARK  5 active torsions:
REMARK  status: ('A' for Active; 'I' for Inactive)
REMARK    1  A    between atoms: C_2  and  C_17
REMARK    2  A    between atoms: N_3  and  C_4
REMARK    3  A    between atoms: C_9  and  O_10
REMARK    4  A    between atoms: O_10  and  C_11
REMARK    5  A    between atoms: N_19  and  C_20
REMARK                            x       y       z     vdW  Elec       q    Type
REMARK                         _______ _______ _______ _____ _____    ______ ____
ROOT
ATOM      1  O   UNL     1       1.719   6.523  17.564  0.00  0.00    +0.000 OA
ATOM      2  C   UNL     1       2.557   7.339  17.931  0.00  0.00    +0.000 C 
ATOM      3  N   UNL     1       3.933   7.251  17.817  0.00  0.00    +0.000 N 
ATOM      4  H   UNL     1       4.479   7.852  18.429  0.00  0.00    +0.000 HD
ENDROOT
BRANCH   3   5
ATOM      5  C   UNL     1       4.603   6.218  17.128  0.00  0.00    +0.000 A 
ATOM      6  C   UNL     1       5.020   6.409  15.801  0.00  0.00    +0.000 A 
ATOM      7  C   UNL     1       5.696   5.401  15.111  0.00  0.00    +0.000 A 
ATOM      8  C   UNL     1       5.900   4.167  15.715  0.00  0.00    +0.000 A 
ATOM      9  C   UNL     1       5.465   3.958  17.022  0.00  0.00    +0.000 A 
ATOM     10  C   UNL     1       4.889   5.000  17.769  0.00  0.00    +0.000 A 
BRANCH  10  11
ATOM     11  O   UNL     1       4.508   4.858  19.096  0.00  0.00    +0.000 OA
BRANCH  11  12
ATOM     12  C   UNL     1       3.315   4.217  19.366  0.00  0.00    +0.000 A 
ATOM     13  C   UNL     1       2.825   3.178  18.566  0.00  0.00    +0.000 A 
ATOM     14  C   UNL     1       1.553   2.657  18.800  0.00  0.00    +0.000 A 
ATOM     15  C   UNL     1       0.803   3.116  19.881  0.00  0.00    +0.000 A 
ATOM     16  C   UNL     1       1.329   4.086  20.735  0.00  0.00    +0.000 A 
ATOM     17  C   UNL     1       2.587   4.639  20.479  0.00  0.00    +0.000 A 
ENDBRANCH  11  12
ENDBRANCH  10  11
ENDBRANCH   3   5
BRANCH   2  18
ATOM     18  C   UNL     1       2.071   8.597  18.679  0.00  0.00    +0.000 C 
ATOM     19  O   UNL     1       2.128   9.694  18.148  0.00  0.00    +0.000 OA
ATOM     20  N   UNL     1       1.579   8.331  19.940  0.00  0.00    +0.000 N 
ATOM     21  H   UNL     1       1.606   7.348  20.220  0.00  0.00    +0.000 HD
BRANCH  20  22
ATOM     22  C   UNL     1       0.935   9.298  20.821  0.00  0.00    +0.000 C 
ATOM     23  C   UNL     1       0.378   8.637  22.108  0.00  0.00    +0.000 C 
ATOM     24  C   UNL     1      -0.109   9.678  23.140  0.00  0.00    +0.000 C 
ATOM     25  C   UNL     1      -0.839  10.763  22.443  0.00  0.00    +0.000 A 
ATOM     26  N   UNL     1      -1.606  11.731  23.022  0.00  0.00    +0.000 N 
ATOM     27  N   UNL     1      -2.108  12.601  22.125  0.00  0.00    +0.000 NA
ATOM     28  C   UNL     1      -1.656  12.154  20.948  0.00  0.00    +0.000 A 
ATOM     29  C   UNL     1      -0.852  11.010  21.089  0.00  0.00    +0.000 A 
ATOM     30  C   UNL     1      -0.140  10.159  20.102  0.00  0.00    +0.000 C 
ATOM     31  H   UNL     1      -1.821  11.870  24.002  0.00  0.00    +0.000 HD
ENDBRANCH  20  22
ENDBRANCH   2  18
TORSDOF 5
ENDMDL
MODEL 5
REMARK VINA RESULT:      -8.0      2.649      9.364
REMARK  Name = 
REMARK  5 active torsions:
REMARK  status: ('A' for Active; 'I' for Inactive)
REMARK    1  A    between atoms: C_2  and  C_17
REMARK    2  A    between atoms: N_3  and  C_4
REMARK    3  A    between atoms: C_9  and  O_10
REMARK    4  A    between atoms: O_10  and  C_11
REMARK    5  A    between atoms: N_19  and  C_20
REMARK                            x       y       z     vdW  Elec       q    Type
REMARK                         _______ _______ _______ _____ _____    ______ ____
ROOT
ATOM      1  O   UNL     1       3.128   6.913  19.708  0.00  0.00    +0.000 OA
ATOM      2  C   UNL     1       2.454   7.051  18.693  0.00  0.00    +0.000 C 
ATOM      3  N   UNL     1       2.105   6.084  17.769  0.00  0.00    +0.000 N 
ATOM      4  H   UNL     1       1.811   6.415  16.853  0.00  0.00    +0.000 HD
ENDROOT
BRANCH   3   5
ATOM      5  C   UNL     1       2.385   4.709  17.921  0.00  0.00    +0.000 A 
ATOM      6  C   UNL     1       1.471   3.870  18.575  0.00  0.00    +0.000 A 
ATOM      7  C   UNL     1       1.729   2.505  18.720  0.00  0.00    +0.000 A 
ATOM      8  C   UNL     1       2.934   1.979  18.277  0.00  0.00    +0.000 A 
ATOM      9  C   UNL     1       3.862   2.809  17.652  0.00  0.00    +0.000 A 
ATOM     10  C   UNL     1       3.567   4.159  17.393  0.00  0.00    +0.000 A 
BRANCH  10  11
ATOM     11  O   UNL     1       4.429   5.004  16.709  0.00  0.00    +0.000 OA
BRANCH  11  12
ATOM     12  C   UNL     1       5.570   5.433  17.357  0.00  0.00    +0.000 A 
ATOM     13  C   UNL     1       5.944   4.949  18.617  0.00  0.00    +0.000 A 
ATOM     14  C   UNL     1       7.028   5.514  19.288  0.00  0.00    +0.000 A 
ATOM     15  C   UNL     1       7.788   6.505  18.670  0.00  0.00    +0.000 A 
ATOM     16  C   UNL     1       7.473   6.923  17.377  0.00  0.00    +0.000 A 
ATOM     17  C   UNL     1       6.363   6.388  16.717  0.00  0.00    +0.000 A 
ENDBRANCH  11  12
ENDBRANCH  10  11
ENDBRANCH   3   5
BRANCH   2  18
ATOM     18  C   UNL     1       1.977   8.470  18.324  0.00  0.00    +0.000 C 
ATOM     19  O   UNL     1       2.277   8.965  17.249  0.00  0.00    +0.000 OA
ATOM     20  N   UNL     1       1.200   9.062  19.299  0.00  0.00    +0.000 N 
ATOM     21  H   UNL     1       1.048   8.495  20.137  0.00  0.00    +0.000 HD
BRANCH  20  22
ATOM     22  C   UNL     1       0.507  10.337  19.174  0.00  0.00    +0.000 C 
ATOM     23  C   UNL     1       1.490  11.526  19.018  0.00  0.00    +0.000 C 
ATOM     24  C   UNL     1       0.767  12.846  18.670  0.00  0.00    +0.000 C 
ATOM     25  C   UNL     1      -0.472  12.960  19.476  0.00  0.00    +0.000 A 
ATOM     26  N   UNL     1      -1.249  14.071  19.620  0.00  0.00    +0.000 N 
ATOM     27  N   UNL     1      -2.334  13.849  20.388  0.00  0.00    +0.000 NA
ATOM     28  C   UNL     1      -2.222  12.566  20.748  0.00  0.00    +0.000 A 
ATOM     29  C   UNL     1      -1.079  11.959  20.201  0.00  0.00    +0.000 A 
ATOM     30  C   UNL     1      -0.524  10.586  20.310  0.00  0.00    +0.000 C 
ATOM     31  H   UNL     1      -1.117  14.995  19.227  0.00  0.00    +0.000 HD
ENDBRANCH  20  22
ENDBRANCH   2  18
TORSDOF 5
ENDMDL
MODEL 6
REMARK VINA RESULT:      -8.0      1.768      2.645
REMARK  Name = 
REMARK  5 active torsions:
REMARK  status: ('A' for Active; 'I' for Inactive)
REMARK    1  A    between atoms: C_2  and  C_17
REMARK    2  A    between atoms: N_3  and  C_4
REMARK    3  A    between atoms: C_9  and  O_10
REMARK    4  A    between atoms: O_10  and  C_11
REMARK    5  A    between atoms: N_19  and  C_20
REMARK                            x       y       z     vdW  Elec       q    Type
REMARK                         _______ _______ _______ _____ _____    ______ ____
ROOT
ATOM      1  O   UNL     1       1.339   8.672  20.354  0.00  0.00    +0.000 OA
ATOM      2  C   UNL     1       1.469   9.221  19.266  0.00  0.00    +0.000 C 
ATOM      3  N   UNL     1       0.971  10.450  18.872  0.00  0.00    +0.000 N 
ATOM      4  H   UNL     1       0.910  10.616  17.870  0.00  0.00    +0.000 HD
ENDROOT
BRANCH   3   5
ATOM      5  C   UNL     1       0.308  11.347  19.735  0.00  0.00    +0.000 A 
ATOM      6  C   UNL     1       1.015  12.396  20.344  0.00  0.00    +0.000 A 
ATOM      7  C   UNL     1       0.368  13.299  21.190  0.00  0.00    +0.000 A 
ATOM      8  C   UNL     1      -0.975  13.121  21.494  0.00  0.00    +0.000 A 
ATOM      9  C   UNL     1      -1.679  12.066  20.919  0.00  0.00    +0.000 A 
ATOM     10  C   UNL     1      -1.072  11.220  19.973  0.00  0.00    +0.000 A 
BRANCH  10  11
ATOM     11  O   UNL     1      -1.755  10.203  19.321  0.00  0.00    +0.000 OA
BRANCH  11  12
ATOM     12  C   UNL     1      -2.403  10.507  18.140  0.00  0.00    +0.000 A 
ATOM     13  C   UNL     1      -3.490  11.387  18.087  0.00  0.00    +0.000 A 
ATOM     14  C   UNL     1      -4.195  11.555  16.895  0.00  0.00    +0.000 A 
ATOM     15  C   UNL     1      -3.767  10.907  15.738  0.00  0.00    +0.000 A 
ATOM     16  C   UNL     1      -2.627  10.102  15.768  0.00  0.00    +0.000 A 
ATOM     17  C   UNL     1      -1.943   9.900  16.970  0.00  0.00    +0.000 A 
ENDBRANCH  11  12
ENDBRANCH  10  11
ENDBRANCH   3   5
BRANCH   2  18
ATOM     18  C   UNL     1       2.208   8.458  18.148  0.00  0.00    +0.000 C 
ATOM     19  O   UNL     1       2.441   8.998  17.079  0.00  0.00    +0.000 OA
ATOM     20  N   UNL     1       2.564   7.173  18.501  0.00  0.00    +0.000 N 
ATOM     21  H   UNL     1       2.288   6.888  19.444  0.00  0.00    +0.000 HD
BRANCH  20  22
ATOM     22  C   UNL     1       3.379   6.267  17.702  0.00  0.00    +0.000 C 
ATOM     23  C   UNL     1       3.146   4.781  18.079  0.00  0.00    +0.000 C 
ATOM     24  C   UNL     1       3.837   3.810  17.097  0.00  0.00    +0.000 C 
ATOM     25  C   UNL     1       5.185   4.325  16.756  0.00  0.00    +0.000 A 
ATOM     26  N   UNL     1       6.176   3.648  16.110  0.00  0.00    +0.000 N 
ATOM     27  N   UNL     1       7.275   4.400  15.911  0.00  0.00    +0.000 NA
ATOM     28  C   UNL     1       6.968   5.579  16.464  0.00  0.00    +0.000 A 
ATOM     29  C   UNL     1       5.670   5.590  17.002  0.00  0.00    +0.000 A 
ATOM     30  C   UNL     1       4.888   6.636  17.710  0.00  0.00    +0.000 C 
ATOM     31  H   UNL     1       6.177   2.693  15.770  0.00  0.00    +0.000 HD
ENDBRANCH  20  22
ENDBRANCH   2  18
TORSDOF 5
ENDMDL
MODEL 7
REMARK VINA RESULT:      -8.0      2.251      3.099
REMARK  Name = 
REMARK  5 active torsions:
REMARK  status: ('A' for Active; 'I' for Inactive)
REMARK    1  A    between atoms: C_2  and  C_17
REMARK    2  A    between atoms: N_3  and  C_4
REMARK    3  A    between atoms: C_9  and  O_10
REMARK    4  A    between atoms: O_10  and  C_11
REMARK    5  A    between atoms: N_19  and  C_20
REMARK                            x       y       z     vdW  Elec       q    Type
REMARK                         _______ _______ _______ _____ _____    ______ ____
ROOT
ATOM      1  O   UNL     1       1.351   7.558  21.040  0.00  0.00    +0.000 OA
ATOM      2  C   UNL     1       1.408   8.312  20.075  0.00  0.00    +0.000 C 
ATOM      3  N   UNL     1       0.770   9.527  19.908  0.00  0.00    +0.000 N 
ATOM      4  H   UNL     1       0.682   9.868  18.954  0.00  0.00    +0.000 HD
ENDROOT
BRANCH   3   5
ATOM      5  C   UNL     1       0.016  10.167  20.915  0.00  0.00    +0.000 A 
ATOM      6  C   UNL     1       0.083   9.716  22.242  0.00  0.00    +0.000 A 
ATOM      7  C   UNL     1      -0.647  10.348  23.251  0.00  0.00    +0.000 A 
ATOM      8  C   UNL     1      -1.506  11.391  22.932  0.00  0.00    +0.000 A 
ATOM      9  C   UNL     1      -1.602  11.828  21.613  0.00  0.00    +0.000 A 
ATOM     10  C   UNL     1      -0.785  11.281  20.607  0.00  0.00    +0.000 A 
BRANCH  10  11
ATOM     11  O   UNL     1      -0.794  11.734  19.296  0.00  0.00    +0.000 OA
BRANCH  11  12
ATOM     12  C   UNL     1      -1.782  11.266  18.452  0.00  0.00    +0.000 A 
ATOM     13  C   UNL     1      -1.546  10.261  17.507  0.00  0.00    +0.000 A 
ATOM     14  C   UNL     1      -2.537   9.920  16.587  0.00  0.00    +0.000 A 
ATOM     15  C   UNL     1      -3.791  10.525  16.661  0.00  0.00    +0.000 A 
ATOM     16  C   UNL     1      -4.057  11.460  17.662  0.00  0.00    +0.000 A 
ATOM     17  C   UNL     1      -3.053  11.833  18.560  0.00  0.00    +0.000 A 
ENDBRANCH  11  12
ENDBRANCH  10  11
ENDBRANCH   3   5
BRANCH   2  18
ATOM     18  C   UNL     1       2.219   7.858  18.844  0.00  0.00    +0.000 C 
ATOM     19  O   UNL     1       2.524   8.657  17.974  0.00  0.00    +0.000 OA
ATOM     20  N   UNL     1       2.549   6.518  18.865  0.00  0.00    +0.000 N 
ATOM     21  H   UNL     1       2.211   5.999  19.679  0.00  0.00    +0.000 HD
BRANCH  20  22
ATOM     22  C   UNL     1       3.415   5.842  17.908  0.00  0.00    +0.000 C 
ATOM     23  C   UNL     1       3.267   4.300  17.971  0.00  0.00    +0.000 C 
ATOM     24  C   UNL     1       4.013   3.589  16.821  0.00  0.00    +0.000 C 
ATOM     25  C   UNL     1       5.330   4.237  16.609  0.00  0.00    +0.000 A 
ATOM     26  N   UNL     1       6.358   3.762  15.852  0.00  0.00    +0.000 N 
ATOM     27  N   UNL     1       7.413   4.599  15.823  0.00  0.00    +0.000 NA
ATOM     28  C   UNL     1       7.039   5.621  16.601  0.00  0.00    +0.000 A 
ATOM     29  C   UNL     1       5.742   5.450  17.114  0.00  0.00    +0.000 A 
ATOM     30  C   UNL     1       4.902   6.284  18.010  0.00  0.00    +0.000 C 
ATOM     31  H   UNL     1       6.414   2.898  15.324  0.00  0.00    +0.000 HD
ENDBRANCH  20  22
ENDBRANCH   2  18
TORSDOF 5
ENDMDL
MODEL 8
REMARK VINA RESULT:      -8.0      5.063      8.482
REMARK  Name = 
REMARK  5 active torsions:
REMARK  status: ('A' for Active; 'I' for Inactive)
REMARK    1  A    between atoms: C_2  and  C_17
REMARK    2  A    between atoms: N_3  and  C_4
REMARK    3  A    between atoms: C_9  and  O_10
REMARK    4  A    between atoms: O_10  and  C_11
REMARK    5  A    between atoms: N_19  and  C_20
REMARK                            x       y       z     vdW  Elec       q    Type
REMARK                         _______ _______ _______ _____ _____    ______ ____
ROOT
ATOM      1  O   UNL     1       6.218   6.836  16.222  0.00  0.00    +0.000 OA
ATOM      2  C   UNL     1       6.413   6.763  17.430  0.00  0.00    +0.000 C 
ATOM      3  N   UNL     1       5.662   6.082  18.371  0.00  0.00    +0.000 N 
ATOM      4  H   UNL     1       5.779   6.367  19.340  0.00  0.00    +0.000 HD
ENDROOT
BRANCH   3   5
ATOM      5  C   UNL     1       4.578   5.236  18.053  0.00  0.00    +0.000 A 
ATOM      6  C   UNL     1       4.742   4.195  17.127  0.00  0.00    +0.000 A 
ATOM      7  C   UNL     1       3.682   3.342  16.813  0.00  0.00    +0.000 A 
ATOM      8  C   UNL     1       2.429   3.564  17.367  0.00  0.00    +0.000 A 
ATOM      9  C   UNL     1       2.248   4.613  18.266  0.00  0.00    +0.000 A 
ATOM     10  C   UNL     1       3.332   5.406  18.682  0.00  0.00    +0.000 A 
BRANCH  10  11
ATOM     11  O   UNL     1       3.212   6.413  19.629  0.00  0.00    +0.000 OA
BRANCH  11  12
ATOM     12  C   UNL     1       2.411   7.497  19.329  0.00  0.00    +0.000 A 
ATOM     13  C   UNL     1       2.364   8.063  18.050  0.00  0.00    +0.000 A 
ATOM     14  C   UNL     1       1.645   9.239  17.832  0.00  0.00    +0.000 A 
ATOM     15  C   UNL     1       0.909   9.805  18.871  0.00  0.00    +0.000 A 
ATOM     16  C   UNL     1       0.880   9.190  20.123  0.00  0.00    +0.000 A 
ATOM     17  C   UNL     1       1.631   8.034  20.355  0.00  0.00    +0.000 A 
ENDBRANCH  11  12
ENDBRANCH  10  11
ENDBRANCH   3   5
BRANCH   2  18
ATOM     18  C   UNL     1       7.582   7.571  18.030  0.00  0.00    +0.000 C 
ATOM     19  O   UNL     1       8.423   7.022  18.724  0.00  0.00    +0.000 OA
ATOM     20  N   UNL     1       7.563   8.907  17.685  0.00  0.00    +0.000 N 
ATOM     21  H   UNL     1       6.781   9.192  17.090  0.00  0.00    +0.000 HD
BRANCH  20  22
ATOM     22  C   UNL     1       8.604   9.879  17.995  0.00  0.00    +0.000 C 
ATOM     23  C   UNL     1       9.005   9.850  19.492  0.00  0.00    +0.000 C 
ATOM     24  C   UNL     1      10.249  10.717  19.785  0.00  0.00    +0.000 C 
ATOM     25  C   UNL     1      10.157  11.988  19.027  0.00  0.00    +0.000 A 
ATOM     26  N   UNL     1      10.936  13.094  19.196  0.00  0.00    +0.000 N 
ATOM     27  N   UNL     1      10.635  14.079  18.328  0.00  0.00    +0.000 NA
ATOM     28  C   UNL     1       9.625  13.579  17.606  0.00  0.00    +0.000 A 
ATOM     29  C   UNL     1       9.289  12.272  17.997  0.00  0.00    +0.000 A 
ATOM     30  C   UNL     1       8.259  11.316  17.517  0.00  0.00    +0.000 C 
ATOM     31  H   UNL     1      11.686  13.248  19.859  0.00  0.00    +0.000 HD
ENDBRANCH  20  22
ENDBRANCH   2  18
TORSDOF 5
ENDMDL
MODEL 9
REMARK VINA RESULT:      -8.0      3.198      8.542
REMARK  Name = 
REMARK  5 active torsions:
REMARK  status: ('A' for Active; 'I' for Inactive)
REMARK    1  A    between atoms: C_2  and  C_17
REMARK    2  A    between atoms: N_3  and  C_4
REMARK    3  A    between atoms: C_9  and  O_10
REMARK    4  A    between atoms: O_10  and  C_11
REMARK    5  A    between atoms: N_19  and  C_20
REMARK                            x       y       z     vdW  Elec       q    Type
REMARK                         _______ _______ _______ _____ _____    ______ ____
ROOT
ATOM      1  O   UNL     1       4.316   5.232  20.072  0.00  0.00    +0.000 OA
ATOM      2  C   UNL     1       3.607   5.890  19.319  0.00  0.00    +0.000 C 
ATOM      3  N   UNL     1       3.850   6.218  17.997  0.00  0.00    +0.000 N 
ATOM      4  H   UNL     1       3.326   7.003  17.620  0.00  0.00    +0.000 HD
ENDROOT
BRANCH   3   5
ATOM      5  C   UNL     1       4.941   5.726  17.250  0.00  0.00    +0.000 A 
ATOM      6  C   UNL     1       6.225   6.260  17.439  0.00  0.00    +0.000 A 
ATOM      7  C   UNL     1       7.317   5.774  16.716  0.00  0.00    +0.000 A 
ATOM      8  C   UNL     1       7.124   4.800  15.746  0.00  0.00    +0.000 A 
ATOM      9  C   UNL     1       5.848   4.283  15.530  0.00  0.00    +0.000 A 
ATOM     10  C   UNL     1       4.762   4.678  16.330  0.00  0.00    +0.000 A 
BRANCH  10  11
ATOM     11  O   UNL     1       3.491   4.137  16.199  0.00  0.00    +0.000 OA
BRANCH  11  12
ATOM     12  C   UNL     1       2.982   3.405  17.254  0.00  0.00    +0.000 A 
ATOM     13  C   UNL     1       3.748   2.462  17.950  0.00  0.00    +0.000 A 
ATOM     14  C   UNL     1       3.150   1.652  18.915  0.00  0.00    +0.000 A 
ATOM     15  C   UNL     1       1.808   1.839  19.244  0.00  0.00    +0.000 A 
ATOM     16  C   UNL     1       1.068   2.842  18.617  0.00  0.00    +0.000 A 
ATOM     17  C   UNL     1       1.654   3.628  17.620  0.00  0.00    +0.000 A 
ENDBRANCH  11  12
ENDBRANCH  10  11
ENDBRANCH   3   5
BRANCH   2  18
ATOM     18  C   UNL     1       2.315   6.508  19.888  0.00  0.00    +0.000 C 
ATOM     19  O   UNL     1       1.581   5.854  20.611  0.00  0.00    +0.000 OA
ATOM     20  N   UNL     1       2.120   7.822  19.511  0.00  0.00    +0.000 N 
ATOM     21  H   UNL     1       2.843   8.212  18.902  0.00  0.00    +0.000 HD
BRANCH  20  22
ATOM     22  C   UNL     1       1.061   8.696  19.999  0.00  0.00    +0.000 C 
ATOM     23  C   UNL     1       1.034  10.055  19.253  0.00  0.00    +0.000 C 
ATOM     24  C   UNL     1      -0.211  10.897  19.609  0.00  0.00    +0.000 C 
ATOM     25  C   UNL     1      -0.474  10.803  21.065  0.00  0.00    +0.000 A 
ATOM     26  N   UNL     1      -1.333  11.575  21.789  0.00  0.00    +0.000 N 
ATOM     27  N   UNL     1      -1.382  11.220  23.087  0.00  0.00    +0.000 NA
ATOM     28  C   UNL     1      -0.514  10.206  23.181  0.00  0.00    +0.000 A 
ATOM     29  C   UNL     1       0.078   9.899  21.945  0.00  0.00    +0.000 A 
ATOM     30  C   UNL     1       1.084   8.884  21.541  0.00  0.00    +0.000 C 
ATOM     31  H   UNL     1      -1.918  12.341  21.475  0.00  0.00    +0.000 HD
ENDBRANCH  20  22
ENDBRANCH   2  18
TORSDOF 5
ENDMDL
