MODEL 1
REMARK VINA RESULT:      -8.2      0.000      0.000
REMARK  Name = 
REMARK  6 active torsions:
REMARK  status: ('A' for Active; 'I' for Inactive)
REMARK    1  A    between atoms: C_2  and  C_15
REMARK    2  A    between atoms: N_3  and  C_4
REMARK    3  A    between atoms: C_4  and  C_5
REMARK    4  A    between atoms: C_5  and  C_6
REMARK    5  A    between atoms: C_18  and  C_19
REMARK    6  A    between atoms: C_19  and  N_20
REMARK                            x       y       z     vdW  Elec       q    Type
REMARK                         _______ _______ _______ _____ _____    ______ ____
ROOT
ATOM      1  O   UNL     1       3.114   5.537  19.766  0.00  0.00    +0.000 OA
ATOM      2  C   UNL     1       3.027   6.254  18.775  0.00  0.00    +0.000 C 
ATOM      3  N   UNL     1       3.570   5.930  17.548  0.00  0.00    +0.000 N 
ATOM      4  H   UNL     1       3.591   6.621  16.811  0.00  0.00    +0.000 HD
ENDROOT
BRANCH   2   5
ATOM      5  C   UNL     1       2.333   7.573  18.863  0.00  0.00    +0.000 A 
ATOM      6  C   UNL     1       2.352   8.420  17.749  0.00  0.00    +0.000 A 
ATOM      7  C   UNL     1       1.724   9.671  17.800  0.00  0.00    +0.000 A 
ATOM      8  C   UNL     1       1.089  10.099  18.975  0.00  0.00    +0.000 A 
ATOM      9  C   UNL     1       1.072   9.244  20.087  0.00  0.00    +0.000 A 
ATOM     10  C   UNL     1       1.695   7.993  20.036  0.00  0.00    +0.000 A 
BRANCH   8  11
ATOM     11  C   UNL     1       0.433  11.463  19.047  0.00  0.00    +0.000 C 
BRANCH  11  12
ATOM     12  N   UNL     1       1.297  12.456  19.653  0.00  0.00    +0.000 N 
ATOM     13  C   UNL     1       2.239  13.158  18.966  0.00  0.00    +0.000 C 
ATOM     14  O   UNL     1       2.472  13.095  17.768  0.00  0.00    +0.000 OA
ATOM     15  C   UNL     1       2.979  14.043  19.923  0.00  0.00    +0.000 C 
ATOM     16  C   UNL     1       2.198  13.931  21.218  0.00  0.00    +0.000 C 
ATOM     17  C   UNL     1       1.192  12.848  20.955  0.00  0.00    +0.000 C 
ATOM     18  O   UNL     1       0.391  12.441  21.781  0.00  0.00    +0.000 OA
ENDBRANCH  11  12
ENDBRANCH   8  11
ENDBRANCH   2   5
BRANCH   3  19
ATOM     19  C   UNL     1       4.281   4.678  17.360  0.00  0.00    +0.000 C 
BRANCH  19  20
ATOM     20  C   UNL     1       5.526   4.914  16.493  0.00  0.00    +0.000 C 
ATOM     21  C   UNL     1       5.167   5.505  15.069  0.00  0.00    +0.000 C 
ATOM     22  C   UNL     1       6.238   4.565  14.483  0.00  0.00    +0.000 C 
ATOM     23  C   UNL     1       5.973   3.636  15.684  0.00  0.00    +0.000 C 
BRANCH  20  24
ATOM     24  C   UNL     1       6.678   5.776  17.257  0.00  0.00    +0.000 A 
ATOM     25  C   UNL     1       6.970   7.113  16.917  0.00  0.00    +0.000 A 
ATOM     26  C   UNL     1       7.783   7.924  17.714  0.00  0.00    +0.000 A 
ATOM     27  C   UNL     1       8.364   7.407  18.864  0.00  0.00    +0.000 A 
ATOM     28  C   UNL     1       8.171   6.070  19.189  0.00  0.00    +0.000 A 
ATOM     29  C   UNL     1       7.346   5.268  18.391  0.00  0.00    +0.000 A 
ENDBRANCH  20  24
ENDBRANCH  19  20
ENDBRANCH   3  19
TORSDOF 6
ENDMDL
MODEL 2
REMARK VINA RESULT:      -8.1      2.460      8.898
REMARK  Name = 
REMARK  6 active torsions:
REMARK  status: ('A' for Active; 'I' for Inactive)
REMARK    1  A    between atoms: C_2  and  C_15
REMARK    2  A    between atoms: N_3  and  C_4
REMARK    3  A    between atoms: C_4  and  C_5
REMARK    4  A    between atoms: C_5  and  C_6
REMARK    5  A    between atoms: C_18  and  C_19
REMARK    6  A    between atoms: C_19  and  N_20
REMARK                            x       y       z     vdW  Elec       q    Type
REMARK                         _______ _______ _______ _____ _____    ______ ____
ROOT
ATOM      1  O   UNL     1      -0.234   8.943  21.205  0.00  0.00    +0.000 OA
ATOM      2  C   UNL     1       0.660   9.329  20.460  0.00  0.00    +0.000 C 
ATOM      3  N   UNL     1       0.918  10.660  20.201  0.00  0.00    +0.000 N 
ATOM      4  H   UNL     1       1.570  10.912  19.472  0.00  0.00    +0.000 HD
ENDROOT
BRANCH   2   5
ATOM      5  C   UNL     1       1.522   8.338  19.748  0.00  0.00    +0.000 A 
ATOM      6  C   UNL     1       1.848   7.141  20.395  0.00  0.00    +0.000 A 
ATOM      7  C   UNL     1       2.665   6.195  19.763  0.00  0.00    +0.000 A 
ATOM      8  C   UNL     1       3.186   6.446  18.486  0.00  0.00    +0.000 A 
ATOM      9  C   UNL     1       2.853   7.648  17.842  0.00  0.00    +0.000 A 
ATOM     10  C   UNL     1       2.034   8.592  18.470  0.00  0.00    +0.000 A 
BRANCH   8  11
ATOM     11  C   UNL     1       4.094   5.440  17.809  0.00  0.00    +0.000 C 
BRANCH  11  12
ATOM     12  N   UNL     1       5.485   5.845  17.847  0.00  0.00    +0.000 N 
ATOM     13  C   UNL     1       6.337   5.525  18.859  0.00  0.00    +0.000 C 
ATOM     14  O   UNL     1       6.087   4.840  19.840  0.00  0.00    +0.000 OA
ATOM     15  C   UNL     1       7.668   6.162  18.594  0.00  0.00    +0.000 C 
ATOM     16  C   UNL     1       7.547   6.709  17.184  0.00  0.00    +0.000 C 
ATOM     17  C   UNL     1       6.102   6.513  16.830  0.00  0.00    +0.000 C 
ATOM     18  O   UNL     1       5.601   6.863  15.773  0.00  0.00    +0.000 OA
ENDBRANCH  11  12
ENDBRANCH   8  11
ENDBRANCH   2   5
BRANCH   3  19
ATOM     19  C   UNL     1       0.126  11.703  20.830  0.00  0.00    +0.000 C 
BRANCH  19  20
ATOM     20  C   UNL     1      -0.565  12.549  19.751  0.00  0.00    +0.000 C 
ATOM     21  C   UNL     1       0.446  13.068  18.650  0.00  0.00    +0.000 C 
ATOM     22  C   UNL     1      -0.308  14.411  18.686  0.00  0.00    +0.000 C 
ATOM     23  C   UNL     1      -0.690  14.073  20.140  0.00  0.00    +0.000 C 
BRANCH  20  24
ATOM     24  C   UNL     1      -1.870  11.816  19.109  0.00  0.00    +0.000 A 
ATOM     25  C   UNL     1      -3.187  12.208  19.425  0.00  0.00    +0.000 A 
ATOM     26  C   UNL     1      -4.294  11.747  18.707  0.00  0.00    +0.000 A 
ATOM     27  C   UNL     1      -4.120  10.842  17.669  0.00  0.00    +0.000 A 
ATOM     28  C   UNL     1      -2.847  10.365  17.381  0.00  0.00    +0.000 A 
ATOM     29  C   UNL     1      -1.743  10.841  18.098  0.00  0.00    +0.000 A 
ENDBRANCH  20  24
ENDBRANCH  19  20
ENDBRANCH   3  19
TORSDOF 6
ENDMDL
MODEL 3
REMARK VINA RESULT:      -8.1      2.481      8.734
REMARK  Name = 
REMARK  6 active torsions:
REMARK  status: ('A' for Active; 'I' for Inactive)
REMARK    1  A    between atoms: C_2  and  C_15
REMARK    2  A    between atoms: N_3  and  C_4
REMARK    3  A    between atoms: C_4  and  C_5
REMARK    4  A    between atoms: C_5  and  C_6
REMARK    5  A    between atoms: C_18  and  C_19
REMARK    6  A    between atoms: C_19  and  N_20
REMARK                            x       y       z     vdW  Elec       q    Type
REMARK                         _______ _______ _______ _____ _____    ______ ____
ROOT
ATOM      1  O   UNL     1      -0.234   8.733  21.368  0.00  0.00    +0.000 OA
ATOM      2  C   UNL     1       0.641   9.120  20.601  0.00  0.00    +0.000 C 
ATOM      3  N   UNL     1       0.852  10.448  20.290  0.00  0.00    +0.000 N 
ATOM      4  H   UNL     1       1.489  10.694  19.546  0.00  0.00    +0.000 HD
ENDROOT
BRANCH   2   5
ATOM      5  C   UNL     1       1.530   8.133  19.920  0.00  0.00    +0.000 A 
ATOM      6  C   UNL     1       2.035   8.444  18.651  0.00  0.00    +0.000 A 
ATOM      7  C   UNL     1       2.860   7.536  17.976  0.00  0.00    +0.000 A 
ATOM      8  C   UNL     1       3.171   6.295  18.550  0.00  0.00    +0.000 A 
ATOM      9  C   UNL     1       2.662   5.990  19.823  0.00  0.00    +0.000 A 
ATOM     10  C   UNL     1       1.842   6.898  20.501  0.00  0.00    +0.000 A 
BRANCH   8  11
ATOM     11  C   UNL     1       4.038   5.296  17.813  0.00  0.00    +0.000 C 
BRANCH  11  12
ATOM     12  N   UNL     1       5.430   5.697  17.780  0.00  0.00    +0.000 N 
ATOM     13  C   UNL     1       5.988   6.405  16.760  0.00  0.00    +0.000 C 
ATOM     14  O   UNL     1       5.420   6.832  15.766  0.00  0.00    +0.000 OA
ATOM     15  C   UNL     1       7.451   6.584  17.036  0.00  0.00    +0.000 C 
ATOM     16  C   UNL     1       7.628   6.083  18.456  0.00  0.00    +0.000 C 
ATOM     17  C   UNL     1       6.299   5.482  18.809  0.00  0.00    +0.000 C 
ATOM     18  O   UNL     1       6.053   4.937  19.874  0.00  0.00    +0.000 OA
ENDBRANCH  11  12
ENDBRANCH   8  11
ENDBRANCH   2   5
BRANCH   3  19
ATOM     19  C   UNL     1       0.030  11.487  20.886  0.00  0.00    +0.000 C 
BRANCH  19  20
ATOM     20  C   UNL     1      -0.609  12.339  19.780  0.00  0.00    +0.000 C 
ATOM     21  C   UNL     1       0.443  12.808  18.694  0.00  0.00    +0.000 C 
ATOM     22  C   UNL     1      -0.267  14.176  18.693  0.00  0.00    +0.000 C 
ATOM     23  C   UNL     1      -0.691  13.872  20.143  0.00  0.00    +0.000 C 
BRANCH  20  24
ATOM     24  C   UNL     1      -1.923  11.640  19.119  0.00  0.00    +0.000 A 
ATOM     25  C   UNL     1      -3.226  12.141  19.320  0.00  0.00    +0.000 A 
ATOM     26  C   UNL     1      -4.320  11.693  18.575  0.00  0.00    +0.000 A 
ATOM     27  C   UNL     1      -4.151  10.695  17.626  0.00  0.00    +0.000 A 
ATOM     28  C   UNL     1      -2.900  10.114  17.456  0.00  0.00    +0.000 A 
ATOM     29  C   UNL     1      -1.807  10.577  18.199  0.00  0.00    +0.000 A 
ENDBRANCH  20  24
ENDBRANCH  19  20
ENDBRANCH   3  19
TORSDOF 6
ENDMDL
MODEL 4
REMARK VINA RESULT:      -8.1      2.594      8.872
REMARK  Name = 
REMARK  6 active torsions:
REMARK  status: ('A' for Active; 'I' for Inactive)
REMARK    1  A    between atoms: C_2  and  C_15
REMARK    2  A    between atoms: N_3  and  C_4
REMARK    3  A    between atoms: C_4  and  C_5
REMARK    4  A    between atoms: C_5  and  C_6
REMARK    5  A    between atoms: C_18  and  C_19
REMARK    6  A    between atoms: C_19  and  N_20
REMARK                            x       y       z     vdW  Elec       q    Type
REMARK                         _______ _______ _______ _____ _____    ______ ____
ROOT
ATOM      1  O   UNL     1       1.541   8.831  21.827  0.00  0.00    +0.000 OA
ATOM      2  C   UNL     1       1.250   8.561  20.667  0.00  0.00    +0.000 C 
ATOM      3  N   UNL     1       0.296   9.243  19.939  0.00  0.00    +0.000 N 
ATOM      4  H   UNL     1      -0.000   8.886  19.042  0.00  0.00    +0.000 HD
ENDROOT
BRANCH   2   5
ATOM      5  C   UNL     1       1.915   7.417  19.975  0.00  0.00    +0.000 A 
ATOM      6  C   UNL     1       1.967   6.176  20.622  0.00  0.00    +0.000 A 
ATOM      7  C   UNL     1       2.595   5.085  20.010  0.00  0.00    +0.000 A 
ATOM      8  C   UNL     1       3.202   5.227  18.754  0.00  0.00    +0.000 A 
ATOM      9  C   UNL     1       3.146   6.473  18.111  0.00  0.00    +0.000 A 
ATOM     10  C   UNL     1       2.514   7.563  18.718  0.00  0.00    +0.000 A 
BRANCH   8  11
ATOM     11  C   UNL     1       3.910   4.058  18.099  0.00  0.00    +0.000 C 
BRANCH  11  12
ATOM     12  N   UNL     1       5.262   4.391  17.699  0.00  0.00    +0.000 N 
ATOM     13  C   UNL     1       5.674   4.447  16.403  0.00  0.00    +0.000 C 
ATOM     14  O   UNL     1       4.987   4.273  15.406  0.00  0.00    +0.000 OA
ATOM     15  C   UNL     1       7.140   4.757  16.372  0.00  0.00    +0.000 C 
ATOM     16  C   UNL     1       7.482   5.095  17.810  0.00  0.00    +0.000 C 
ATOM     17  C   UNL     1       6.235   4.765  18.578  0.00  0.00    +0.000 C 
ATOM     18  O   UNL     1       6.127   4.873  19.789  0.00  0.00    +0.000 OA
ENDBRANCH  11  12
ENDBRANCH   8  11
ENDBRANCH   2   5
BRANCH   3  19
ATOM     19  C   UNL     1      -0.422  10.362  20.525  0.00  0.00    +0.000 C 
BRANCH  19  20
ATOM     20  C   UNL     1      -0.681  11.429  19.452  0.00  0.00    +0.000 C 
ATOM     21  C   UNL     1       0.644  11.875  18.711  0.00  0.00    +0.000 C 
ATOM     22  C   UNL     1       0.110  13.320  18.767  0.00  0.00    +0.000 C 
ATOM     23  C   UNL     1      -0.678  12.900  20.023  0.00  0.00    +0.000 C 
BRANCH  20  24
ATOM     24  C   UNL     1      -1.868  11.014  18.417  0.00  0.00    +0.000 A 
ATOM     25  C   UNL     1      -3.149  11.604  18.462  0.00  0.00    +0.000 A 
ATOM     26  C   UNL     1      -4.087  11.426  17.442  0.00  0.00    +0.000 A 
ATOM     27  C   UNL     1      -3.786  10.616  16.355  0.00  0.00    +0.000 A 
ATOM     28  C   UNL     1      -2.568   9.949  16.314  0.00  0.00    +0.000 A 
ATOM     29  C   UNL     1      -1.629  10.141  17.335  0.00  0.00    +0.000 A 
ENDBRANCH  20  24
ENDBRANCH  19  20
ENDBRANCH   3  19
TORSDOF 6
ENDMDL
MODEL 5
REMARK VINA RESULT:      -8.0      4.042      9.869
REMARK  Name = 
REMARK  6 active torsions:
REMARK  status: ('A' for Active; 'I' for Inactive)
REMARK    1  A    between atoms: C_2  and  C_15
REMARK    2  A    between atoms: N_3  and  C_4
REMARK    3  A    between atoms: C_4  and  C_5
REMARK    4  A    between atoms: C_5  and  C_6
REMARK    5  A    between atoms: C_18  and  C_19
REMARK    6  A    between atoms: C_19  and  N_20
REMARK                            x       y       z     vdW  Elec       q    Type
REMARK                         _______ _______ _______ _____ _____    ______ ____
ROOT
ATOM      1  O   UNL     1       0.250  11.750  19.063  0.00  0.00    +0.000 OA
ATOM      2  C   UNL     1      -0.143  10.633  18.744  0.00  0.00    +0.000 C 
ATOM      3  N   UNL     1      -1.411  10.379  18.261  0.00  0.00    +0.000 N 
ATOM      4  H   UNL     1      -1.724   9.425  18.151  0.00  0.00    +0.000 HD
ENDROOT
BRANCH   2   5
ATOM      5  C   UNL     1       0.754   9.450  18.901  0.00  0.00    +0.000 A 
ATOM      6  C   UNL     1       0.891   8.873  20.169  0.00  0.00    +0.000 A 
ATOM      7  C   UNL     1       1.735   7.771  20.357  0.00  0.00    +0.000 A 
ATOM      8  C   UNL     1       2.470   7.248  19.284  0.00  0.00    +0.000 A 
ATOM      9  C   UNL     1       2.327   7.831  18.016  0.00  0.00    +0.000 A 
ATOM     10  C   UNL     1       1.481   8.928  17.825  0.00  0.00    +0.000 A 
BRANCH   8  11
ATOM     11  C   UNL     1       3.407   6.075  19.486  0.00  0.00    +0.000 C 
BRANCH  11  12
ATOM     12  N   UNL     1       2.920   4.868  18.850  0.00  0.00    +0.000 N 
ATOM     13  C   UNL     1       3.427   4.368  17.690  0.00  0.00    +0.000 C 
ATOM     14  O   UNL     1       4.362   4.818  17.044  0.00  0.00    +0.000 OA
ATOM     15  C   UNL     1       2.641   3.152  17.300  0.00  0.00    +0.000 C 
ATOM     16  C   UNL     1       1.755   2.878  18.500  0.00  0.00    +0.000 C 
ATOM     17  C   UNL     1       1.964   4.064  19.397  0.00  0.00    +0.000 C 
ATOM     18  O   UNL     1       1.389   4.228  20.461  0.00  0.00    +0.000 OA
ENDBRANCH  11  12
ENDBRANCH   8  11
ENDBRANCH   2   5
BRANCH   3  19
ATOM     19  C   UNL     1      -2.367  11.458  18.086  0.00  0.00    +0.000 C 
BRANCH  19  20
ATOM     20  C   UNL     1      -3.417  11.055  17.041  0.00  0.00    +0.000 C 
ATOM     21  C   UNL     1      -3.238   9.561  16.549  0.00  0.00    +0.000 C 
ATOM     22  C   UNL     1      -3.556  10.062  15.126  0.00  0.00    +0.000 C 
ATOM     23  C   UNL     1      -3.004  11.432  15.565  0.00  0.00    +0.000 C 
BRANCH  20  24
ATOM     24  C   UNL     1      -4.941  11.381  17.513  0.00  0.00    +0.000 A 
ATOM     25  C   UNL     1      -5.596  10.636  18.516  0.00  0.00    +0.000 A 
ATOM     26  C   UNL     1      -6.802  11.053  19.086  0.00  0.00    +0.000 A 
ATOM     27  C   UNL     1      -7.415  12.215  18.639  0.00  0.00    +0.000 A 
ATOM     28  C   UNL     1      -6.847  12.933  17.594  0.00  0.00    +0.000 A 
ATOM     29  C   UNL     1      -5.633  12.514  17.036  0.00  0.00    +0.000 A 
ENDBRANCH  20  24
ENDBRANCH  19  20
ENDBRANCH   3  19
TORSDOF 6
ENDMDL
MODEL 6
REMARK VINA RESULT:      -8.0      2.540      8.966
REMARK  Name = 
REMARK  6 active torsions:
REMARK  status: ('A' for Active; 'I' for Inactive)
REMARK    1  A    between atoms: C_2  and  C_15
REMARK    2  A    between atoms: N_3  and  C_4
REMARK    3  A    between atoms: C_4  and  C_5
REMARK    4  A    between atoms: C_5  and  C_6
REMARK    5  A    between atoms: C_18  and  C_19
REMARK    6  A    between atoms: C_19  and  N_20
REMARK                            x       y       z     vdW  Elec       q    Type
REMARK                         _______ _______ _______ _____ _____    ______ ____
ROOT
ATOM      1  O   UNL     1       0.740   8.862  21.875  0.00  0.00    +0.000 OA
ATOM      2  C   UNL     1       0.961   9.041  20.682  0.00  0.00    +0.000 C 
ATOM      3  N   UNL     1       0.535  10.153  19.985  0.00  0.00    +0.000 N 
ATOM      4  H   UNL     1       0.622  10.178  18.979  0.00  0.00    +0.000 HD
ENDROOT
BRANCH   2   5
ATOM      5  C   UNL     1       1.701   8.010  19.895  0.00  0.00    +0.000 A 
ATOM      6  C   UNL     1       2.136   8.332  18.604  0.00  0.00    +0.000 A 
ATOM      7  C   UNL     1       2.820   7.386  17.831  0.00  0.00    +0.000 A 
ATOM      8  C   UNL     1       3.055   6.097  18.330  0.00  0.00    +0.000 A 
ATOM      9  C   UNL     1       2.616   5.781  19.625  0.00  0.00    +0.000 A 
ATOM     10  C   UNL     1       1.937   6.726  20.401  0.00  0.00    +0.000 A 
BRANCH   8  11
ATOM     11  C   UNL     1       3.768   5.059  17.488  0.00  0.00    +0.000 C 
BRANCH  11  12
ATOM     12  N   UNL     1       5.202   5.261  17.466  0.00  0.00    +0.000 N 
ATOM     13  C   UNL     1       6.057   4.708  18.369  0.00  0.00    +0.000 C 
ATOM     14  O   UNL     1       5.769   3.950  19.283  0.00  0.00    +0.000 OA
ATOM     15  C   UNL     1       7.448   5.183  18.076  0.00  0.00    +0.000 C 
ATOM     16  C   UNL     1       7.325   5.908  16.749  0.00  0.00    +0.000 C 
ATOM     17  C   UNL     1       5.848   5.956  16.486  0.00  0.00    +0.000 C 
ATOM     18  O   UNL     1       5.342   6.497  15.515  0.00  0.00    +0.000 OA
ENDBRANCH  11  12
ENDBRANCH   8  11
ENDBRANCH   2   5
BRANCH   3  19
ATOM     19  C   UNL     1      -0.207  11.207  20.654  0.00  0.00    +0.000 C 
BRANCH  19  20
ATOM     20  C   UNL     1      -0.761  12.191  19.613  0.00  0.00    +0.000 C 
ATOM     21  C   UNL     1       0.373  12.792  18.687  0.00  0.00    +0.000 C 
ATOM     22  C   UNL     1      -0.349  14.149  18.797  0.00  0.00    +0.000 C 
ATOM     23  C   UNL     1      -0.890  13.666  20.157  0.00  0.00    +0.000 C 
BRANCH  20  24
ATOM     24  C   UNL     1      -2.007  11.579  18.762  0.00  0.00    +0.000 A 
ATOM     25  C   UNL     1      -3.345  11.956  19.006  0.00  0.00    +0.000 A 
ATOM     26  C   UNL     1      -4.384  11.619  18.135  0.00  0.00    +0.000 A 
ATOM     27  C   UNL     1      -4.123  10.856  17.005  0.00  0.00    +0.000 A 
ATOM     28  C   UNL     1      -2.834  10.393  16.773  0.00  0.00    +0.000 A 
ATOM     29  C   UNL     1      -1.797  10.744  17.645  0.00  0.00    +0.000 A 
ENDBRANCH  20  24
ENDBRANCH  19  20
ENDBRANCH   3  19
TORSDOF 6
ENDMDL
MODEL 7
REMARK VINA RESULT:      -8.0      2.949      9.154
REMARK  Name = 
REMARK  6 active torsions:
REMARK  status: ('A' for Active; 'I' for Inactive)
REMARK    1  A    between atoms: C_2  and  C_15
REMARK    2  A    between atoms: N_3  and  C_4
REMARK    3  A    between atoms: C_4  and  C_5
REMARK    4  A    between atoms: C_5  and  C_6
REMARK    5  A    between atoms: C_18  and  C_19
REMARK    6  A    between atoms: C_19  and  N_20
REMARK                            x       y       z     vdW  Elec       q    Type
REMARK                         _______ _______ _______ _____ _____    ______ ____
ROOT
ATOM      1  O   UNL     1      -0.225   9.036  21.358  0.00  0.00    +0.000 OA
ATOM      2  C   UNL     1       0.637   9.380  20.557  0.00  0.00    +0.000 C 
ATOM      3  N   UNL     1       0.869  10.694  20.202  0.00  0.00    +0.000 N 
ATOM      4  H   UNL     1       1.492  10.903  19.435  0.00  0.00    +0.000 HD
ENDROOT
BRANCH   2   5
ATOM      5  C   UNL     1       1.483   8.353  19.880  0.00  0.00    +0.000 A 
ATOM      6  C   UNL     1       1.925   8.598  18.574  0.00  0.00    +0.000 A 
ATOM      7  C   UNL     1       2.708   7.651  17.903  0.00  0.00    +0.000 A 
ATOM      8  C   UNL     1       3.039   6.437  18.520  0.00  0.00    +0.000 A 
ATOM      9  C   UNL     1       2.595   6.198  19.829  0.00  0.00    +0.000 A 
ATOM     10  C   UNL     1       1.816   7.145  20.504  0.00  0.00    +0.000 A 
BRANCH   8  11
ATOM     11  C   UNL     1       3.861   5.395  17.788  0.00  0.00    +0.000 C 
BRANCH  11  12
ATOM     12  N   UNL     1       3.453   4.045  18.117  0.00  0.00    +0.000 N 
ATOM     13  C   UNL     1       4.185   3.203  18.896  0.00  0.00    +0.000 C 
ATOM     14  O   UNL     1       5.244   3.453  19.453  0.00  0.00    +0.000 OA
ATOM     15  C   UNL     1       3.489   1.877  18.968  0.00  0.00    +0.000 C 
ATOM     16  C   UNL     1       2.143   2.125  18.314  0.00  0.00    +0.000 C 
ATOM     17  C   UNL     1       2.252   3.512  17.750  0.00  0.00    +0.000 C 
ATOM     18  O   UNL     1       1.369   4.065  17.112  0.00  0.00    +0.000 OA
ENDBRANCH  11  12
ENDBRANCH   8  11
ENDBRANCH   2   5
BRANCH   3  19
ATOM     19  C   UNL     1       0.089  11.768  20.791  0.00  0.00    +0.000 C 
BRANCH  19  20
ATOM     20  C   UNL     1      -0.514  12.638  19.679  0.00  0.00    +0.000 C 
ATOM     21  C   UNL     1       0.592  13.303  18.763  0.00  0.00    +0.000 C 
ATOM     22  C   UNL     1      -0.264  14.584  18.774  0.00  0.00    +0.000 C 
ATOM     23  C   UNL     1      -0.811  14.118  20.137  0.00  0.00    +0.000 C 
BRANCH  20  24
ATOM     24  C   UNL     1      -1.658  11.862  18.817  0.00  0.00    +0.000 A 
ATOM     25  C   UNL     1      -1.350  10.814  17.925  0.00  0.00    +0.000 A 
ATOM     26  C   UNL     1      -2.336   9.996  17.367  0.00  0.00    +0.000 A 
ATOM     27  C   UNL     1      -3.674  10.228  17.655  0.00  0.00    +0.000 A 
ATOM     28  C   UNL     1      -4.026  11.303  18.461  0.00  0.00    +0.000 A 
ATOM     29  C   UNL     1      -3.031  12.111  19.025  0.00  0.00    +0.000 A 
ENDBRANCH  20  24
ENDBRANCH  19  20
ENDBRANCH   3  19
TORSDOF 6
ENDMDL
MODEL 8
REMARK VINA RESULT:      -7.9      2.123      3.458
REMARK  Name = 
REMARK  6 active torsions:
REMARK  status: ('A' for Active; 'I' for Inactive)
REMARK    1  A    between atoms: C_2  and  C_15
REMARK    2  A    between atoms: N_3  and  C_4
REMARK    3  A    between atoms: C_4  and  C_5
REMARK    4  A    between atoms: C_5  and  C_6
REMARK    5  A    between atoms: C_18  and  C_19
REMARK    6  A    between atoms: C_19  and  N_20
REMARK                            x       y       z     vdW  Elec       q    Type
REMARK                         _______ _______ _______ _____ _____    ______ ____
ROOT
ATOM      1  O   UNL     1       1.608   5.577  20.857  0.00  0.00    +0.000 OA
ATOM      2  C   UNL     1       2.270   6.302  20.123  0.00  0.00    +0.000 C 
ATOM      3  N   UNL     1       3.478   5.930  19.568  0.00  0.00    +0.000 N 
ATOM      4  H   UNL     1       4.043   6.618  19.091  0.00  0.00    +0.000 HD
ENDROOT
BRANCH   2   5
ATOM      5  C   UNL     1       1.797   7.684  19.811  0.00  0.00    +0.000 A 
ATOM      6  C   UNL     1       2.006   8.193  18.524  0.00  0.00    +0.000 A 
ATOM      7  C   UNL     1       1.589   9.490  18.200  0.00  0.00    +0.000 A 
ATOM      8  C   UNL     1       0.980  10.303  19.166  0.00  0.00    +0.000 A 
ATOM      9  C   UNL     1       0.772   9.785  20.454  0.00  0.00    +0.000 A 
ATOM     10  C   UNL     1       1.184   8.489  20.779  0.00  0.00    +0.000 A 
BRANCH   8  11
ATOM     11  C   UNL     1       0.553  11.717  18.831  0.00  0.00    +0.000 C 
BRANCH  11  12
ATOM     12  N   UNL     1      -0.851  11.947  19.109  0.00  0.00    +0.000 N 
ATOM     13  C   UNL     1      -1.300  12.757  20.107  0.00  0.00    +0.000 C 
ATOM     14  O   UNL     1      -0.620  13.424  20.873  0.00  0.00    +0.000 OA
ATOM     15  C   UNL     1      -2.798  12.704  20.138  0.00  0.00    +0.000 C 
ATOM     16  C   UNL     1      -3.172  11.934  18.886  0.00  0.00    +0.000 C 
ATOM     17  C   UNL     1      -1.861  11.443  18.344  0.00  0.00    +0.000 C 
ATOM     18  O   UNL     1      -1.748  10.747  17.347  0.00  0.00    +0.000 OA
ENDBRANCH  11  12
ENDBRANCH   8  11
ENDBRANCH   2   5
BRANCH   3  19
ATOM     19  C   UNL     1       4.035   4.613  19.823  0.00  0.00    +0.000 C 
BRANCH  19  20
ATOM     20  C   UNL     1       3.972   3.769  18.543  0.00  0.00    +0.000 C 
ATOM     21  C   UNL     1       2.500   3.638  17.977  0.00  0.00    +0.000 C 
ATOM     22  C   UNL     1       2.820   2.162  17.670  0.00  0.00    +0.000 C 
ATOM     23  C   UNL     1       3.841   2.222  18.823  0.00  0.00    +0.000 C 
BRANCH  20  24
ATOM     24  C   UNL     1       5.038   4.252  17.410  0.00  0.00    +0.000 A 
ATOM     25  C   UNL     1       6.408   4.431  17.691  0.00  0.00    +0.000 A 
ATOM     26  C   UNL     1       7.358   4.615  16.683  0.00  0.00    +0.000 A 
ATOM     27  C   UNL     1       6.959   4.663  15.354  0.00  0.00    +0.000 A 
ATOM     28  C   UNL     1       5.608   4.576  15.040  0.00  0.00    +0.000 A 
ATOM     29  C   UNL     1       4.665   4.381  16.056  0.00  0.00    +0.000 A 
ENDBRANCH  20  24
ENDBRANCH  19  20
ENDBRANCH   3  19
TORSDOF 6
ENDMDL
MODEL 9
REMARK VINA RESULT:      -7.9      2.116      3.305
REMARK  Name = 
REMARK  6 active torsions:
REMARK  status: ('A' for Active; 'I' for Inactive)
REMARK    1  A    between atoms: C_2  and  C_15
REMARK    2  A    between atoms: N_3  and  C_4
REMARK    3  A    between atoms: C_4  and  C_5
REMARK    4  A    between atoms: C_5  and  C_6
REMARK    5  A    between atoms: C_18  and  C_19
REMARK    6  A    between atoms: C_19  and  N_20
REMARK                            x       y       z     vdW  Elec       q    Type
REMARK                         _______ _______ _______ _____ _____    ______ ____
ROOT
ATOM      1  O   UNL     1       1.642   5.562  20.838  0.00  0.00    +0.000 OA
ATOM      2  C   UNL     1       2.299   6.282  20.095  0.00  0.00    +0.000 C 
ATOM      3  N   UNL     1       3.504   5.907  19.536  0.00  0.00    +0.000 N 
ATOM      4  H   UNL     1       4.067   6.591  19.051  0.00  0.00    +0.000 HD
ENDROOT
BRANCH   2   5
ATOM      5  C   UNL     1       1.824   7.662  19.776  0.00  0.00    +0.000 A 
ATOM      6  C   UNL     1       2.042   8.169  18.489  0.00  0.00    +0.000 A 
ATOM      7  C   UNL     1       1.624   9.463  18.159  0.00  0.00    +0.000 A 
ATOM      8  C   UNL     1       1.003  10.276  19.118  0.00  0.00    +0.000 A 
ATOM      9  C   UNL     1       0.786   9.761  20.405  0.00  0.00    +0.000 A 
ATOM     10  C   UNL     1       1.200   8.466  20.736  0.00  0.00    +0.000 A 
BRANCH   8  11
ATOM     11  C   UNL     1       0.574  11.688  18.776  0.00  0.00    +0.000 C 
BRANCH  11  12
ATOM     12  N   UNL     1      -0.838  11.905  19.014  0.00  0.00    +0.000 N 
ATOM     13  C   UNL     1      -1.826  11.349  18.261  0.00  0.00    +0.000 C 
ATOM     14  O   UNL     1      -1.687  10.577  17.323  0.00  0.00    +0.000 OA
ATOM     15  C   UNL     1      -3.152  11.842  18.757  0.00  0.00    +0.000 C 
ATOM     16  C   UNL     1      -2.821  12.581  20.039  0.00  0.00    +0.000 C 
ATOM     17  C   UNL     1      -1.321  12.618  20.072  0.00  0.00    +0.000 C 
ATOM     18  O   UNL     1      -0.668  13.166  20.946  0.00  0.00    +0.000 OA
ENDBRANCH  11  12
ENDBRANCH   8  11
ENDBRANCH   2   5
BRANCH   3  19
ATOM     19  C   UNL     1       4.063   4.592  19.797  0.00  0.00    +0.000 C 
BRANCH  19  20
ATOM     20  C   UNL     1       4.013   3.745  18.518  0.00  0.00    +0.000 C 
ATOM     21  C   UNL     1       2.543   3.596  17.949  0.00  0.00    +0.000 C 
ATOM     22  C   UNL     1       2.882   2.124  17.644  0.00  0.00    +0.000 C 
ATOM     23  C   UNL     1       3.899   2.197  18.799  0.00  0.00    +0.000 C 
BRANCH  20  24
ATOM     24  C   UNL     1       5.076   4.239  17.387  0.00  0.00    +0.000 A 
ATOM     25  C   UNL     1       6.435   4.472  17.680  0.00  0.00    +0.000 A 
ATOM     26  C   UNL     1       7.391   4.666  16.679  0.00  0.00    +0.000 A 
ATOM     27  C   UNL     1       7.007   4.671  15.345  0.00  0.00    +0.000 A 
ATOM     28  C   UNL     1       5.664   4.531  15.017  0.00  0.00    +0.000 A 
ATOM     29  C   UNL     1       4.715   4.326  16.026  0.00  0.00    +0.000 A 
ENDBRANCH  20  24
ENDBRANCH  19  20
ENDBRANCH   3  19
TORSDOF 6
ENDMDL
