MODEL 1
REMARK VINA RESULT:      -9.1      0.000      0.000
REMARK  Name = 
REMARK  6 active torsions:
REMARK  status: ('A' for Active; 'I' for Inactive)
REMARK    1  A    between atoms: C_1  and  C_2
REMARK    2  A    between atoms: C_5  and  C_6
REMARK    3  A    between atoms: C_9  and  C_10
REMARK    4  A    between atoms: C_10  and  C_11
REMARK    5  A    between atoms: C_10  and  N_12
REMARK    6  A    between atoms: N_12  and  C_13
REMARK                            x       y       z     vdW  Elec       q    Type
REMARK                         _______ _______ _______ _____ _____    ______ ____
ROOT
ATOM      1  C   UNL     1       6.574   5.885  16.191  0.00  0.00    +0.000 C 
ATOM      2  C   UNL     1       6.982   4.442  16.525  0.00  0.00    +0.000 C 
ENDROOT
BRANCH   1   6
ATOM      3  C   UNL     1       8.212   8.410  18.124  0.00  0.00    +0.000 A 
ATOM      4  N   UNL     1       8.416   7.355  18.931  0.00  0.00    +0.000 NA
ATOM      5  O   UNL     1       7.815   6.297  18.250  0.00  0.00    +0.000 OA
ATOM      6  C   UNL     1       7.307   6.820  17.101  0.00  0.00    +0.000 A 
ATOM      7  N   UNL     1       7.532   8.107  16.969  0.00  0.00    +0.000 NA
BRANCH   3  12
ATOM      8  C   UNL     1       9.948  13.774  19.342  0.00  0.00    +0.000 C 
ATOM      9  C   UNL     1       9.495  12.388  19.005  0.00  0.00    +0.000 A 
ATOM     10  C   UNL     1       8.731  12.133  17.862  0.00  0.00    +0.000 A 
ATOM     11  C   UNL     1       8.313  10.831  17.570  0.00  0.00    +0.000 A 
ATOM     12  C   UNL     1       8.648   9.766  18.417  0.00  0.00    +0.000 A 
ATOM     13  C   UNL     1       9.415  10.027  19.558  0.00  0.00    +0.000 A 
ATOM     14  C   UNL     1       9.832  11.321  19.840  0.00  0.00    +0.000 A 
ATOM     15  F   UNL     1      10.570  11.540  20.937  0.00  0.00    +0.000 F 
ENDBRANCH   3  12
ENDBRANCH   1   6
BRANCH   1  16
ATOM     16  N   UNL     1       5.097   5.986  16.267  0.00  0.00    +0.000 N 
ATOM     17  H   UNL     1       4.668   5.543  15.455  0.00  0.00    +0.000 HD
BRANCH  16  18
ATOM     18  C   UNL     1       4.444   5.621  17.458  0.00  0.00    +0.000 A 
ATOM     19  C   UNL     1       3.692   6.537  18.204  0.00  0.00    +0.000 A 
ATOM     20  C   UNL     1       2.976   6.148  19.337  0.00  0.00    +0.000 A 
ATOM     21  C   UNL     1       2.976   4.819  19.732  0.00  0.00    +0.000 A 
ATOM     22  C   UNL     1       3.671   3.862  18.991  0.00  0.00    +0.000 A 
ATOM     23  C   UNL     1       4.385   4.268  17.844  0.00  0.00    +0.000 A 
ATOM     24  C   UNL     1       3.518   2.414  19.374  0.00  0.00    +0.000 C 
ATOM     25  C   UNL     1       3.348   2.264  20.881  0.00  0.00    +0.000 C 
ATOM     26  C   UNL     1       2.284   3.192  21.417  0.00  0.00    +0.000 C 
ATOM     27  O   UNL     1       1.570   2.900  22.374  0.00  0.00    +0.000 OA
ATOM     28  N   UNL     1       2.234   4.438  20.852  0.00  0.00    +0.000 N 
ATOM     29  H   UNL     1       1.614   5.101  21.301  0.00  0.00    +0.000 HD
ENDBRANCH  16  18
ENDBRANCH   1  16
TORSDOF 4
ENDMDL
MODEL 2
REMARK VINA RESULT:      -9.0      6.230      8.736
REMARK  Name = 
REMARK  6 active torsions:
REMARK  status: ('A' for Active; 'I' for Inactive)
REMARK    1  A    between atoms: C_1  and  C_2
REMARK    2  A    between atoms: C_5  and  C_6
REMARK    3  A    between atoms: C_9  and  C_10
REMARK    4  A    between atoms: C_10  and  C_11
REMARK    5  A    between atoms: C_10  and  N_12
REMARK    6  A    between atoms: N_12  and  C_13
REMARK                            x       y       z     vdW  Elec       q    Type
REMARK                         _______ _______ _______ _____ _____    ______ ____
ROOT
ATOM      1  C   UNL     1       0.836   8.826  20.969  0.00  0.00    +0.000 C 
ATOM      2  C   UNL     1       1.472   9.093  22.343  0.00  0.00    +0.000 C 
ENDROOT
BRANCH   1   6
ATOM      3  C   UNL     1       2.776   6.482  19.089  0.00  0.00    +0.000 A 
ATOM      4  N   UNL     1       2.376   5.678  20.088  0.00  0.00    +0.000 NA
ATOM      5  O   UNL     1       1.589   6.507  20.886  0.00  0.00    +0.000 OA
ATOM      6  C   UNL     1       1.594   7.730  20.288  0.00  0.00    +0.000 A 
ATOM      7  N   UNL     1       2.296   7.767  19.179  0.00  0.00    +0.000 NA
BRANCH   3  12
ATOM      8  C   UNL     1       6.230   4.794  14.789  0.00  0.00    +0.000 C 
ATOM      9  C   UNL     1       5.331   5.251  15.895  0.00  0.00    +0.000 A 
ATOM     10  C   UNL     1       5.098   6.611  16.124  0.00  0.00    +0.000 A 
ATOM     11  C   UNL     1       4.259   7.015  17.167  0.00  0.00    +0.000 A 
ATOM     12  C   UNL     1       3.645   6.069  17.998  0.00  0.00    +0.000 A 
ATOM     13  C   UNL     1       3.878   4.710  17.762  0.00  0.00    +0.000 A 
ATOM     14  C   UNL     1       4.708   4.314  16.721  0.00  0.00    +0.000 A 
ATOM     15  F   UNL     1       4.910   3.005  16.515  0.00  0.00    +0.000 F 
ENDBRANCH   3  12
ENDBRANCH   1   6
BRANCH   1  16
ATOM     16  N   UNL     1       0.790  10.102  20.216  0.00  0.00    +0.000 N 
ATOM     17  H   UNL     1       1.476  10.094  19.462  0.00  0.00    +0.000 HD
BRANCH  16  18
ATOM     18  C   UNL     1      -0.452  10.597  19.778  0.00  0.00    +0.000 A 
ATOM     19  C   UNL     1      -1.148  11.586  20.484  0.00  0.00    +0.000 A 
ATOM     20  C   UNL     1      -2.337  12.135  19.999  0.00  0.00    +0.000 A 
ATOM     21  C   UNL     1      -2.840  11.720  18.775  0.00  0.00    +0.000 A 
ATOM     22  C   UNL     1      -2.154  10.773  18.013  0.00  0.00    +0.000 A 
ATOM     23  C   UNL     1      -0.951  10.231  18.513  0.00  0.00    +0.000 A 
ATOM     24  C   UNL     1      -2.661  10.467  16.629  0.00  0.00    +0.000 C 
ATOM     25  C   UNL     1      -4.181  10.565  16.571  0.00  0.00    +0.000 C 
ATOM     26  C   UNL     1      -4.679  11.858  17.174  0.00  0.00    +0.000 C 
ATOM     27  O   UNL     1      -5.684  12.436  16.765  0.00  0.00    +0.000 OA
ATOM     28  N   UNL     1      -4.016  12.296  18.288  0.00  0.00    +0.000 N 
ATOM     29  H   UNL     1      -4.432  13.085  18.767  0.00  0.00    +0.000 HD
ENDBRANCH  16  18
ENDBRANCH   1  16
TORSDOF 4
ENDMDL
MODEL 3
REMARK VINA RESULT:      -9.0      5.026      7.560
REMARK  Name = 
REMARK  6 active torsions:
REMARK  status: ('A' for Active; 'I' for Inactive)
REMARK    1  A    between atoms: C_1  and  C_2
REMARK    2  A    between atoms: C_5  and  C_6
REMARK    3  A    between atoms: C_9  and  C_10
REMARK    4  A    between atoms: C_10  and  C_11
REMARK    5  A    between atoms: C_10  and  N_12
REMARK    6  A    between atoms: N_12  and  C_13
REMARK                            x       y       z     vdW  Elec       q    Type
REMARK                         _______ _______ _______ _____ _____    ______ ____
ROOT
ATOM      1  C   UNL     1       2.200   5.122  19.863  0.00  0.00    +0.000 C 
ATOM      2  C   UNL     1       1.941   3.946  20.818  0.00  0.00    +0.000 C 
ENDROOT
BRANCH   1   6
ATOM      3  C   UNL     1       4.917   4.560  17.606  0.00  0.00    +0.000 A 
ATOM      4  N   UNL     1       5.522   4.226  18.758  0.00  0.00    +0.000 NA
ATOM      5  O   UNL     1       4.526   4.402  19.718  0.00  0.00    +0.000 OA
ATOM      6  C   UNL     1       3.420   4.827  19.048  0.00  0.00    +0.000 A 
ATOM      7  N   UNL     1       3.601   4.929  17.751  0.00  0.00    +0.000 NA
BRANCH   3  12
ATOM      8  C   UNL     1       7.448   4.490  12.423  0.00  0.00    +0.000 C 
ATOM      9  C   UNL     1       6.807   4.522  13.775  0.00  0.00    +0.000 A 
ATOM     10  C   UNL     1       7.519   4.935  14.906  0.00  0.00    +0.000 A 
ATOM     11  C   UNL     1       6.900   4.951  16.160  0.00  0.00    +0.000 A 
ATOM     12  C   UNL     1       5.566   4.552  16.304  0.00  0.00    +0.000 A 
ATOM     13  C   UNL     1       4.857   4.144  15.169  0.00  0.00    +0.000 A 
ATOM     14  C   UNL     1       5.474   4.135  13.925  0.00  0.00    +0.000 A 
ATOM     15  F   UNL     1       4.769   3.743  12.854  0.00  0.00    +0.000 F 
ENDBRANCH   3  12
ENDBRANCH   1   6
BRANCH   1  16
ATOM     16  N   UNL     1       2.282   6.368  20.662  0.00  0.00    +0.000 N 
ATOM     17  H   UNL     1       3.184   6.429  21.133  0.00  0.00    +0.000 HD
BRANCH  16  18
ATOM     18  C   UNL     1       1.927   7.591  20.066  0.00  0.00    +0.000 A 
ATOM     19  C   UNL     1       2.247   7.889  18.735  0.00  0.00    +0.000 A 
ATOM     20  C   UNL     1       1.816   9.068  18.123  0.00  0.00    +0.000 A 
ATOM     21  C   UNL     1       1.026   9.963  18.828  0.00  0.00    +0.000 A 
ATOM     22  C   UNL     1       0.640   9.684  20.140  0.00  0.00    +0.000 A 
ATOM     23  C   UNL     1       1.078   8.487  20.744  0.00  0.00    +0.000 A 
ATOM     24  C   UNL     1      -0.338  10.613  20.809  0.00  0.00    +0.000 C 
ATOM     25  C   UNL     1      -0.131  12.049  20.343  0.00  0.00    +0.000 C 
ATOM     26  C   UNL     1      -0.073  12.144  18.837  0.00  0.00    +0.000 C 
ATOM     27  O   UNL     1      -0.486  13.123  18.217  0.00  0.00    +0.000 OA
ATOM     28  N   UNL     1       0.579  11.126  18.196  0.00  0.00    +0.000 N 
ATOM     29  H   UNL     1       0.734  11.257  17.204  0.00  0.00    +0.000 HD
ENDBRANCH  16  18
ENDBRANCH   1  16
TORSDOF 4
ENDMDL
MODEL 4
REMARK VINA RESULT:      -8.9      1.176      1.952
REMARK  Name = 
REMARK  6 active torsions:
REMARK  status: ('A' for Active; 'I' for Inactive)
REMARK    1  A    between atoms: C_1  and  C_2
REMARK    2  A    between atoms: C_5  and  C_6
REMARK    3  A    between atoms: C_9  and  C_10
REMARK    4  A    between atoms: C_10  and  C_11
REMARK    5  A    between atoms: C_10  and  N_12
REMARK    6  A    between atoms: N_12  and  C_13
REMARK                            x       y       z     vdW  Elec       q    Type
REMARK                         _______ _______ _______ _____ _____    ______ ____
ROOT
ATOM      1  C   UNL     1       6.616   5.625  16.011  0.00  0.00    +0.000 C 
ATOM      2  C   UNL     1       7.063   4.182  16.297  0.00  0.00    +0.000 C 
ENDROOT
BRANCH   1   6
ATOM      3  C   UNL     1       8.131   8.115  18.084  0.00  0.00    +0.000 A 
ATOM      4  N   UNL     1       8.286   7.047  18.883  0.00  0.00    +0.000 NA
ATOM      5  O   UNL     1       7.728   6.001  18.150  0.00  0.00    +0.000 OA
ATOM      6  C   UNL     1       7.291   6.544  16.980  0.00  0.00    +0.000 A 
ATOM      7  N   UNL     1       7.524   7.833  16.884  0.00  0.00    +0.000 NA
BRANCH   3  12
ATOM      8  C   UNL     1       9.784  13.487  19.380  0.00  0.00    +0.000 C 
ATOM      9  C   UNL     1       9.356  12.088  19.065  0.00  0.00    +0.000 A 
ATOM     10  C   UNL     1       9.630  11.032  19.940  0.00  0.00    +0.000 A 
ATOM     11  C   UNL     1       9.226   9.732  19.622  0.00  0.00    +0.000 A 
ATOM     12  C   UNL     1       8.549   9.466  18.425  0.00  0.00    +0.000 A 
ATOM     13  C   UNL     1       8.274  10.527  17.555  0.00  0.00    +0.000 A 
ATOM     14  C   UNL     1       8.673  11.817  17.878  0.00  0.00    +0.000 A 
ATOM     15  F   UNL     1       8.393  12.815  17.028  0.00  0.00    +0.000 F 
ENDBRANCH   3  12
ENDBRANCH   1   6
BRANCH   1  16
ATOM     16  N   UNL     1       5.134   5.674  16.048  0.00  0.00    +0.000 N 
ATOM     17  H   UNL     1       4.751   5.525  15.116  0.00  0.00    +0.000 HD
BRANCH  16  18
ATOM     18  C   UNL     1       4.446   4.921  17.016  0.00  0.00    +0.000 A 
ATOM     19  C   UNL     1       4.512   3.522  17.053  0.00  0.00    +0.000 A 
ATOM     20  C   UNL     1       3.898   2.785  18.068  0.00  0.00    +0.000 A 
ATOM     21  C   UNL     1       3.226   3.441  19.088  0.00  0.00    +0.000 A 
ATOM     22  C   UNL     1       3.177   4.836  19.120  0.00  0.00    +0.000 A 
ATOM     23  C   UNL     1       3.807   5.568  18.091  0.00  0.00    +0.000 A 
ATOM     24  C   UNL     1       2.566   5.501  20.324  0.00  0.00    +0.000 C 
ATOM     25  C   UNL     1       1.423   4.666  20.887  0.00  0.00    +0.000 C 
ATOM     26  C   UNL     1       1.828   3.223  21.079  0.00  0.00    +0.000 C 
ATOM     27  O   UNL     1       1.379   2.523  21.984  0.00  0.00    +0.000 OA
ATOM     28  N   UNL     1       2.639   2.694  20.112  0.00  0.00    +0.000 N 
ATOM     29  H   UNL     1       2.800   1.696  20.169  0.00  0.00    +0.000 HD
ENDBRANCH  16  18
ENDBRANCH   1  16
TORSDOF 4
ENDMDL
MODEL 5
REMARK VINA RESULT:      -8.9      2.421      3.490
REMARK  Name = 
REMARK  6 active torsions:
REMARK  status: ('A' for Active; 'I' for Inactive)
REMARK    1  A    between atoms: C_1  and  C_2
REMARK    2  A    between atoms: C_5  and  C_6
REMARK    3  A    between atoms: C_9  and  C_10
REMARK    4  A    between atoms: C_10  and  C_11
REMARK    5  A    between atoms: C_10  and  N_12
REMARK    6  A    between atoms: N_12  and  C_13
REMARK                            x       y       z     vdW  Elec       q    Type
REMARK                         _______ _______ _______ _____ _____    ______ ____
ROOT
ATOM      1  C   UNL     1       5.825   5.492  16.481  0.00  0.00    +0.000 C 
ATOM      2  C   UNL     1       6.652   4.379  15.818  0.00  0.00    +0.000 C 
ENDROOT
BRANCH   1   6
ATOM      3  C   UNL     1       7.870   7.999  18.007  0.00  0.00    +0.000 A 
ATOM      4  N   UNL     1       8.253   6.937  18.735  0.00  0.00    +0.000 NA
ATOM      5  O   UNL     1       7.509   5.885  18.202  0.00  0.00    +0.000 OA
ATOM      6  C   UNL     1       6.750   6.419  17.206  0.00  0.00    +0.000 A 
ATOM      7  N   UNL     1       6.942   7.707  17.037  0.00  0.00    +0.000 NA
BRANCH   3  12
ATOM      8  C   UNL     1       9.815  13.381  18.730  0.00  0.00    +0.000 C 
ATOM      9  C   UNL     1       9.318  11.979  18.563  0.00  0.00    +0.000 A 
ATOM     10  C   UNL     1       9.835  10.930  19.329  0.00  0.00    +0.000 A 
ATOM     11  C   UNL     1       9.360   9.627  19.150  0.00  0.00    +0.000 A 
ATOM     12  C   UNL     1       8.365   9.352  18.203  0.00  0.00    +0.000 A 
ATOM     13  C   UNL     1       7.849  10.406  17.442  0.00  0.00    +0.000 A 
ATOM     14  C   UNL     1       8.320  11.699  17.626  0.00  0.00    +0.000 A 
ATOM     15  F   UNL     1       7.804  12.690  16.886  0.00  0.00    +0.000 F 
ENDBRANCH   3  12
ENDBRANCH   1   6
BRANCH   1  16
ATOM     16  N   UNL     1       4.791   4.863  17.337  0.00  0.00    +0.000 N 
ATOM     17  H   UNL     1       5.212   4.164  17.947  0.00  0.00    +0.000 HD
BRANCH  16  18
ATOM     18  C   UNL     1       3.889   5.683  18.039  0.00  0.00    +0.000 A 
ATOM     19  C   UNL     1       3.490   5.397  19.350  0.00  0.00    +0.000 A 
ATOM     20  C   UNL     1       2.664   6.262  20.072  0.00  0.00    +0.000 A 
ATOM     21  C   UNL     1       2.242   7.451  19.499  0.00  0.00    +0.000 A 
ATOM     22  C   UNL     1       2.654   7.802  18.212  0.00  0.00    +0.000 A 
ATOM     23  C   UNL     1       3.494   6.922  17.498  0.00  0.00    +0.000 A 
ATOM     24  C   UNL     1       2.292   9.169  17.694  0.00  0.00    +0.000 C 
ATOM     25  C   UNL     1       0.934   9.611  18.228  0.00  0.00    +0.000 C 
ATOM     26  C   UNL     1       0.841   9.440  19.726  0.00  0.00    +0.000 C 
ATOM     27  O   UNL     1       0.183  10.194  20.440  0.00  0.00    +0.000 OA
ATOM     28  N   UNL     1       1.437   8.320  20.240  0.00  0.00    +0.000 N 
ATOM     29  H   UNL     1       1.260   8.137  21.220  0.00  0.00    +0.000 HD
ENDBRANCH  16  18
ENDBRANCH   1  16
TORSDOF 4
ENDMDL
MODEL 6
REMARK VINA RESULT:      -8.9      3.461      6.776
REMARK  Name = 
REMARK  6 active torsions:
REMARK  status: ('A' for Active; 'I' for Inactive)
REMARK    1  A    between atoms: C_1  and  C_2
REMARK    2  A    between atoms: C_5  and  C_6
REMARK    3  A    between atoms: C_9  and  C_10
REMARK    4  A    between atoms: C_10  and  C_11
REMARK    5  A    between atoms: C_10  and  N_12
REMARK    6  A    between atoms: N_12  and  C_13
REMARK                            x       y       z     vdW  Elec       q    Type
REMARK                         _______ _______ _______ _____ _____    ______ ____
ROOT
ATOM      1  C   UNL     1       2.313   2.360  19.279  0.00  0.00    +0.000 C 
ATOM      2  C   UNL     1       1.007   2.057  18.526  0.00  0.00    +0.000 C 
ENDROOT
BRANCH   1   6
ATOM      3  C   UNL     1       2.008   5.791  20.242  0.00  0.00    +0.000 A 
ATOM      4  N   UNL     1       2.372   5.268  21.425  0.00  0.00    +0.000 NA
ATOM      5  O   UNL     1       2.530   3.910  21.151  0.00  0.00    +0.000 OA
ATOM      6  C   UNL     1       2.245   3.751  19.829  0.00  0.00    +0.000 A 
ATOM      7  N   UNL     1       1.931   4.873  19.223  0.00  0.00    +0.000 NA
BRANCH   3  12
ATOM      8  C   UNL     1       0.855  11.369  19.328  0.00  0.00    +0.000 C 
ATOM      9  C   UNL     1       1.140   9.922  19.582  0.00  0.00    +0.000 A 
ATOM     10  C   UNL     1       0.861   9.334  20.820  0.00  0.00    +0.000 A 
ATOM     11  C   UNL     1       1.141   7.981  21.036  0.00  0.00    +0.000 A 
ATOM     12  C   UNL     1       1.707   7.197  20.023  0.00  0.00    +0.000 A 
ATOM     13  C   UNL     1       1.981   7.789  18.785  0.00  0.00    +0.000 A 
ATOM     14  C   UNL     1       1.696   9.132  18.574  0.00  0.00    +0.000 A 
ATOM     15  F   UNL     1       1.965   9.671  17.376  0.00  0.00    +0.000 F 
ENDBRANCH   3  12
ENDBRANCH   1   6
BRANCH   1  16
ATOM     16  N   UNL     1       3.452   2.117  18.361  0.00  0.00    +0.000 N 
ATOM     17  H   UNL     1       3.157   1.542  17.574  0.00  0.00    +0.000 HD
BRANCH  16  18
ATOM     18  C   UNL     1       4.237   3.205  17.940  0.00  0.00    +0.000 A 
ATOM     19  C   UNL     1       4.024   3.845  16.712  0.00  0.00    +0.000 A 
ATOM     20  C   UNL     1       4.749   4.978  16.339  0.00  0.00    +0.000 A 
ATOM     21  C   UNL     1       5.689   5.513  17.206  0.00  0.00    +0.000 A 
ATOM     22  C   UNL     1       5.901   4.939  18.461  0.00  0.00    +0.000 A 
ATOM     23  C   UNL     1       5.157   3.798  18.827  0.00  0.00    +0.000 A 
ATOM     24  C   UNL     1       6.822   5.643  19.421  0.00  0.00    +0.000 C 
ATOM     25  C   UNL     1       7.956   6.338  18.678  0.00  0.00    +0.000 C 
ATOM     26  C   UNL     1       7.439   7.184  17.538  0.00  0.00    +0.000 C 
ATOM     27  O   UNL     1       7.986   8.227  17.185  0.00  0.00    +0.000 OA
ATOM     28  N   UNL     1       6.389   6.662  16.832  0.00  0.00    +0.000 N 
ATOM     29  H   UNL     1       6.132   7.162  15.990  0.00  0.00    +0.000 HD
ENDBRANCH  16  18
ENDBRANCH   1  16
TORSDOF 4
ENDMDL
MODEL 7
REMARK VINA RESULT:      -8.9      0.903      1.475
REMARK  Name = 
REMARK  6 active torsions:
REMARK  status: ('A' for Active; 'I' for Inactive)
REMARK    1  A    between atoms: C_1  and  C_2
REMARK    2  A    between atoms: C_5  and  C_6
REMARK    3  A    between atoms: C_9  and  C_10
REMARK    4  A    between atoms: C_10  and  C_11
REMARK    5  A    between atoms: C_10  and  N_12
REMARK    6  A    between atoms: N_12  and  C_13
REMARK                            x       y       z     vdW  Elec       q    Type
REMARK                         _______ _______ _______ _____ _____    ______ ____
ROOT
ATOM      1  C   UNL     1       6.815   6.041  16.274  0.00  0.00    +0.000 C 
ATOM      2  C   UNL     1       7.070   4.604  16.758  0.00  0.00    +0.000 C 
ENDROOT
BRANCH   1   6
ATOM      3  C   UNL     1       8.352   8.605  18.237  0.00  0.00    +0.000 A 
ATOM      4  N   UNL     1       8.512   7.568  19.076  0.00  0.00    +0.000 NA
ATOM      5  O   UNL     1       7.946   6.496  18.387  0.00  0.00    +0.000 OA
ATOM      6  C   UNL     1       7.501   6.995  17.201  0.00  0.00    +0.000 A 
ATOM      7  N   UNL     1       7.735   8.278  17.054  0.00  0.00    +0.000 NA
BRANCH   3  12
ATOM      8  C   UNL     1      10.033  13.993  19.430  0.00  0.00    +0.000 C 
ATOM      9  C   UNL     1       9.595  12.601  19.099  0.00  0.00    +0.000 A 
ATOM     10  C   UNL     1       8.868  12.326  17.936  0.00  0.00    +0.000 A 
ATOM     11  C   UNL     1       8.464  11.018  17.651  0.00  0.00    +0.000 A 
ATOM     12  C   UNL     1       8.775   9.967  18.523  0.00  0.00    +0.000 A 
ATOM     13  C   UNL     1       9.505  10.247  19.683  0.00  0.00    +0.000 A 
ATOM     14  C   UNL     1       9.909  11.547  19.959  0.00  0.00    +0.000 A 
ATOM     15  F   UNL     1      10.611  11.784  21.076  0.00  0.00    +0.000 F 
ENDBRANCH   3  12
ENDBRANCH   1   6
BRANCH   1  16
ATOM     16  N   UNL     1       5.352   6.244  16.155  0.00  0.00    +0.000 N 
ATOM     17  H   UNL     1       5.074   6.264  15.174  0.00  0.00    +0.000 HD
BRANCH  16  18
ATOM     18  C   UNL     1       4.483   5.446  16.921  0.00  0.00    +0.000 A 
ATOM     19  C   UNL     1       4.184   4.124  16.569  0.00  0.00    +0.000 A 
ATOM     20  C   UNL     1       3.392   3.309  17.380  0.00  0.00    +0.000 A 
ATOM     21  C   UNL     1       2.903   3.798  18.581  0.00  0.00    +0.000 A 
ATOM     22  C   UNL     1       3.215   5.094  18.997  0.00  0.00    +0.000 A 
ATOM     23  C   UNL     1       4.023   5.903  18.171  0.00  0.00    +0.000 A 
ATOM     24  C   UNL     1       2.786   5.524  20.374  0.00  0.00    +0.000 C 
ATOM     25  C   UNL     1       1.460   4.879  20.758  0.00  0.00    +0.000 C 
ATOM     26  C   UNL     1       1.477   3.387  20.521  0.00  0.00    +0.000 C 
ATOM     27  O   UNL     1       0.853   2.596  21.227  0.00  0.00    +0.000 OA
ATOM     28  N   UNL     1       2.133   2.965  19.397  0.00  0.00    +0.000 N 
ATOM     29  H   UNL     1       2.030   1.984  19.168  0.00  0.00    +0.000 HD
ENDBRANCH  16  18
ENDBRANCH   1  16
TORSDOF 4
ENDMDL
MODEL 8
REMARK VINA RESULT:      -8.9      6.001      8.741
REMARK  Name = 
REMARK  6 active torsions:
REMARK  status: ('A' for Active; 'I' for Inactive)
REMARK    1  A    between atoms: C_1  and  C_2
REMARK    2  A    between atoms: C_5  and  C_6
REMARK    3  A    between atoms: C_9  and  C_10
REMARK    4  A    between atoms: C_10  and  C_11
REMARK    5  A    between atoms: C_10  and  N_12
REMARK    6  A    between atoms: N_12  and  C_13
REMARK                            x       y       z     vdW  Elec       q    Type
REMARK                         _______ _______ _______ _____ _____    ______ ____
ROOT
ATOM      1  C   UNL     1       0.853   8.779  20.985  0.00  0.00    +0.000 C 
ATOM      2  C   UNL     1       1.558   9.148  22.300  0.00  0.00    +0.000 C 
ENDROOT
BRANCH   1   6
ATOM      3  C   UNL     1       2.626   6.179  19.285  0.00  0.00    +0.000 A 
ATOM      4  N   UNL     1       2.171   5.477  20.336  0.00  0.00    +0.000 NA
ATOM      5  O   UNL     1       1.444   6.414  21.070  0.00  0.00    +0.000 OA
ATOM      6  C   UNL     1       1.534   7.588  20.387  0.00  0.00    +0.000 A 
ATOM      7  N   UNL     1       2.236   7.497  19.281  0.00  0.00    +0.000 NA
BRANCH   3  12
ATOM      8  C   UNL     1       5.963   4.061  15.084  0.00  0.00    +0.000 C 
ATOM      9  C   UNL     1       5.093   4.590  16.181  0.00  0.00    +0.000 A 
ATOM     10  C   UNL     1       4.101   3.796  16.766  0.00  0.00    +0.000 A 
ATOM     11  C   UNL     1       3.295   4.314  17.785  0.00  0.00    +0.000 A 
ATOM     12  C   UNL     1       3.465   5.631  18.231  0.00  0.00    +0.000 A 
ATOM     13  C   UNL     1       4.461   6.419  17.644  0.00  0.00    +0.000 A 
ATOM     14  C   UNL     1       5.261   5.899  16.636  0.00  0.00    +0.000 A 
ATOM     15  F   UNL     1       6.211   6.676  16.096  0.00  0.00    +0.000 F 
ENDBRANCH   3  12
ENDBRANCH   1   6
BRANCH   1  16
ATOM     16  N   UNL     1       0.831   9.977  20.111  0.00  0.00    +0.000 N 
ATOM     17  H   UNL     1       1.480   9.862  19.334  0.00  0.00    +0.000 HD
BRANCH  16  18
ATOM     18  C   UNL     1      -0.406  10.488  19.679  0.00  0.00    +0.000 A 
ATOM     19  C   UNL     1      -1.100  11.466  20.402  0.00  0.00    +0.000 A 
ATOM     20  C   UNL     1      -2.283  12.032  19.923  0.00  0.00    +0.000 A 
ATOM     21  C   UNL     1      -2.783  11.646  18.688  0.00  0.00    +0.000 A 
ATOM     22  C   UNL     1      -2.099  10.710  17.910  0.00  0.00    +0.000 A 
ATOM     23  C   UNL     1      -0.901  10.152  18.404  0.00  0.00    +0.000 A 
ATOM     24  C   UNL     1      -2.602  10.437  16.518  0.00  0.00    +0.000 C 
ATOM     25  C   UNL     1      -4.120  10.545  16.455  0.00  0.00    +0.000 C 
ATOM     26  C   UNL     1      -4.614  11.828  17.083  0.00  0.00    +0.000 C 
ATOM     27  O   UNL     1      -5.614  12.420  16.681  0.00  0.00    +0.000 OA
ATOM     28  N   UNL     1      -3.953  12.239  18.208  0.00  0.00    +0.000 N 
ATOM     29  H   UNL     1      -4.367  13.020  18.702  0.00  0.00    +0.000 HD
ENDBRANCH  16  18
ENDBRANCH   1  16
TORSDOF 4
ENDMDL
MODEL 9
REMARK VINA RESULT:      -8.8      4.451      7.321
REMARK  Name = 
REMARK  6 active torsions:
REMARK  status: ('A' for Active; 'I' for Inactive)
REMARK    1  A    between atoms: C_1  and  C_2
REMARK    2  A    between atoms: C_5  and  C_6
REMARK    3  A    between atoms: C_9  and  C_10
REMARK    4  A    between atoms: C_10  and  C_11
REMARK    5  A    between atoms: C_10  and  N_12
REMARK    6  A    between atoms: N_12  and  C_13
REMARK                            x       y       z     vdW  Elec       q    Type
REMARK                         _______ _______ _______ _____ _____    ______ ____
ROOT
ATOM      1  C   UNL     1       2.791   4.177  19.830  0.00  0.00    +0.000 C 
ATOM      2  C   UNL     1       2.183   3.426  18.635  0.00  0.00    +0.000 C 
ENDROOT
BRANCH   1   6
ATOM      3  C   UNL     1       1.698   7.577  20.021  0.00  0.00    +0.000 A 
ATOM      4  N   UNL     1       2.307   7.614  18.824  0.00  0.00    +0.000 NA
ATOM      5  O   UNL     1       2.767   6.310  18.646  0.00  0.00    +0.000 OA
ATOM      6  C   UNL     1       2.389   5.617  19.756  0.00  0.00    +0.000 A 
ATOM      7  N   UNL     1       1.722   6.342  20.623  0.00  0.00    +0.000 NA
BRANCH   3  12
ATOM      8  C   UNL     1      -0.831  12.080  22.590  0.00  0.00    +0.000 C 
ATOM      9  C   UNL     1      -0.167  10.926  21.908  0.00  0.00    +0.000 A 
ATOM     10  C   UNL     1       0.213  10.998  20.564  0.00  0.00    +0.000 A 
ATOM     11  C   UNL     1       0.827   9.904  19.946  0.00  0.00    +0.000 A 
ATOM     12  C   UNL     1       1.066   8.722  20.659  0.00  0.00    +0.000 A 
ATOM     13  C   UNL     1       0.688   8.656  22.004  0.00  0.00    +0.000 A 
ATOM     14  C   UNL     1       0.083   9.747  22.614  0.00  0.00    +0.000 A 
ATOM     15  F   UNL     1      -0.265   9.657  23.906  0.00  0.00    +0.000 F 
ENDBRANCH   3  12
ENDBRANCH   1   6
BRANCH   1  16
ATOM     16  N   UNL     1       4.256   3.948  19.834  0.00  0.00    +0.000 N 
ATOM     17  H   UNL     1       4.462   2.968  20.028  0.00  0.00    +0.000 HD
BRANCH  16  18
ATOM     18  C   UNL     1       5.029   4.435  18.765  0.00  0.00    +0.000 A 
ATOM     19  C   UNL     1       6.015   5.413  18.946  0.00  0.00    +0.000 A 
ATOM     20  C   UNL     1       6.839   5.829  17.898  0.00  0.00    +0.000 A 
ATOM     21  C   UNL     1       6.708   5.248  16.646  0.00  0.00    +0.000 A 
ATOM     22  C   UNL     1       5.773   4.235  16.430  0.00  0.00    +0.000 A 
ATOM     23  C   UNL     1       4.952   3.820  17.500  0.00  0.00    +0.000 A 
ATOM     24  C   UNL     1       5.774   3.535  15.097  0.00  0.00    +0.000 C 
ATOM     25  C   UNL     1       6.157   4.496  13.978  0.00  0.00    +0.000 C 
ATOM     26  C   UNL     1       7.416   5.263  14.308  0.00  0.00    +0.000 C 
ATOM     27  O   UNL     1       8.223   5.614  13.450  0.00  0.00    +0.000 OA
ATOM     28  N   UNL     1       7.556   5.654  15.612  0.00  0.00    +0.000 N 
ATOM     29  H   UNL     1       8.328   6.280  15.804  0.00  0.00    +0.000 HD
ENDBRANCH  16  18
ENDBRANCH   1  16
TORSDOF 4
ENDMDL
