MODEL 1
REMARK VINA RESULT:      -8.4      0.000      0.000
REMARK  Name = 
REMARK  5 active torsions:
REMARK  status: ('A' for Active; 'I' for Inactive)
REMARK    1  A    between atoms: C_1  and  C_2
REMARK    2  A    between atoms: C_6  and  N_7
REMARK    3  A    between atoms: C_12  and  C_13
REMARK    4  A    between atoms: N_15  and  C_16
REMARK    5  A    between atoms: C_16  and  C_17
REMARK                            x       y       z     vdW  Elec       q    Type
REMARK                         _______ _______ _______ _____ _____    ______ ____
ROOT
ATOM      1  N   UNL     1       2.646   6.159  19.349  0.00  0.00    +0.000 N 
ATOM      2  C   UNL     1       2.155   5.879  20.605  0.00  0.00    +0.000 A 
ATOM      3  N   UNL     1       1.523   6.900  21.138  0.00  0.00    +0.000 NA
ATOM      4  C   UNL     1       1.577   7.875  20.178  0.00  0.00    +0.000 A 
ATOM      5  C   UNL     1       0.872   9.081  20.126  0.00  0.00    +0.000 A 
ATOM      6  C   UNL     1       0.963   9.855  18.959  0.00  0.00    +0.000 A 
ATOM      7  C   UNL     1       1.878   9.531  17.948  0.00  0.00    +0.000 A 
ATOM      8  C   UNL     1       2.621   8.347  18.009  0.00  0.00    +0.000 A 
ATOM      9  C   UNL     1       2.388   7.503  19.108  0.00  0.00    +0.000 A 
ENDROOT
BRANCH   1  15
ATOM     10  C   UNL     1       5.793   4.155  16.189  0.00  0.00    +0.000 C 
ATOM     11  C   UNL     1       4.438   4.161  16.834  0.00  0.00    +0.000 A 
ATOM     12  C   UNL     1       3.556   3.084  16.686  0.00  0.00    +0.000 A 
ATOM     13  C   UNL     1       2.317   3.081  17.337  0.00  0.00    +0.000 A 
ATOM     14  C   UNL     1       1.959   4.135  18.178  0.00  0.00    +0.000 A 
ATOM     15  C   UNL     1       2.837   5.208  18.323  0.00  0.00    +0.000 A 
ATOM     16  C   UNL     1       4.055   5.246  17.626  0.00  0.00    +0.000 A 
ENDBRANCH   1  15
BRANCH   6  17
ATOM     17  C   UNL     1      -0.018  10.949  18.722  0.00  0.00    +0.000 C 
ATOM     18  O   UNL     1       0.344  12.114  18.637  0.00  0.00    +0.000 OA
ATOM     19  N   UNL     1      -1.317  10.521  18.523  0.00  0.00    +0.000 N 
ATOM     20  H   UNL     1      -1.506   9.527  18.493  0.00  0.00    +0.000 HD
BRANCH  19  21
ATOM     21  C   UNL     1      -2.441  11.407  18.295  0.00  0.00    +0.000 C 
BRANCH  21  22
ATOM     22  C   UNL     1      -3.641  10.737  17.609  0.00  0.00    +0.000 C 
ATOM     23  C   UNL     1      -4.465  11.710  16.774  0.00  0.00    +0.000 C 
ATOM     24  N   UNL     1      -3.858  11.650  15.479  0.00  0.00    +0.000 N 
ATOM     25  C   UNL     1      -3.173  10.470  15.277  0.00  0.00    +0.000 C 
ATOM     26  O   UNL     1      -2.696  10.106  14.218  0.00  0.00    +0.000 OA
ATOM     27  C   UNL     1      -3.168   9.702  16.573  0.00  0.00    +0.000 C 
ATOM     28  H   UNL     1      -4.100  12.233  14.686  0.00  0.00    +0.000 HD
ENDBRANCH  21  22
ENDBRANCH  19  21
ENDBRANCH   6  17
TORSDOF 4
ENDMDL
MODEL 2
REMARK VINA RESULT:      -8.1      3.358      8.038
REMARK  Name = 
REMARK  5 active torsions:
REMARK  status: ('A' for Active; 'I' for Inactive)
REMARK    1  A    between atoms: C_1  and  C_2
REMARK    2  A    between atoms: C_6  and  N_7
REMARK    3  A    between atoms: C_12  and  C_13
REMARK    4  A    between atoms: N_15  and  C_16
REMARK    5  A    between atoms: C_16  and  C_17
REMARK                            x       y       z     vdW  Elec       q    Type
REMARK                         _______ _______ _______ _____ _____    ______ ____
ROOT
ATOM      1  N   UNL     1       0.367  10.789  20.362  0.00  0.00    +0.000 N 
ATOM      2  C   UNL     1       0.296  10.284  21.641  0.00  0.00    +0.000 A 
ATOM      3  N   UNL     1       0.725   9.044  21.718  0.00  0.00    +0.000 NA
ATOM      4  C   UNL     1       1.120   8.740  20.443  0.00  0.00    +0.000 A 
ATOM      5  C   UNL     1       1.862   7.639  20.005  0.00  0.00    +0.000 A 
ATOM      6  C   UNL     1       2.293   7.616  18.670  0.00  0.00    +0.000 A 
ATOM      7  C   UNL     1       1.841   8.570  17.749  0.00  0.00    +0.000 A 
ATOM      8  C   UNL     1       1.064   9.656  18.168  0.00  0.00    +0.000 A 
ATOM      9  C   UNL     1       0.784   9.747  19.542  0.00  0.00    +0.000 A 
ENDROOT
BRANCH   1  15
ATOM     10  C   UNL     1       3.443  14.217  18.722  0.00  0.00    +0.000 C 
ATOM     11  C   UNL     1       2.055  13.815  19.128  0.00  0.00    +0.000 A 
ATOM     12  C   UNL     1       0.952  14.634  18.863  0.00  0.00    +0.000 A 
ATOM     13  C   UNL     1      -0.342  14.221  19.201  0.00  0.00    +0.000 A 
ATOM     14  C   UNL     1      -0.555  12.966  19.771  0.00  0.00    +0.000 A 
ATOM     15  C   UNL     1       0.544  12.152  20.037  0.00  0.00    +0.000 A 
ATOM     16  C   UNL     1       1.850  12.584  19.755  0.00  0.00    +0.000 A 
ENDBRANCH   1  15
BRANCH   6  17
ATOM     17  C   UNL     1       3.354   6.657  18.255  0.00  0.00    +0.000 C 
ATOM     18  O   UNL     1       4.286   7.014  17.548  0.00  0.00    +0.000 OA
ATOM     19  N   UNL     1       3.233   5.395  18.806  0.00  0.00    +0.000 N 
ATOM     20  H   UNL     1       2.495   5.221  19.476  0.00  0.00    +0.000 HD
BRANCH  19  21
ATOM     21  C   UNL     1       4.136   4.295  18.529  0.00  0.00    +0.000 C 
BRANCH  21  22
ATOM     22  C   UNL     1       3.566   3.238  17.572  0.00  0.00    +0.000 C 
ATOM     23  C   UNL     1       3.712   1.817  18.104  0.00  0.00    +0.000 C 
ATOM     24  N   UNL     1       2.508   1.603  18.849  0.00  0.00    +0.000 N 
ATOM     25  C   UNL     1       1.485   2.430  18.436  0.00  0.00    +0.000 C 
ATOM     26  O   UNL     1       0.326   2.349  18.799  0.00  0.00    +0.000 OA
ATOM     27  C   UNL     1       2.042   3.400  17.427  0.00  0.00    +0.000 C 
ATOM     28  H   UNL     1       2.300   0.787  19.412  0.00  0.00    +0.000 HD
ENDBRANCH  21  22
ENDBRANCH  19  21
ENDBRANCH   6  17
TORSDOF 4
ENDMDL
MODEL 3
REMARK VINA RESULT:      -8.0      5.074      7.360
REMARK  Name = 
REMARK  5 active torsions:
REMARK  status: ('A' for Active; 'I' for Inactive)
REMARK    1  A    between atoms: C_1  and  C_2
REMARK    2  A    between atoms: C_6  and  N_7
REMARK    3  A    between atoms: C_12  and  C_13
REMARK    4  A    between atoms: N_15  and  C_16
REMARK    5  A    between atoms: C_16  and  C_17
REMARK                            x       y       z     vdW  Elec       q    Type
REMARK                         _______ _______ _______ _____ _____    ______ ____
ROOT
ATOM      1  N   UNL     1       7.192   5.122  16.024  0.00  0.00    +0.000 N 
ATOM      2  C   UNL     1       7.851   4.426  17.014  0.00  0.00    +0.000 A 
ATOM      3  N   UNL     1       7.271   4.548  18.186  0.00  0.00    +0.000 NA
ATOM      4  C   UNL     1       6.174   5.330  17.946  0.00  0.00    +0.000 A 
ATOM      5  C   UNL     1       5.089   5.584  18.790  0.00  0.00    +0.000 A 
ATOM      6  C   UNL     1       3.992   6.288  18.270  0.00  0.00    +0.000 A 
ATOM      7  C   UNL     1       4.052   6.884  17.003  0.00  0.00    +0.000 A 
ATOM      8  C   UNL     1       5.152   6.672  16.164  0.00  0.00    +0.000 A 
ATOM      9  C   UNL     1       6.166   5.824  16.644  0.00  0.00    +0.000 A 
ENDROOT
BRANCH   1  15
ATOM     10  C   UNL     1       4.665   3.069  12.377  0.00  0.00    +0.000 C 
ATOM     11  C   UNL     1       5.867   3.837  12.843  0.00  0.00    +0.000 A 
ATOM     12  C   UNL     1       6.729   4.463  11.935  0.00  0.00    +0.000 A 
ATOM     13  C   UNL     1       7.816   5.220  12.387  0.00  0.00    +0.000 A 
ATOM     14  C   UNL     1       8.034   5.395  13.753  0.00  0.00    +0.000 A 
ATOM     15  C   UNL     1       7.178   4.768  14.657  0.00  0.00    +0.000 A 
ATOM     16  C   UNL     1       6.120   3.960  14.211  0.00  0.00    +0.000 A 
ENDBRANCH   1  15
BRANCH   6  17
ATOM     17  C   UNL     1       2.697   6.283  19.004  0.00  0.00    +0.000 C 
ATOM     18  O   UNL     1       2.099   7.324  19.236  0.00  0.00    +0.000 OA
ATOM     19  N   UNL     1       2.214   5.023  19.305  0.00  0.00    +0.000 N 
ATOM     20  H   UNL     1       2.718   4.212  18.970  0.00  0.00    +0.000 HD
BRANCH  19  21
ATOM     21  C   UNL     1       0.984   4.775  20.031  0.00  0.00    +0.000 C 
BRANCH  21  22
ATOM     22  C   UNL     1       0.840   3.336  20.550  0.00  0.00    +0.000 C 
ATOM     23  C   UNL     1       1.133   2.289  19.481  0.00  0.00    +0.000 C 
ATOM     24  N   UNL     1       2.540   2.054  19.606  0.00  0.00    +0.000 N 
ATOM     25  C   UNL     1       3.015   2.384  20.858  0.00  0.00    +0.000 C 
ATOM     26  O   UNL     1       4.134   2.144  21.271  0.00  0.00    +0.000 OA
ATOM     27  C   UNL     1       1.897   3.037  21.628  0.00  0.00    +0.000 C 
ATOM     28  H   UNL     1       3.098   1.470  18.994  0.00  0.00    +0.000 HD
ENDBRANCH  21  22
ENDBRANCH  19  21
ENDBRANCH   6  17
TORSDOF 4
ENDMDL
MODEL 4
REMARK VINA RESULT:      -8.0      3.532      8.666
REMARK  Name = 
REMARK  5 active torsions:
REMARK  status: ('A' for Active; 'I' for Inactive)
REMARK    1  A    between atoms: C_1  and  C_2
REMARK    2  A    between atoms: C_6  and  N_7
REMARK    3  A    between atoms: C_12  and  C_13
REMARK    4  A    between atoms: N_15  and  C_16
REMARK    5  A    between atoms: C_16  and  C_17
REMARK                            x       y       z     vdW  Elec       q    Type
REMARK                         _______ _______ _______ _____ _____    ______ ____
ROOT
ATOM      1  N   UNL     1       0.888  10.313  19.303  0.00  0.00    +0.000 N 
ATOM      2  C   UNL     1       1.399  10.452  18.031  0.00  0.00    +0.000 A 
ATOM      3  N   UNL     1       2.091   9.403  17.649  0.00  0.00    +0.000 NA
ATOM      4  C   UNL     1       2.002   8.532  18.701  0.00  0.00    +0.000 A 
ATOM      5  C   UNL     1       2.360   7.182  18.742  0.00  0.00    +0.000 A 
ATOM      6  C   UNL     1       2.027   6.439  19.885  0.00  0.00    +0.000 A 
ATOM      7  C   UNL     1       1.520   7.067  21.031  0.00  0.00    +0.000 A 
ATOM      8  C   UNL     1       1.196   8.428  21.016  0.00  0.00    +0.000 A 
ATOM      9  C   UNL     1       1.383   9.116  19.804  0.00  0.00    +0.000 A 
ENDROOT
BRANCH   1  15
ATOM     10  C   UNL     1      -1.187  13.018  22.807  0.00  0.00    +0.000 C 
ATOM     11  C   UNL     1      -1.280  12.347  21.468  0.00  0.00    +0.000 A 
ATOM     12  C   UNL     1      -2.342  12.608  20.595  0.00  0.00    +0.000 A 
ATOM     13  C   UNL     1      -2.388  12.016  19.328  0.00  0.00    +0.000 A 
ATOM     14  C   UNL     1      -1.352  11.185  18.901  0.00  0.00    +0.000 A 
ATOM     15  C   UNL     1      -0.296  10.922  19.772  0.00  0.00    +0.000 A 
ATOM     16  C   UNL     1      -0.273  11.467  21.066  0.00  0.00    +0.000 A 
ENDBRANCH   1  15
BRANCH   6  17
ATOM     17  C   UNL     1       2.074   4.952  19.838  0.00  0.00    +0.000 C 
ATOM     18  O   UNL     1       2.240   4.293  20.854  0.00  0.00    +0.000 OA
ATOM     19  N   UNL     1       1.828   4.411  18.590  0.00  0.00    +0.000 N 
ATOM     20  H   UNL     1       1.583   5.029  17.827  0.00  0.00    +0.000 HD
BRANCH  19  21
ATOM     21  C   UNL     1       1.842   2.990  18.301  0.00  0.00    +0.000 C 
BRANCH  21  22
ATOM     22  C   UNL     1       3.188   2.469  17.776  0.00  0.00    +0.000 C 
ATOM     23  C   UNL     1       4.299   3.509  17.859  0.00  0.00    +0.000 C 
ATOM     24  N   UNL     1       4.871   3.297  19.155  0.00  0.00    +0.000 N 
ATOM     25  C   UNL     1       4.640   2.022  19.626  0.00  0.00    +0.000 C 
ATOM     26  O   UNL     1       5.139   1.540  20.625  0.00  0.00    +0.000 OA
ATOM     27  C   UNL     1       3.713   1.326  18.663  0.00  0.00    +0.000 C 
ATOM     28  H   UNL     1       5.590   3.869  19.584  0.00  0.00    +0.000 HD
ENDBRANCH  21  22
ENDBRANCH  19  21
ENDBRANCH   6  17
TORSDOF 4
ENDMDL
MODEL 5
REMARK VINA RESULT:      -8.0      3.271      8.109
REMARK  Name = 
REMARK  5 active torsions:
REMARK  status: ('A' for Active; 'I' for Inactive)
REMARK    1  A    between atoms: C_1  and  C_2
REMARK    2  A    between atoms: C_6  and  N_7
REMARK    3  A    between atoms: C_12  and  C_13
REMARK    4  A    between atoms: N_15  and  C_16
REMARK    5  A    between atoms: C_16  and  C_17
REMARK                            x       y       z     vdW  Elec       q    Type
REMARK                         _______ _______ _______ _____ _____    ______ ____
ROOT
ATOM      1  N   UNL     1       1.030  10.262  18.774  0.00  0.00    +0.000 N 
ATOM      2  C   UNL     1       1.847  10.178  17.668  0.00  0.00    +0.000 A 
ATOM      3  N   UNL     1       2.565   9.078  17.655  0.00  0.00    +0.000 NA
ATOM      4  C   UNL     1       2.178   8.404  18.782  0.00  0.00    +0.000 A 
ATOM      5  C   UNL     1       2.455   7.080  19.138  0.00  0.00    +0.000 A 
ATOM      6  C   UNL     1       1.815   6.548  20.267  0.00  0.00    +0.000 A 
ATOM      7  C   UNL     1       1.068   7.365  21.126  0.00  0.00    +0.000 A 
ATOM      8  C   UNL     1       0.818   8.704  20.801  0.00  0.00    +0.000 A 
ATOM      9  C   UNL     1       1.331   9.170  19.578  0.00  0.00    +0.000 A 
ENDROOT
BRANCH   1  15
ATOM     10  C   UNL     1      -3.693  10.218  17.512  0.00  0.00    +0.000 C 
ATOM     11  C   UNL     1      -2.565  10.853  18.270  0.00  0.00    +0.000 A 
ATOM     12  C   UNL     1      -2.800  11.841  19.234  0.00  0.00    +0.000 A 
ATOM     13  C   UNL     1      -1.743  12.387  19.970  0.00  0.00    +0.000 A 
ATOM     14  C   UNL     1      -0.440  11.925  19.782  0.00  0.00    +0.000 A 
ATOM     15  C   UNL     1      -0.206  10.944  18.820  0.00  0.00    +0.000 A 
ATOM     16  C   UNL     1      -1.253  10.434  18.037  0.00  0.00    +0.000 A 
ENDBRANCH   1  15
BRANCH   6  17
ATOM     17  C   UNL     1       1.807   5.075  20.484  0.00  0.00    +0.000 C 
ATOM     18  O   UNL     1       2.197   4.589  21.536  0.00  0.00    +0.000 OA
ATOM     19  N   UNL     1       1.248   4.347  19.450  0.00  0.00    +0.000 N 
ATOM     20  H   UNL     1       0.841   4.842  18.666  0.00  0.00    +0.000 HD
BRANCH  19  21
ATOM     21  C   UNL     1       1.150   2.901  19.432  0.00  0.00    +0.000 C 
BRANCH  21  22
ATOM     22  C   UNL     1       2.169   2.214  18.511  0.00  0.00    +0.000 C 
ATOM     23  C   UNL     1       2.576   3.081  17.326  0.00  0.00    +0.000 C 
ATOM     24  N   UNL     1       3.706   3.816  17.810  0.00  0.00    +0.000 N 
ATOM     25  C   UNL     1       4.331   3.180  18.862  0.00  0.00    +0.000 C 
ATOM     26  O   UNL     1       5.392   3.514  19.355  0.00  0.00    +0.000 OA
ATOM     27  C   UNL     1       3.501   1.983  19.248  0.00  0.00    +0.000 C 
ATOM     28  H   UNL     1       4.188   4.556  17.311  0.00  0.00    +0.000 HD
ENDBRANCH  21  22
ENDBRANCH  19  21
ENDBRANCH   6  17
TORSDOF 4
ENDMDL
MODEL 6
REMARK VINA RESULT:      -7.8      3.051      8.256
REMARK  Name = 
REMARK  5 active torsions:
REMARK  status: ('A' for Active; 'I' for Inactive)
REMARK    1  A    between atoms: C_1  and  C_2
REMARK    2  A    between atoms: C_6  and  N_7
REMARK    3  A    between atoms: C_12  and  C_13
REMARK    4  A    between atoms: N_15  and  C_16
REMARK    5  A    between atoms: C_16  and  C_17
REMARK                            x       y       z     vdW  Elec       q    Type
REMARK                         _______ _______ _______ _____ _____    ______ ____
ROOT
ATOM      1  N   UNL     1       1.053  10.248  18.824  0.00  0.00    +0.000 N 
ATOM      2  C   UNL     1       1.850  10.157  17.704  0.00  0.00    +0.000 A 
ATOM      3  N   UNL     1       2.542   9.041  17.668  0.00  0.00    +0.000 NA
ATOM      4  C   UNL     1       2.157   8.363  18.793  0.00  0.00    +0.000 A 
ATOM      5  C   UNL     1       2.408   7.030  19.131  0.00  0.00    +0.000 A 
ATOM      6  C   UNL     1       1.774   6.500  20.265  0.00  0.00    +0.000 A 
ATOM      7  C   UNL     1       1.059   7.325  21.143  0.00  0.00    +0.000 A 
ATOM      8  C   UNL     1       0.836   8.672  20.837  0.00  0.00    +0.000 A 
ATOM      9  C   UNL     1       1.340   9.140  19.611  0.00  0.00    +0.000 A 
ENDROOT
BRANCH   1  15
ATOM     10  C   UNL     1      -3.676  10.355  17.586  0.00  0.00    +0.000 C 
ATOM     11  C   UNL     1      -2.529  10.940  18.356  0.00  0.00    +0.000 A 
ATOM     12  C   UNL     1      -2.736  11.904  19.350  0.00  0.00    +0.000 A 
ATOM     13  C   UNL     1      -1.662  12.402  20.097  0.00  0.00    +0.000 A 
ATOM     14  C   UNL     1      -0.372  11.915  19.888  0.00  0.00    +0.000 A 
ATOM     15  C   UNL     1      -0.166  10.958  18.896  0.00  0.00    +0.000 A 
ATOM     16  C   UNL     1      -1.229  10.496  18.104  0.00  0.00    +0.000 A 
ENDBRANCH   1  15
BRANCH   6  17
ATOM     17  C   UNL     1       1.734   5.025  20.465  0.00  0.00    +0.000 C 
ATOM     18  O   UNL     1       0.672   4.420  20.496  0.00  0.00    +0.000 OA
ATOM     19  N   UNL     1       2.977   4.421  20.519  0.00  0.00    +0.000 N 
ATOM     20  H   UNL     1       3.803   4.985  20.366  0.00  0.00    +0.000 HD
BRANCH  19  21
ATOM     21  C   UNL     1       3.184   3.002  20.727  0.00  0.00    +0.000 C 
BRANCH  21  22
ATOM     22  C   UNL     1       4.190   2.364  19.758  0.00  0.00    +0.000 C 
ATOM     23  C   UNL     1       3.528   1.452  18.732  0.00  0.00    +0.000 C 
ATOM     24  N   UNL     1       3.228   2.326  17.639  0.00  0.00    +0.000 N 
ATOM     25  C   UNL     1       4.033   3.445  17.628  0.00  0.00    +0.000 C 
ATOM     26  O   UNL     1       4.085   4.266  16.732  0.00  0.00    +0.000 OA
ATOM     27  C   UNL     1       4.863   3.439  18.886  0.00  0.00    +0.000 C 
ATOM     28  H   UNL     1       2.707   2.073  16.807  0.00  0.00    +0.000 HD
ENDBRANCH  21  22
ENDBRANCH  19  21
ENDBRANCH   6  17
TORSDOF 4
ENDMDL
MODEL 7
REMARK VINA RESULT:      -7.8      3.781      8.789
REMARK  Name = 
REMARK  5 active torsions:
REMARK  status: ('A' for Active; 'I' for Inactive)
REMARK    1  A    between atoms: C_1  and  C_2
REMARK    2  A    between atoms: C_6  and  N_7
REMARK    3  A    between atoms: C_12  and  C_13
REMARK    4  A    between atoms: N_15  and  C_16
REMARK    5  A    between atoms: C_16  and  C_17
REMARK                            x       y       z     vdW  Elec       q    Type
REMARK                         _______ _______ _______ _____ _____    ______ ____
ROOT
ATOM      1  N   UNL     1       0.699  11.703  19.824  0.00  0.00    +0.000 N 
ATOM      2  C   UNL     1       0.471  11.569  21.176  0.00  0.00    +0.000 A 
ATOM      3  N   UNL     1       0.605  10.329  21.588  0.00  0.00    +0.000 NA
ATOM      4  C   UNL     1       0.964   9.632  20.466  0.00  0.00    +0.000 A 
ATOM      5  C   UNL     1       1.450   8.324  20.376  0.00  0.00    +0.000 A 
ATOM      6  C   UNL     1       1.910   7.869  19.131  0.00  0.00    +0.000 A 
ATOM      7  C   UNL     1       1.718   8.630  17.970  0.00  0.00    +0.000 A 
ATOM      8  C   UNL     1       1.193   9.925  18.041  0.00  0.00    +0.000 A 
ATOM      9  C   UNL     1       0.895  10.422  19.322  0.00  0.00    +0.000 A 
ENDROOT
BRANCH   1  15
ATOM     10  C   UNL     1      -0.153  16.378  18.674  0.00  0.00    +0.000 C 
ATOM     11  C   UNL     1       0.790  15.212  18.724  0.00  0.00    +0.000 A 
ATOM     12  C   UNL     1       2.161  15.373  18.494  0.00  0.00    +0.000 A 
ATOM     13  C   UNL     1       3.035  14.285  18.597  0.00  0.00    +0.000 A 
ATOM     14  C   UNL     1       2.557  13.029  18.971  0.00  0.00    +0.000 A 
ATOM     15  C   UNL     1       1.192  12.868  19.196  0.00  0.00    +0.000 A 
ATOM     16  C   UNL     1       0.301  13.942  19.038  0.00  0.00    +0.000 A 
ENDBRANCH   1  15
BRANCH   6  17
ATOM     17  C   UNL     1       2.738   6.635  19.057  0.00  0.00    +0.000 C 
ATOM     18  O   UNL     1       2.695   5.792  19.942  0.00  0.00    +0.000 OA
ATOM     19  N   UNL     1       3.462   6.500  17.887  0.00  0.00    +0.000 N 
ATOM     20  H   UNL     1       3.346   7.190  17.156  0.00  0.00    +0.000 HD
BRANCH  19  21
ATOM     21  C   UNL     1       4.352   5.391  17.603  0.00  0.00    +0.000 C 
BRANCH  21  22
ATOM     22  C   UNL     1       5.474   5.725  16.609  0.00  0.00    +0.000 C 
ATOM     23  C   UNL     1       6.388   6.841  17.101  0.00  0.00    +0.000 C 
ATOM     24  N   UNL     1       7.413   6.152  17.826  0.00  0.00    +0.000 N 
ATOM     25  C   UNL     1       7.543   4.839  17.426  0.00  0.00    +0.000 C 
ATOM     26  O   UNL     1       8.430   4.082  17.774  0.00  0.00    +0.000 OA
ATOM     27  C   UNL     1       6.435   4.532  16.452  0.00  0.00    +0.000 C 
ATOM     28  H   UNL     1       8.153   6.589  18.363  0.00  0.00    +0.000 HD
ENDBRANCH  21  22
ENDBRANCH  19  21
ENDBRANCH   6  17
TORSDOF 4
ENDMDL
MODEL 8
REMARK VINA RESULT:      -7.8      3.746      8.321
REMARK  Name = 
REMARK  5 active torsions:
REMARK  status: ('A' for Active; 'I' for Inactive)
REMARK    1  A    between atoms: C_1  and  C_2
REMARK    2  A    between atoms: C_6  and  N_7
REMARK    3  A    between atoms: C_12  and  C_13
REMARK    4  A    between atoms: N_15  and  C_16
REMARK    5  A    between atoms: C_16  and  C_17
REMARK                            x       y       z     vdW  Elec       q    Type
REMARK                         _______ _______ _______ _____ _____    ______ ____
ROOT
ATOM      1  N   UNL     1       0.825  10.299  19.632  0.00  0.00    +0.000 N 
ATOM      2  C   UNL     1       0.606  10.064  20.971  0.00  0.00    +0.000 A 
ATOM      3  N   UNL     1       0.975   8.857  21.337  0.00  0.00    +0.000 NA
ATOM      4  C   UNL     1       1.482   8.293  20.197  0.00  0.00    +0.000 A 
ATOM      5  C   UNL     1       2.217   7.112  20.067  0.00  0.00    +0.000 A 
ATOM      6  C   UNL     1       2.778   6.811  18.817  0.00  0.00    +0.000 A 
ATOM      7  C   UNL     1       2.459   7.569  17.682  0.00  0.00    +0.000 A 
ATOM      8  C   UNL     1       1.689   8.732  17.792  0.00  0.00    +0.000 A 
ATOM      9  C   UNL     1       1.278   9.105  19.084  0.00  0.00    +0.000 A 
ENDROOT
BRANCH   1  15
ATOM     10  C   UNL     1      -0.443  15.016  19.430  0.00  0.00    +0.000 C 
ATOM     11  C   UNL     1       0.507  13.917  19.054  0.00  0.00    +0.000 A 
ATOM     12  C   UNL     1       1.754  14.196  18.481  0.00  0.00    +0.000 A 
ATOM     13  C   UNL     1       2.651  13.164  18.186  0.00  0.00    +0.000 A 
ATOM     14  C   UNL     1       2.332  11.842  18.495  0.00  0.00    +0.000 A 
ATOM     15  C   UNL     1       1.089  11.565  19.063  0.00  0.00    +0.000 A 
ATOM     16  C   UNL     1       0.161  12.588  19.308  0.00  0.00    +0.000 A 
ENDBRANCH   1  15
BRANCH   6  17
ATOM     17  C   UNL     1       3.834   5.767  18.714  0.00  0.00    +0.000 C 
ATOM     18  O   UNL     1       4.621   5.574  19.630  0.00  0.00    +0.000 OA
ATOM     19  N   UNL     1       3.777   5.005  17.562  0.00  0.00    +0.000 N 
ATOM     20  H   UNL     1       3.017   5.157  16.911  0.00  0.00    +0.000 HD
BRANCH  19  21
ATOM     21  C   UNL     1       4.713   3.947  17.238  0.00  0.00    +0.000 C 
BRANCH  21  22
ATOM     22  C   UNL     1       5.617   4.253  16.035  0.00  0.00    +0.000 C 
ATOM     23  C   UNL     1       5.169   5.485  15.257  0.00  0.00    +0.000 C 
ATOM     24  N   UNL     1       5.866   6.563  15.889  0.00  0.00    +0.000 N 
ATOM     25  C   UNL     1       7.001   6.138  16.546  0.00  0.00    +0.000 C 
ATOM     26  O   UNL     1       7.845   6.865  17.035  0.00  0.00    +0.000 OA
ATOM     27  C   UNL     1       7.034   4.632  16.502  0.00  0.00    +0.000 C 
ATOM     28  H   UNL     1       5.745   7.548  15.681  0.00  0.00    +0.000 HD
ENDBRANCH  21  22
ENDBRANCH  19  21
ENDBRANCH   6  17
TORSDOF 4
ENDMDL
MODEL 9
REMARK VINA RESULT:      -7.8      2.828      8.083
REMARK  Name = 
REMARK  5 active torsions:
REMARK  status: ('A' for Active; 'I' for Inactive)
REMARK    1  A    between atoms: C_1  and  C_2
REMARK    2  A    between atoms: C_6  and  N_7
REMARK    3  A    between atoms: C_12  and  C_13
REMARK    4  A    between atoms: N_15  and  C_16
REMARK    5  A    between atoms: C_16  and  C_17
REMARK                            x       y       z     vdW  Elec       q    Type
REMARK                         _______ _______ _______ _____ _____    ______ ____
ROOT
ATOM      1  N   UNL     1       0.413  10.320  18.888  0.00  0.00    +0.000 N 
ATOM      2  C   UNL     1       1.157  10.456  17.737  0.00  0.00    +0.000 A 
ATOM      3  N   UNL     1       2.105   9.551  17.640  0.00  0.00    +0.000 NA
ATOM      4  C   UNL     1       1.953   8.776  18.758  0.00  0.00    +0.000 A 
ATOM      5  C   UNL     1       2.545   7.543  19.045  0.00  0.00    +0.000 A 
ATOM      6  C   UNL     1       2.116   6.847  20.185  0.00  0.00    +0.000 A 
ATOM      7  C   UNL     1       1.256   7.448  21.115  0.00  0.00    +0.000 A 
ATOM      8  C   UNL     1       0.689   8.701  20.859  0.00  0.00    +0.000 A 
ATOM      9  C   UNL     1       1.004   9.305  19.630  0.00  0.00    +0.000 A 
ENDROOT
BRANCH   1  15
ATOM     10  C   UNL     1      -2.745  13.506  20.833  0.00  0.00    +0.000 C 
ATOM     11  C   UNL     1      -2.478  12.346  19.920  0.00  0.00    +0.000 A 
ATOM     12  C   UNL     1      -3.441  11.903  19.005  0.00  0.00    +0.000 A 
ATOM     13  C   UNL     1      -3.159  10.854  18.122  0.00  0.00    +0.000 A 
ATOM     14  C   UNL     1      -1.898  10.259  18.114  0.00  0.00    +0.000 A 
ATOM     15  C   UNL     1      -0.941  10.698  19.028  0.00  0.00    +0.000 A 
ATOM     16  C   UNL     1      -1.235  11.710  19.955  0.00  0.00    +0.000 A 
ENDBRANCH   1  15
BRANCH   6  17
ATOM     17  C   UNL     1       2.457   5.407  20.342  0.00  0.00    +0.000 C 
ATOM     18  O   UNL     1       1.689   4.633  20.896  0.00  0.00    +0.000 OA
ATOM     19  N   UNL     1       3.643   5.030  19.739  0.00  0.00    +0.000 N 
ATOM     20  H   UNL     1       4.157   5.714  19.200  0.00  0.00    +0.000 HD
BRANCH  19  21
ATOM     21  C   UNL     1       4.185   3.686  19.779  0.00  0.00    +0.000 C 
BRANCH  21  22
ATOM     22  C   UNL     1       3.865   2.842  18.536  0.00  0.00    +0.000 C 
ATOM     23  C   UNL     1       2.770   1.812  18.786  0.00  0.00    +0.000 C 
ATOM     24  N   UNL     1       1.562   2.509  18.463  0.00  0.00    +0.000 N 
ATOM     25  C   UNL     1       1.782   3.565  17.604  0.00  0.00    +0.000 C 
ATOM     26  O   UNL     1       0.914   4.222  17.061  0.00  0.00    +0.000 OA
ATOM     27  C   UNL     1       3.269   3.719  17.420  0.00  0.00    +0.000 C 
ATOM     28  H   UNL     1       0.621   2.153  18.591  0.00  0.00    +0.000 HD
ENDBRANCH  21  22
ENDBRANCH  19  21
ENDBRANCH   6  17
TORSDOF 4
ENDMDL
