MODEL 1
REMARK VINA RESULT:      -8.4      0.000      0.000
REMARK  Name = 
REMARK  6 active torsions:
REMARK  status: ('A' for Active; 'I' for Inactive)
REMARK    1  A    between atoms: C_2  and  C_3
REMARK    2  A    between atoms: C_3  and  N_4
REMARK    3  A    between atoms: C_5  and  C_6
REMARK    4  A    between atoms: N_17  and  C_18
REMARK    5  A    between atoms: C_18  and  C_19
REMARK    6  A    between atoms: C_22  and  C_23
REMARK                            x       y       z     vdW  Elec       q    Type
REMARK                         _______ _______ _______ _____ _____    ______ ____
ROOT
ATOM      1  O   UNL     1       5.409   6.593  14.894  0.00  0.00    +0.000 OA
ATOM      2  C   UNL     1       5.140   6.013  15.941  0.00  0.00    +0.000 C 
ATOM      3  N   UNL     1       4.320   6.557  16.909  0.00  0.00    +0.000 N 
ATOM      4  H   UNL     1       4.159   6.060  17.776  0.00  0.00    +0.000 HD
ENDROOT
BRANCH   2   5
ATOM      5  C   UNL     1       5.659   4.615  16.237  0.00  0.00    +0.000 C 
BRANCH   5   6
ATOM      6  N   UNL     1       5.374   4.164  17.592  0.00  0.00    +0.000 N 
ATOM      7  C   UNL     1       6.099   4.414  18.747  0.00  0.00    +0.000 A 
ATOM      8  N   UNL     1       5.510   3.843  19.788  0.00  0.00    +0.000 NA
ATOM      9  C   UNL     1       4.349   3.293  19.325  0.00  0.00    +0.000 A 
ATOM     10  C   UNL     1       3.342   2.619  20.032  0.00  0.00    +0.000 A 
ATOM     11  C   UNL     1       2.211   2.178  19.338  0.00  0.00    +0.000 A 
ATOM     12  C   UNL     1       2.090   2.400  17.967  0.00  0.00    +0.000 A 
ATOM     13  C   UNL     1       3.096   3.053  17.242  0.00  0.00    +0.000 A 
ATOM     14  C   UNL     1       4.221   3.491  17.958  0.00  0.00    +0.000 A 
BRANCH   7  15
ATOM     15  C   UNL     1       7.355   5.230  18.824  0.00  0.00    +0.000 C 
ATOM     16  F   UNL     1       7.756   5.475  20.103  0.00  0.00    +0.000 F 
ATOM     17  F   UNL     1       8.402   4.628  18.209  0.00  0.00    +0.000 F 
ATOM     18  F   UNL     1       7.205   6.456  18.258  0.00  0.00    +0.000 F 
ENDBRANCH   7  15
ENDBRANCH   5   6
ENDBRANCH   2   5
BRANCH   3  19
ATOM     19  C   UNL     1       3.635   7.829  16.743  0.00  0.00    +0.000 C 
BRANCH  19  20
ATOM     20  C   UNL     1       2.727   8.101  17.919  0.00  0.00    +0.000 A 
ATOM     21  C   UNL     1       2.039   9.317  18.034  0.00  0.00    +0.000 A 
ATOM     22  C   UNL     1       1.308   9.619  19.188  0.00  0.00    +0.000 A 
ATOM     23  C   UNL     1       1.246   8.710  20.254  0.00  0.00    +0.000 A 
ATOM     24  C   UNL     1       1.873   7.467  20.107  0.00  0.00    +0.000 A 
ATOM     25  C   UNL     1       2.607   7.165  18.956  0.00  0.00    +0.000 A 
BRANCH  23  26
ATOM     26  C   UNL     1       0.594   9.060  21.513  0.00  0.00    +0.000 A 
ATOM     27  C   UNL     1      -0.711   8.907  21.945  0.00  0.00    +0.000 A 
ATOM     28  C   UNL     1      -0.717   9.363  23.278  0.00  0.00    +0.000 A 
ATOM     29  N   UNL     1       0.485   9.767  23.680  0.00  0.00    +0.000 NA
ATOM     30  N   UNL     1       1.258   9.568  22.600  0.00  0.00    +0.000 N 
ATOM     31  H   UNL     1       2.249   9.776  22.680  0.00  0.00    +0.000 HD
ENDBRANCH  23  26
ENDBRANCH  19  20
ENDBRANCH   3  19
TORSDOF 6
ENDMDL
MODEL 2
REMARK VINA RESULT:      -8.3      0.794      1.065
REMARK  Name = 
REMARK  6 active torsions:
REMARK  status: ('A' for Active; 'I' for Inactive)
REMARK    1  A    between atoms: C_2  and  C_3
REMARK    2  A    between atoms: C_3  and  N_4
REMARK    3  A    between atoms: C_5  and  C_6
REMARK    4  A    between atoms: N_17  and  C_18
REMARK    5  A    between atoms: C_18  and  C_19
REMARK    6  A    between atoms: C_22  and  C_23
REMARK                            x       y       z     vdW  Elec       q    Type
REMARK                         _______ _______ _______ _____ _____    ______ ____
ROOT
ATOM      1  O   UNL     1       5.326   6.589  15.154  0.00  0.00    +0.000 OA
ATOM      2  C   UNL     1       4.909   6.032  16.164  0.00  0.00    +0.000 C 
ATOM      3  N   UNL     1       4.077   6.655  17.073  0.00  0.00    +0.000 N 
ATOM      4  H   UNL     1       3.790   6.170  17.914  0.00  0.00    +0.000 HD
ENDROOT
BRANCH   2   5
ATOM      5  C   UNL     1       5.245   4.582  16.475  0.00  0.00    +0.000 C 
BRANCH   5   6
ATOM      6  N   UNL     1       5.005   4.215  17.864  0.00  0.00    +0.000 N 
ATOM      7  C   UNL     1       5.790   4.498  18.971  0.00  0.00    +0.000 A 
ATOM      8  N   UNL     1       5.227   4.006  20.067  0.00  0.00    +0.000 NA
ATOM      9  C   UNL     1       4.028   3.478  19.685  0.00  0.00    +0.000 A 
ATOM     10  C   UNL     1       3.029   2.882  20.470  0.00  0.00    +0.000 A 
ATOM     11  C   UNL     1       1.852   2.449  19.850  0.00  0.00    +0.000 A 
ATOM     12  C   UNL     1       1.679   2.603  18.475  0.00  0.00    +0.000 A 
ATOM     13  C   UNL     1       2.674   3.177  17.674  0.00  0.00    +0.000 A 
ATOM     14  C   UNL     1       3.845   3.608  18.315  0.00  0.00    +0.000 A 
BRANCH   7  15
ATOM     15  C   UNL     1       7.076   5.267  18.950  0.00  0.00    +0.000 C 
ATOM     16  F   UNL     1       8.059   4.647  18.238  0.00  0.00    +0.000 F 
ATOM     17  F   UNL     1       6.934   6.499  18.402  0.00  0.00    +0.000 F 
ATOM     18  F   UNL     1       7.592   5.437  20.196  0.00  0.00    +0.000 F 
ENDBRANCH   7  15
ENDBRANCH   5   6
ENDBRANCH   2   5
BRANCH   3  19
ATOM     19  C   UNL     1       3.551   7.997  16.875  0.00  0.00    +0.000 C 
BRANCH  19  20
ATOM     20  C   UNL     1       2.572   8.350  17.969  0.00  0.00    +0.000 A 
ATOM     21  C   UNL     1       1.809   9.525  17.903  0.00  0.00    +0.000 A 
ATOM     22  C   UNL     1       1.005   9.916  18.979  0.00  0.00    +0.000 A 
ATOM     23  C   UNL     1       0.944   9.141  20.146  0.00  0.00    +0.000 A 
ATOM     24  C   UNL     1       1.649   7.933  20.180  0.00  0.00    +0.000 A 
ATOM     25  C   UNL     1       2.456   7.541  19.108  0.00  0.00    +0.000 A 
BRANCH  23  26
ATOM     26  C   UNL     1       0.210   9.598  21.323  0.00  0.00    +0.000 A 
ATOM     27  C   UNL     1       0.126   9.092  22.608  0.00  0.00    +0.000 A 
ATOM     28  C   UNL     1      -0.672  10.010  23.317  0.00  0.00    +0.000 A 
ATOM     29  N   UNL     1      -1.064  11.031  22.560  0.00  0.00    +0.000 NA
ATOM     30  N   UNL     1      -0.514  10.763  21.366  0.00  0.00    +0.000 N 
ATOM     31  H   UNL     1      -0.649  11.437  20.617  0.00  0.00    +0.000 HD
ENDBRANCH  23  26
ENDBRANCH  19  20
ENDBRANCH   3  19
TORSDOF 6
ENDMDL
MODEL 3
REMARK VINA RESULT:      -8.3      4.102      5.175
REMARK  Name = 
REMARK  6 active torsions:
REMARK  status: ('A' for Active; 'I' for Inactive)
REMARK    1  A    between atoms: C_2  and  C_3
REMARK    2  A    between atoms: C_3  and  N_4
REMARK    3  A    between atoms: C_5  and  C_6
REMARK    4  A    between atoms: N_17  and  C_18
REMARK    5  A    between atoms: C_18  and  C_19
REMARK    6  A    between atoms: C_22  and  C_23
REMARK                            x       y       z     vdW  Elec       q    Type
REMARK                         _______ _______ _______ _____ _____    ______ ____
ROOT
ATOM      1  O   UNL     1       2.045   7.368  20.056  0.00  0.00    +0.000 OA
ATOM      2  C   UNL     1       2.122   7.284  18.835  0.00  0.00    +0.000 C 
ATOM      3  N   UNL     1       1.940   8.367  17.998  0.00  0.00    +0.000 N 
ATOM      4  H   UNL     1       1.973   8.243  16.994  0.00  0.00    +0.000 HD
ENDROOT
BRANCH   2   5
ATOM      5  C   UNL     1       2.470   5.976  18.143  0.00  0.00    +0.000 C 
BRANCH   5   6
ATOM      6  N   UNL     1       3.745   5.415  18.568  0.00  0.00    +0.000 N 
ATOM      7  C   UNL     1       3.969   4.264  19.308  0.00  0.00    +0.000 A 
ATOM      8  N   UNL     1       5.271   4.079  19.480  0.00  0.00    +0.000 NA
ATOM      9  C   UNL     1       5.901   5.064  18.775  0.00  0.00    +0.000 A 
ATOM     10  C   UNL     1       7.274   5.285  18.592  0.00  0.00    +0.000 A 
ATOM     11  C   UNL     1       7.683   6.349  17.781  0.00  0.00    +0.000 A 
ATOM     12  C   UNL     1       6.742   7.178  17.172  0.00  0.00    +0.000 A 
ATOM     13  C   UNL     1       5.368   6.983  17.361  0.00  0.00    +0.000 A 
ATOM     14  C   UNL     1       4.978   5.908  18.174  0.00  0.00    +0.000 A 
BRANCH   7  15
ATOM     15  C   UNL     1       2.905   3.342  19.823  0.00  0.00    +0.000 C 
ATOM     16  F   UNL     1       1.954   3.982  20.560  0.00  0.00    +0.000 F 
ATOM     17  F   UNL     1       2.245   2.706  18.825  0.00  0.00    +0.000 F 
ATOM     18  F   UNL     1       3.410   2.386  20.646  0.00  0.00    +0.000 F 
ENDBRANCH   7  15
ENDBRANCH   5   6
ENDBRANCH   2   5
BRANCH   3  19
ATOM     19  C   UNL     1       1.724   9.720  18.487  0.00  0.00    +0.000 C 
BRANCH  19  20
ATOM     20  C   UNL     1       0.257  10.073  18.442  0.00  0.00    +0.000 A 
ATOM     21  C   UNL     1      -0.577   9.563  17.436  0.00  0.00    +0.000 A 
ATOM     22  C   UNL     1      -1.901   9.998  17.317  0.00  0.00    +0.000 A 
ATOM     23  C   UNL     1      -2.424  10.952  18.202  0.00  0.00    +0.000 A 
ATOM     24  C   UNL     1      -1.612  11.405  19.248  0.00  0.00    +0.000 A 
ATOM     25  C   UNL     1      -0.286  10.974  19.367  0.00  0.00    +0.000 A 
BRANCH  23  26
ATOM     26  C   UNL     1      -3.761  11.508  18.015  0.00  0.00    +0.000 A 
ATOM     27  C   UNL     1      -4.723  11.283  17.048  0.00  0.00    +0.000 A 
ATOM     28  C   UNL     1      -5.835  12.052  17.443  0.00  0.00    +0.000 A 
ATOM     29  N   UNL     1      -5.616  12.712  18.577  0.00  0.00    +0.000 NA
ATOM     30  N   UNL     1      -4.363  12.362  18.905  0.00  0.00    +0.000 N 
ATOM     31  H   UNL     1      -3.979  12.723  19.774  0.00  0.00    +0.000 HD
ENDBRANCH  23  26
ENDBRANCH  19  20
ENDBRANCH   3  19
TORSDOF 6
ENDMDL
MODEL 4
REMARK VINA RESULT:      -8.3      5.732      7.179
REMARK  Name = 
REMARK  6 active torsions:
REMARK  status: ('A' for Active; 'I' for Inactive)
REMARK    1  A    between atoms: C_2  and  C_3
REMARK    2  A    between atoms: C_3  and  N_4
REMARK    3  A    between atoms: C_5  and  C_6
REMARK    4  A    between atoms: N_17  and  C_18
REMARK    5  A    between atoms: C_18  and  C_19
REMARK    6  A    between atoms: C_22  and  C_23
REMARK                            x       y       z     vdW  Elec       q    Type
REMARK                         _______ _______ _______ _____ _____    ______ ____
ROOT
ATOM      1  O   UNL     1       7.260   6.283  18.331  0.00  0.00    +0.000 OA
ATOM      2  C   UNL     1       6.870   7.233  17.660  0.00  0.00    +0.000 C 
ATOM      3  N   UNL     1       7.465   8.478  17.710  0.00  0.00    +0.000 N 
ATOM      4  H   UNL     1       7.083   9.245  17.169  0.00  0.00    +0.000 HD
ENDROOT
BRANCH   2   5
ATOM      5  C   UNL     1       5.716   7.100  16.680  0.00  0.00    +0.000 C 
BRANCH   5   6
ATOM      6  N   UNL     1       4.984   5.848  16.811  0.00  0.00    +0.000 N 
ATOM      7  C   UNL     1       5.239   4.639  16.182  0.00  0.00    +0.000 A 
ATOM      8  N   UNL     1       4.357   3.728  16.571  0.00  0.00    +0.000 NA
ATOM      9  C   UNL     1       3.578   4.322  17.524  0.00  0.00    +0.000 A 
ATOM     10  C   UNL     1       2.534   3.775  18.284  0.00  0.00    +0.000 A 
ATOM     11  C   UNL     1       1.906   4.578  19.242  0.00  0.00    +0.000 A 
ATOM     12  C   UNL     1       2.308   5.900  19.432  0.00  0.00    +0.000 A 
ATOM     13  C   UNL     1       3.335   6.467  18.667  0.00  0.00    +0.000 A 
ATOM     14  C   UNL     1       3.955   5.644  17.714  0.00  0.00    +0.000 A 
BRANCH   7  15
ATOM     15  C   UNL     1       6.358   4.379  15.220  0.00  0.00    +0.000 C 
ATOM     16  F   UNL     1       6.460   5.328  14.248  0.00  0.00    +0.000 F 
ATOM     17  F   UNL     1       7.567   4.334  15.833  0.00  0.00    +0.000 F 
ATOM     18  F   UNL     1       6.200   3.204  14.555  0.00  0.00    +0.000 F 
ENDBRANCH   7  15
ENDBRANCH   5   6
ENDBRANCH   2   5
BRANCH   3  19
ATOM     19  C   UNL     1       8.657   8.757  18.496  0.00  0.00    +0.000 C 
BRANCH  19  20
ATOM     20  C   UNL     1       8.962  10.236  18.491  0.00  0.00    +0.000 A 
ATOM     21  C   UNL     1       8.239  11.119  17.676  0.00  0.00    +0.000 A 
ATOM     22  C   UNL     1       8.613  12.464  17.572  0.00  0.00    +0.000 A 
ATOM     23  C   UNL     1       9.717  12.957  18.282  0.00  0.00    +0.000 A 
ATOM     24  C   UNL     1      10.391  12.090  19.150  0.00  0.00    +0.000 A 
ATOM     25  C   UNL     1      10.022  10.745  19.253  0.00  0.00    +0.000 A 
BRANCH  23  26
ATOM     26  C   UNL     1      10.195  14.322  18.089  0.00  0.00    +0.000 A 
ATOM     27  C   UNL     1      10.621  15.284  18.988  0.00  0.00    +0.000 A 
ATOM     28  C   UNL     1      11.033  16.375  18.199  0.00  0.00    +0.000 A 
ATOM     29  N   UNL     1      10.897  16.138  16.897  0.00  0.00    +0.000 NA
ATOM     30  N   UNL     1      10.397  14.893  16.857  0.00  0.00    +0.000 N 
ATOM     31  H   UNL     1      10.239  14.472  15.945  0.00  0.00    +0.000 HD
ENDBRANCH  23  26
ENDBRANCH  19  20
ENDBRANCH   3  19
TORSDOF 6
ENDMDL
MODEL 5
REMARK VINA RESULT:      -8.2      4.532      5.567
REMARK  Name = 
REMARK  6 active torsions:
REMARK  status: ('A' for Active; 'I' for Inactive)
REMARK    1  A    between atoms: C_2  and  C_3
REMARK    2  A    between atoms: C_3  and  N_4
REMARK    3  A    between atoms: C_5  and  C_6
REMARK    4  A    between atoms: N_17  and  C_18
REMARK    5  A    between atoms: C_18  and  C_19
REMARK    6  A    between atoms: C_22  and  C_23
REMARK                            x       y       z     vdW  Elec       q    Type
REMARK                         _______ _______ _______ _____ _____    ______ ____
ROOT
ATOM      1  O   UNL     1       2.140   7.964  19.716  0.00  0.00    +0.000 OA
ATOM      2  C   UNL     1       2.025   7.990  18.495  0.00  0.00    +0.000 C 
ATOM      3  N   UNL     1       1.530   9.084  17.814  0.00  0.00    +0.000 N 
ATOM      4  H   UNL     1       1.414   9.045  16.809  0.00  0.00    +0.000 HD
ENDROOT
BRANCH   2   5
ATOM      5  C   UNL     1       2.463   6.823  17.625  0.00  0.00    +0.000 C 
BRANCH   5   6
ATOM      6  N   UNL     1       3.460   5.970  18.257  0.00  0.00    +0.000 N 
ATOM      7  C   UNL     1       3.252   4.834  19.024  0.00  0.00    +0.000 A 
ATOM      8  N   UNL     1       4.414   4.325  19.411  0.00  0.00    +0.000 NA
ATOM      9  C   UNL     1       5.386   5.081  18.820  0.00  0.00    +0.000 A 
ATOM     10  C   UNL     1       6.779   4.930  18.867  0.00  0.00    +0.000 A 
ATOM     11  C   UNL     1       7.579   5.814  18.136  0.00  0.00    +0.000 A 
ATOM     12  C   UNL     1       6.999   6.831  17.378  0.00  0.00    +0.000 A 
ATOM     13  C   UNL     1       5.610   7.009  17.336  0.00  0.00    +0.000 A 
ATOM     14  C   UNL     1       4.826   6.109  18.074  0.00  0.00    +0.000 A 
BRANCH   7  15
ATOM     15  C   UNL     1       1.914   4.243  19.355  0.00  0.00    +0.000 C 
ATOM     16  F   UNL     1       1.094   4.135  18.272  0.00  0.00    +0.000 F 
ATOM     17  F   UNL     1       2.015   2.996  19.878  0.00  0.00    +0.000 F 
ATOM     18  F   UNL     1       1.226   5.001  20.249  0.00  0.00    +0.000 F 
ENDBRANCH   7  15
ENDBRANCH   5   6
ENDBRANCH   2   5
BRANCH   3  19
ATOM     19  C   UNL     1       1.178  10.334  18.469  0.00  0.00    +0.000 C 
BRANCH  19  20
ATOM     20  C   UNL     1      -0.316  10.548  18.438  0.00  0.00    +0.000 A 
ATOM     21  C   UNL     1      -1.130   9.826  17.554  0.00  0.00    +0.000 A 
ATOM     22  C   UNL     1      -2.492  10.123  17.432  0.00  0.00    +0.000 A 
ATOM     23  C   UNL     1      -3.072  11.147  18.194  0.00  0.00    +0.000 A 
ATOM     24  C   UNL     1      -2.273  11.816  19.128  0.00  0.00    +0.000 A 
ATOM     25  C   UNL     1      -0.911  11.524  19.249  0.00  0.00    +0.000 A 
BRANCH  23  26
ATOM     26  C   UNL     1      -4.460  11.552  17.989  0.00  0.00    +0.000 A 
ATOM     27  C   UNL     1      -5.587  11.407  18.779  0.00  0.00    +0.000 A 
ATOM     28  C   UNL     1      -6.617  12.068  18.082  0.00  0.00    +0.000 A 
ATOM     29  N   UNL     1      -6.192  12.607  16.942  0.00  0.00    +0.000 NA
ATOM     30  N   UNL     1      -4.889  12.288  16.913  0.00  0.00    +0.000 N 
ATOM     31  H   UNL     1      -4.332  12.631  16.135  0.00  0.00    +0.000 HD
ENDBRANCH  23  26
ENDBRANCH  19  20
ENDBRANCH   3  19
TORSDOF 6
ENDMDL
MODEL 6
REMARK VINA RESULT:      -8.2      4.467      5.567
REMARK  Name = 
REMARK  6 active torsions:
REMARK  status: ('A' for Active; 'I' for Inactive)
REMARK    1  A    between atoms: C_2  and  C_3
REMARK    2  A    between atoms: C_3  and  N_4
REMARK    3  A    between atoms: C_5  and  C_6
REMARK    4  A    between atoms: N_17  and  C_18
REMARK    5  A    between atoms: C_18  and  C_19
REMARK    6  A    between atoms: C_22  and  C_23
REMARK                            x       y       z     vdW  Elec       q    Type
REMARK                         _______ _______ _______ _____ _____    ______ ____
ROOT
ATOM      1  O   UNL     1       2.706   9.293  17.455  0.00  0.00    +0.000 OA
ATOM      2  C   UNL     1       2.035   8.520  18.131  0.00  0.00    +0.000 C 
ATOM      3  N   UNL     1       1.193   8.944  19.139  0.00  0.00    +0.000 N 
ATOM      4  H   UNL     1       0.689   8.267  19.698  0.00  0.00    +0.000 HD
ENDROOT
BRANCH   2   5
ATOM      5  C   UNL     1       2.047   7.020  17.879  0.00  0.00    +0.000 C 
BRANCH   5   6
ATOM      6  N   UNL     1       3.165   6.334  18.510  0.00  0.00    +0.000 N 
ATOM      7  C   UNL     1       3.156   5.571  19.668  0.00  0.00    +0.000 A 
ATOM      8  N   UNL     1       4.371   5.100  19.913  0.00  0.00    +0.000 NA
ATOM      9  C   UNL     1       5.156   5.484  18.864  0.00  0.00    +0.000 A 
ATOM     10  C   UNL     1       6.507   5.200  18.615  0.00  0.00    +0.000 A 
ATOM     11  C   UNL     1       7.090   5.673  17.435  0.00  0.00    +0.000 A 
ATOM     12  C   UNL     1       6.341   6.420  16.526  0.00  0.00    +0.000 A 
ATOM     13  C   UNL     1       4.997   6.730  16.769  0.00  0.00    +0.000 A 
ATOM     14  C   UNL     1       4.430   6.242  17.956  0.00  0.00    +0.000 A 
BRANCH   7  15
ATOM     15  C   UNL     1       1.951   5.291  20.515  0.00  0.00    +0.000 C 
ATOM     16  F   UNL     1       2.238   4.566  21.632  0.00  0.00    +0.000 F 
ATOM     17  F   UNL     1       1.348   6.426  20.947  0.00  0.00    +0.000 F 
ATOM     18  F   UNL     1       1.015   4.565  19.850  0.00  0.00    +0.000 F 
ENDBRANCH   7  15
ENDBRANCH   5   6
ENDBRANCH   2   5
BRANCH   3  19
ATOM     19  C   UNL     1       0.959  10.348  19.438  0.00  0.00    +0.000 C 
BRANCH  19  20
ATOM     20  C   UNL     1      -0.419  10.766  18.982  0.00  0.00    +0.000 A 
ATOM     21  C   UNL     1      -1.133  11.762  19.664  0.00  0.00    +0.000 A 
ATOM     22  C   UNL     1      -2.460  12.050  19.324  0.00  0.00    +0.000 A 
ATOM     23  C   UNL     1      -3.102  11.351  18.292  0.00  0.00    +0.000 A 
ATOM     24  C   UNL     1      -2.364  10.409  17.566  0.00  0.00    +0.000 A 
ATOM     25  C   UNL     1      -1.040  10.116  17.907  0.00  0.00    +0.000 A 
BRANCH  23  26
ATOM     26  C   UNL     1      -4.520  11.551  18.009  0.00  0.00    +0.000 A 
ATOM     27  C   UNL     1      -5.658  11.035  18.602  0.00  0.00    +0.000 A 
ATOM     28  C   UNL     1      -6.736  11.656  17.942  0.00  0.00    +0.000 A 
ATOM     29  N   UNL     1      -6.332  12.512  17.007  0.00  0.00    +0.000 NA
ATOM     30  N   UNL     1      -4.994  12.435  17.072  0.00  0.00    +0.000 N 
ATOM     31  H   UNL     1      -4.452  13.040  16.461  0.00  0.00    +0.000 HD
ENDBRANCH  23  26
ENDBRANCH  19  20
ENDBRANCH   3  19
TORSDOF 6
ENDMDL
MODEL 7
REMARK VINA RESULT:      -8.1      4.921      9.212
REMARK  Name = 
REMARK  6 active torsions:
REMARK  status: ('A' for Active; 'I' for Inactive)
REMARK    1  A    between atoms: C_2  and  C_3
REMARK    2  A    between atoms: C_3  and  N_4
REMARK    3  A    between atoms: C_5  and  C_6
REMARK    4  A    between atoms: N_17  and  C_18
REMARK    5  A    between atoms: C_18  and  C_19
REMARK    6  A    between atoms: C_22  and  C_23
REMARK                            x       y       z     vdW  Elec       q    Type
REMARK                         _______ _______ _______ _____ _____    ______ ____
ROOT
ATOM      1  O   UNL     1      -0.311   8.694  21.243  0.00  0.00    +0.000 OA
ATOM      2  C   UNL     1       0.564   9.266  20.600  0.00  0.00    +0.000 C 
ATOM      3  N   UNL     1       1.657   8.607  20.073  0.00  0.00    +0.000 N 
ATOM      4  H   UNL     1       2.375   9.126  19.584  0.00  0.00    +0.000 HD
ENDROOT
BRANCH   2   5
ATOM      5  C   UNL     1       0.490  10.753  20.294  0.00  0.00    +0.000 C 
BRANCH   5   6
ATOM      6  N   UNL     1      -0.863  11.226  20.036  0.00  0.00    +0.000 N 
ATOM      7  C   UNL     1      -1.624  12.101  20.797  0.00  0.00    +0.000 A 
ATOM      8  N   UNL     1      -2.803  12.298  20.223  0.00  0.00    +0.000 NA
ATOM      9  C   UNL     1      -2.778  11.618  19.039  0.00  0.00    +0.000 A 
ATOM     10  C   UNL     1      -3.757  11.544  18.037  0.00  0.00    +0.000 A 
ATOM     11  C   UNL     1      -3.482  10.810  16.879  0.00  0.00    +0.000 A 
ATOM     12  C   UNL     1      -2.258  10.159  16.726  0.00  0.00    +0.000 A 
ATOM     13  C   UNL     1      -1.278  10.206  17.726  0.00  0.00    +0.000 A 
ATOM     14  C   UNL     1      -1.572  10.951  18.878  0.00  0.00    +0.000 A 
BRANCH   7  15
ATOM     15  C   UNL     1      -1.180  12.755  22.071  0.00  0.00    +0.000 C 
ATOM     16  F   UNL     1      -2.154  13.509  22.653  0.00  0.00    +0.000 F 
ATOM     17  F   UNL     1      -0.790  11.854  23.006  0.00  0.00    +0.000 F 
ATOM     18  F   UNL     1      -0.140  13.607  21.874  0.00  0.00    +0.000 F 
ENDBRANCH   7  15
ENDBRANCH   5   6
ENDBRANCH   2   5
BRANCH   3  19
ATOM     19  C   UNL     1       1.829   7.165  20.158  0.00  0.00    +0.000 C 
BRANCH  19  20
ATOM     20  C   UNL     1       2.666   6.662  19.006  0.00  0.00    +0.000 A 
ATOM     21  C   UNL     1       2.976   5.300  18.881  0.00  0.00    +0.000 A 
ATOM     22  C   UNL     1       3.862   4.857  17.892  0.00  0.00    +0.000 A 
ATOM     23  C   UNL     1       4.456   5.765  17.004  0.00  0.00    +0.000 A 
ATOM     24  C   UNL     1       4.088   7.113  17.085  0.00  0.00    +0.000 A 
ATOM     25  C   UNL     1       3.207   7.559  18.075  0.00  0.00    +0.000 A 
BRANCH  23  26
ATOM     26  C   UNL     1       5.475   5.337  16.051  0.00  0.00    +0.000 A 
ATOM     27  C   UNL     1       5.425   4.457  14.984  0.00  0.00    +0.000 A 
ATOM     28  C   UNL     1       6.702   4.515  14.394  0.00  0.00    +0.000 A 
ATOM     29  N   UNL     1       7.510   5.368  15.017  0.00  0.00    +0.000 NA
ATOM     30  N   UNL     1       6.745   5.855  16.007  0.00  0.00    +0.000 N 
ATOM     31  H   UNL     1       7.145   6.568  16.611  0.00  0.00    +0.000 HD
ENDBRANCH  23  26
ENDBRANCH  19  20
ENDBRANCH   3  19
TORSDOF 6
ENDMDL
MODEL 8
REMARK VINA RESULT:      -8.1      4.497      5.577
REMARK  Name = 
REMARK  6 active torsions:
REMARK  status: ('A' for Active; 'I' for Inactive)
REMARK    1  A    between atoms: C_2  and  C_3
REMARK    2  A    between atoms: C_3  and  N_4
REMARK    3  A    between atoms: C_5  and  C_6
REMARK    4  A    between atoms: N_17  and  C_18
REMARK    5  A    between atoms: C_18  and  C_19
REMARK    6  A    between atoms: C_22  and  C_23
REMARK                            x       y       z     vdW  Elec       q    Type
REMARK                         _______ _______ _______ _____ _____    ______ ____
ROOT
ATOM      1  O   UNL     1       2.390   7.512  19.869  0.00  0.00    +0.000 OA
ATOM      2  C   UNL     1       2.164   7.878  18.720  0.00  0.00    +0.000 C 
ATOM      3  N   UNL     1       1.455   9.026  18.425  0.00  0.00    +0.000 N 
ATOM      4  H   UNL     1       1.258   9.267  17.462  0.00  0.00    +0.000 HD
ENDROOT
BRANCH   2   5
ATOM      5  C   UNL     1       2.691   7.110  17.518  0.00  0.00    +0.000 C 
BRANCH   5   6
ATOM      6  N   UNL     1       3.564   6.002  17.875  0.00  0.00    +0.000 N 
ATOM      7  C   UNL     1       3.206   4.709  18.226  0.00  0.00    +0.000 A 
ATOM      8  N   UNL     1       4.290   3.985  18.469  0.00  0.00    +0.000 NA
ATOM      9  C   UNL     1       5.362   4.783  18.189  0.00  0.00    +0.000 A 
ATOM     10  C   UNL     1       6.731   4.479  18.234  0.00  0.00    +0.000 A 
ATOM     11  C   UNL     1       7.652   5.461  17.855  0.00  0.00    +0.000 A 
ATOM     12  C   UNL     1       7.216   6.722  17.447  0.00  0.00    +0.000 A 
ATOM     13  C   UNL     1       5.854   7.047  17.416  0.00  0.00    +0.000 A 
ATOM     14  C   UNL     1       4.946   6.047  17.795  0.00  0.00    +0.000 A 
BRANCH   7  15
ATOM     15  C   UNL     1       1.803   4.187  18.302  0.00  0.00    +0.000 C 
ATOM     16  F   UNL     1       1.021   4.601  17.265  0.00  0.00    +0.000 F 
ATOM     17  F   UNL     1       1.753   2.832  18.293  0.00  0.00    +0.000 F 
ATOM     18  F   UNL     1       1.159   4.607  19.422  0.00  0.00    +0.000 F 
ENDBRANCH   7  15
ENDBRANCH   5   6
ENDBRANCH   2   5
BRANCH   3  19
ATOM     19  C   UNL     1       0.983   9.949  19.445  0.00  0.00    +0.000 C 
BRANCH  19  20
ATOM     20  C   UNL     1      -0.347  10.545  19.047  0.00  0.00    +0.000 A 
ATOM     21  C   UNL     1      -0.967  11.518  19.843  0.00  0.00    +0.000 A 
ATOM     22  C   UNL     1      -2.259  11.967  19.545  0.00  0.00    +0.000 A 
ATOM     23  C   UNL     1      -2.959  11.455  18.443  0.00  0.00    +0.000 A 
ATOM     24  C   UNL     1      -2.308  10.537  17.610  0.00  0.00    +0.000 A 
ATOM     25  C   UNL     1      -1.020  10.084  17.908  0.00  0.00    +0.000 A 
BRANCH  23  26
ATOM     26  C   UNL     1      -4.350  11.819  18.191  0.00  0.00    +0.000 A 
ATOM     27  C   UNL     1      -5.436  11.941  19.040  0.00  0.00    +0.000 A 
ATOM     28  C   UNL     1      -6.493  12.397  18.227  0.00  0.00    +0.000 A 
ATOM     29  N   UNL     1      -6.121  12.567  16.961  0.00  0.00    +0.000 NA
ATOM     30  N   UNL     1      -4.825  12.219  16.968  0.00  0.00    +0.000 N 
ATOM     31  H   UNL     1      -4.305  12.303  16.098  0.00  0.00    +0.000 HD
ENDBRANCH  23  26
ENDBRANCH  19  20
ENDBRANCH   3  19
TORSDOF 6
ENDMDL
MODEL 9
REMARK VINA RESULT:      -8.0      2.439      3.099
REMARK  Name = 
REMARK  6 active torsions:
REMARK  status: ('A' for Active; 'I' for Inactive)
REMARK    1  A    between atoms: C_2  and  C_3
REMARK    2  A    between atoms: C_3  and  N_4
REMARK    3  A    between atoms: C_5  and  C_6
REMARK    4  A    between atoms: N_17  and  C_18
REMARK    5  A    between atoms: C_18  and  C_19
REMARK    6  A    between atoms: C_22  and  C_23
REMARK                            x       y       z     vdW  Elec       q    Type
REMARK                         _______ _______ _______ _____ _____    ______ ____
ROOT
ATOM      1  O   UNL     1       4.103   7.607  16.599  0.00  0.00    +0.000 OA
ATOM      2  C   UNL     1       3.715   7.270  17.712  0.00  0.00    +0.000 C 
ATOM      3  N   UNL     1       2.633   7.858  18.338  0.00  0.00    +0.000 N 
ATOM      4  H   UNL     1       2.374   7.576  19.274  0.00  0.00    +0.000 HD
ENDROOT
BRANCH   2   5
ATOM      5  C   UNL     1       4.375   6.136  18.481  0.00  0.00    +0.000 C 
BRANCH   5   6
ATOM      6  N   UNL     1       3.835   4.824  18.157  0.00  0.00    +0.000 N 
ATOM      7  C   UNL     1       4.332   3.892  17.258  0.00  0.00    +0.000 A 
ATOM      8  N   UNL     1       3.567   2.809  17.254  0.00  0.00    +0.000 NA
ATOM      9  C   UNL     1       2.618   2.998  18.218  0.00  0.00    +0.000 A 
ATOM     10  C   UNL     1       1.602   2.132  18.647  0.00  0.00    +0.000 A 
ATOM     11  C   UNL     1       0.769   2.536  19.695  0.00  0.00    +0.000 A 
ATOM     12  C   UNL     1       0.942   3.781  20.298  0.00  0.00    +0.000 A 
ATOM     13  C   UNL     1       1.939   4.667  19.868  0.00  0.00    +0.000 A 
ATOM     14  C   UNL     1       2.767   4.241  18.819  0.00  0.00    +0.000 A 
BRANCH   7  15
ATOM     15  C   UNL     1       5.565   4.063  16.424  0.00  0.00    +0.000 C 
ATOM     16  F   UNL     1       5.485   5.111  15.557  0.00  0.00    +0.000 F 
ATOM     17  F   UNL     1       6.672   4.280  17.176  0.00  0.00    +0.000 F 
ATOM     18  F   UNL     1       5.813   2.976  15.647  0.00  0.00    +0.000 F 
ENDBRANCH   7  15
ENDBRANCH   5   6
ENDBRANCH   2   5
BRANCH   3  19
ATOM     19  C   UNL     1       1.805   8.871  17.702  0.00  0.00    +0.000 C 
BRANCH  19  20
ATOM     20  C   UNL     1       0.872   9.502  18.708  0.00  0.00    +0.000 A 
ATOM     21  C   UNL     1      -0.201  10.304  18.293  0.00  0.00    +0.000 A 
ATOM     22  C   UNL     1      -0.979  10.996  19.228  0.00  0.00    +0.000 A 
ATOM     23  C   UNL     1      -0.704  10.900  20.599  0.00  0.00    +0.000 A 
ATOM     24  C   UNL     1       0.320  10.042  21.014  0.00  0.00    +0.000 A 
ATOM     25  C   UNL     1       1.102   9.353  20.082  0.00  0.00    +0.000 A 
BRANCH  23  26
ATOM     26  C   UNL     1      -1.425  11.711  21.576  0.00  0.00    +0.000 A 
ATOM     27  C   UNL     1      -1.588  11.576  22.943  0.00  0.00    +0.000 A 
ATOM     28  C   UNL     1      -2.320  12.709  23.345  0.00  0.00    +0.000 A 
ATOM     29  N   UNL     1      -2.601  13.518  22.326  0.00  0.00    +0.000 NA
ATOM     30  N   UNL     1      -2.045  12.897  21.274  0.00  0.00    +0.000 N 
ATOM     31  H   UNL     1      -2.100  13.355  20.368  0.00  0.00    +0.000 HD
ENDBRANCH  23  26
ENDBRANCH  19  20
ENDBRANCH   3  19
TORSDOF 6
ENDMDL
