MODEL 1
REMARK VINA RESULT:      -8.5      0.000      0.000
REMARK  Name = 
REMARK  4 active torsions:
REMARK  status: ('A' for Active; 'I' for Inactive)
REMARK    1  A    between atoms: C_2  and  C_3
REMARK    2  A    between atoms: C_3  and  C_4
REMARK    3  A    between atoms: N_12  and  C_13
REMARK    4  A    between atoms: C_13  and  C_14
REMARK                            x       y       z     vdW  Elec       q    Type
REMARK                         _______ _______ _______ _____ _____    ______ ____
ROOT
ATOM      1  O   UNL     1       8.632   7.498  18.842  0.00  0.00    +0.000 OA
ATOM      2  C   UNL     1       7.983   8.039  17.952  0.00  0.00    +0.000 C 
ATOM      3  N   UNL     1       7.274   7.339  17.014  0.00  0.00    +0.000 N 
ATOM      4  H   UNL     1       6.814   7.825  16.248  0.00  0.00    +0.000 HD
ENDROOT
BRANCH   2   5
ATOM      5  C   UNL     1       7.888   9.548  17.793  0.00  0.00    +0.000 C 
BRANCH   5   6
ATOM      6  C   UNL     1       9.031  10.295  18.438  0.00  0.00    +0.000 A 
ATOM      7  C   UNL     1       9.100  10.418  19.836  0.00  0.00    +0.000 A 
ATOM      8  C   UNL     1      10.139  11.135  20.437  0.00  0.00    +0.000 A 
ATOM      9  C   UNL     1      11.109  11.735  19.643  0.00  0.00    +0.000 A 
ATOM     10  F   UNL     1      12.099  12.427  20.224  0.00  0.00    +0.000 F 
ATOM     11  C   UNL     1      11.050  11.623  18.261  0.00  0.00    +0.000 A 
ATOM     12  F   UNL     1      11.982  12.208  17.495  0.00  0.00    +0.000 F 
ATOM     13  C   UNL     1      10.019  10.909  17.652  0.00  0.00    +0.000 A 
ENDBRANCH   5   6
ENDBRANCH   2   5
BRANCH   3  14
ATOM     14  C   UNL     1       7.176   5.895  16.987  0.00  0.00    +0.000 C 
BRANCH  14  15
ATOM     15  C   UNL     1       5.995   5.508  17.871  0.00  0.00    +0.000 A 
ATOM     16  N   UNL     1       5.016   6.343  18.039  0.00  0.00    +0.000 NA
ATOM     17  C   UNL     1       3.951   5.958  18.863  0.00  0.00    +0.000 A 
ATOM     18  C   UNL     1       2.902   6.857  19.058  0.00  0.00    +0.000 A 
ATOM     19  C   UNL     1       1.822   6.519  19.875  0.00  0.00    +0.000 A 
ATOM     20  C   UNL     1       1.784   5.273  20.503  0.00  0.00    +0.000 A 
ATOM     21  C   UNL     1       2.827   4.363  20.314  0.00  0.00    +0.000 A 
ATOM     22  C   UNL     1       3.903   4.714  19.496  0.00  0.00    +0.000 A 
ATOM     23  C   UNL     1       5.034   3.796  19.267  0.00  0.00    +0.000 A 
ATOM     24  O   UNL     1       5.085   2.681  19.774  0.00  0.00    +0.000 OA
ATOM     25  N   UNL     1       6.033   4.270  18.453  0.00  0.00    +0.000 N 
ATOM     26  H   UNL     1       6.809   3.639  18.301  0.00  0.00    +0.000 HD
ENDBRANCH  14  15
ENDBRANCH   3  14
TORSDOF 4
ENDMDL
MODEL 2
REMARK VINA RESULT:      -8.5      1.346      1.984
REMARK  Name = 
REMARK  4 active torsions:
REMARK  status: ('A' for Active; 'I' for Inactive)
REMARK    1  A    between atoms: C_2  and  C_3
REMARK    2  A    between atoms: C_3  and  C_4
REMARK    3  A    between atoms: N_12  and  C_13
REMARK    4  A    between atoms: C_13  and  C_14
REMARK                            x       y       z     vdW  Elec       q    Type
REMARK                         _______ _______ _______ _____ _____    ______ ____
ROOT
ATOM      1  O   UNL     1       8.660   7.728  18.822  0.00  0.00    +0.000 OA
ATOM      2  C   UNL     1       8.022   8.310  17.950  0.00  0.00    +0.000 C 
ATOM      3  N   UNL     1       7.289   7.656  16.999  0.00  0.00    +0.000 N 
ATOM      4  H   UNL     1       6.839   8.174  16.248  0.00  0.00    +0.000 HD
ENDROOT
BRANCH   2   5
ATOM      5  C   UNL     1       7.970   9.825  17.830  0.00  0.00    +0.000 C 
BRANCH   5   6
ATOM      6  C   UNL     1       9.153  10.521  18.461  0.00  0.00    +0.000 A 
ATOM      7  C   UNL     1       9.243  10.643  19.858  0.00  0.00    +0.000 A 
ATOM      8  C   UNL     1      10.319  11.313  20.447  0.00  0.00    +0.000 A 
ATOM      9  C   UNL     1      11.307  11.867  19.641  0.00  0.00    +0.000 A 
ATOM     10  F   UNL     1      12.333  12.514  20.210  0.00  0.00    +0.000 F 
ATOM     11  C   UNL     1      11.228  11.755  18.260  0.00  0.00    +0.000 A 
ATOM     12  F   UNL     1      12.177  12.296  17.483  0.00  0.00    +0.000 F 
ATOM     13  C   UNL     1      10.159  11.088  17.663  0.00  0.00    +0.000 A 
ENDBRANCH   5   6
ENDBRANCH   2   5
BRANCH   3  14
ATOM     14  C   UNL     1       7.149   6.216  16.935  0.00  0.00    +0.000 C 
BRANCH  14  15
ATOM     15  C   UNL     1       5.817   5.865  17.588  0.00  0.00    +0.000 A 
ATOM     16  N   UNL     1       5.690   4.744  18.230  0.00  0.00    +0.000 NA
ATOM     17  C   UNL     1       4.450   4.450  18.813  0.00  0.00    +0.000 A 
ATOM     18  C   UNL     1       4.304   3.240  19.492  0.00  0.00    +0.000 A 
ATOM     19  C   UNL     1       3.086   2.903  20.083  0.00  0.00    +0.000 A 
ATOM     20  C   UNL     1       2.002   3.778  19.999  0.00  0.00    +0.000 A 
ATOM     21  C   UNL     1       2.136   4.993  19.324  0.00  0.00    +0.000 A 
ATOM     22  C   UNL     1       3.360   5.319  18.734  0.00  0.00    +0.000 A 
ATOM     23  C   UNL     1       3.555   6.584  18.003  0.00  0.00    +0.000 A 
ATOM     24  O   UNL     1       2.661   7.414  17.881  0.00  0.00    +0.000 OA
ATOM     25  N   UNL     1       4.802   6.774  17.461  0.00  0.00    +0.000 N 
ATOM     26  H   UNL     1       4.932   7.641  16.956  0.00  0.00    +0.000 HD
ENDBRANCH  14  15
ENDBRANCH   3  14
TORSDOF 4
ENDMDL
MODEL 3
REMARK VINA RESULT:      -8.4      6.329      8.960
REMARK  Name = 
REMARK  4 active torsions:
REMARK  status: ('A' for Active; 'I' for Inactive)
REMARK    1  A    between atoms: C_2  and  C_3
REMARK    2  A    between atoms: C_3  and  C_4
REMARK    3  A    between atoms: N_12  and  C_13
REMARK    4  A    between atoms: C_13  and  C_14
REMARK                            x       y       z     vdW  Elec       q    Type
REMARK                         _______ _______ _______ _____ _____    ______ ____
ROOT
ATOM      1  O   UNL     1       4.491   7.198  16.868  0.00  0.00    +0.000 OA
ATOM      2  C   UNL     1       3.884   6.854  17.878  0.00  0.00    +0.000 C 
ATOM      3  N   UNL     1       2.779   7.511  18.344  0.00  0.00    +0.000 N 
ATOM      4  H   UNL     1       2.352   7.239  19.227  0.00  0.00    +0.000 HD
ENDROOT
BRANCH   2   5
ATOM      5  C   UNL     1       4.288   5.655  18.722  0.00  0.00    +0.000 C 
BRANCH   5   6
ATOM      6  C   UNL     1       3.251   4.557  18.744  0.00  0.00    +0.000 A 
ATOM      7  C   UNL     1       3.059   3.740  17.618  0.00  0.00    +0.000 A 
ATOM      8  C   UNL     1       2.080   2.741  17.621  0.00  0.00    +0.000 A 
ATOM      9  C   UNL     1       1.288   2.560  18.748  0.00  0.00    +0.000 A 
ATOM     10  F   UNL     1       0.347   1.606  18.744  0.00  0.00    +0.000 F 
ATOM     11  C   UNL     1       1.467   3.362  19.867  0.00  0.00    +0.000 A 
ATOM     12  F   UNL     1       0.698   3.192  20.950  0.00  0.00    +0.000 F 
ATOM     13  C   UNL     1       2.441   4.360  19.873  0.00  0.00    +0.000 A 
ENDBRANCH   5   6
ENDBRANCH   2   5
BRANCH   3  14
ATOM     14  C   UNL     1       2.179   8.653  17.686  0.00  0.00    +0.000 C 
BRANCH  14  15
ATOM     15  C   UNL     1       1.338   9.382  18.729  0.00  0.00    +0.000 A 
ATOM     16  N   UNL     1       1.309   8.946  19.951  0.00  0.00    +0.000 NA
ATOM     17  C   UNL     1       0.521   9.635  20.881  0.00  0.00    +0.000 A 
ATOM     18  C   UNL     1       0.474   9.163  22.193  0.00  0.00    +0.000 A 
ATOM     19  C   UNL     1      -0.302   9.814  23.153  0.00  0.00    +0.000 A 
ATOM     20  C   UNL     1      -1.038  10.948  22.805  0.00  0.00    +0.000 A 
ATOM     21  C   UNL     1      -0.998  11.432  21.496  0.00  0.00    +0.000 A 
ATOM     22  C   UNL     1      -0.220  10.770  20.543  0.00  0.00    +0.000 A 
ATOM     23  C   UNL     1      -0.146  11.233  19.145  0.00  0.00    +0.000 A 
ATOM     24  O   UNL     1      -0.755  12.221  18.750  0.00  0.00    +0.000 OA
ATOM     25  N   UNL     1       0.645  10.484  18.309  0.00  0.00    +0.000 N 
ATOM     26  H   UNL     1       0.689  10.801  17.350  0.00  0.00    +0.000 HD
ENDBRANCH  14  15
ENDBRANCH   3  14
TORSDOF 4
ENDMDL
MODEL 4
REMARK VINA RESULT:      -8.4      5.228      6.801
REMARK  Name = 
REMARK  4 active torsions:
REMARK  status: ('A' for Active; 'I' for Inactive)
REMARK    1  A    between atoms: C_2  and  C_3
REMARK    2  A    between atoms: C_3  and  C_4
REMARK    3  A    between atoms: N_12  and  C_13
REMARK    4  A    between atoms: C_13  and  C_14
REMARK                            x       y       z     vdW  Elec       q    Type
REMARK                         _______ _______ _______ _____ _____    ______ ____
ROOT
ATOM      1  O   UNL     1       7.978   4.210  17.228  0.00  0.00    +0.000 OA
ATOM      2  C   UNL     1       7.324   5.205  16.934  0.00  0.00    +0.000 C 
ATOM      3  N   UNL     1       6.479   5.829  17.810  0.00  0.00    +0.000 N 
ATOM      4  H   UNL     1       5.898   6.605  17.502  0.00  0.00    +0.000 HD
ENDROOT
BRANCH   2   5
ATOM      5  C   UNL     1       7.382   5.862  15.564  0.00  0.00    +0.000 C 
BRANCH   5   6
ATOM      6  C   UNL     1       6.794   5.013  14.463  0.00  0.00    +0.000 A 
ATOM      7  C   UNL     1       5.530   4.421  14.621  0.00  0.00    +0.000 A 
ATOM      8  C   UNL     1       4.993   3.607  13.618  0.00  0.00    +0.000 A 
ATOM      9  C   UNL     1       5.720   3.381  12.456  0.00  0.00    +0.000 A 
ATOM     10  F   UNL     1       5.205   2.595  11.500  0.00  0.00    +0.000 F 
ATOM     11  C   UNL     1       6.972   3.959  12.288  0.00  0.00    +0.000 A 
ATOM     12  F   UNL     1       7.676   3.734  11.171  0.00  0.00    +0.000 F 
ATOM     13  C   UNL     1       7.514   4.772  13.283  0.00  0.00    +0.000 A 
ENDBRANCH   5   6
ENDBRANCH   2   5
BRANCH   3  14
ATOM     14  C   UNL     1       6.290   5.415  19.185  0.00  0.00    +0.000 C 
BRANCH  14  15
ATOM     15  C   UNL     1       4.852   4.925  19.313  0.00  0.00    +0.000 A 
ATOM     16  N   UNL     1       4.538   3.735  18.901  0.00  0.00    +0.000 NA
ATOM     17  C   UNL     1       3.207   3.319  19.027  0.00  0.00    +0.000 A 
ATOM     18  C   UNL     1       2.861   2.046  18.573  0.00  0.00    +0.000 A 
ATOM     19  C   UNL     1       1.545   1.592  18.673  0.00  0.00    +0.000 A 
ATOM     20  C   UNL     1       0.563   2.411  19.232  0.00  0.00    +0.000 A 
ATOM     21  C   UNL     1       0.897   3.686  19.692  0.00  0.00    +0.000 A 
ATOM     22  C   UNL     1       2.216   4.131  19.584  0.00  0.00    +0.000 A 
ATOM     23  C   UNL     1       2.623   5.471  20.047  0.00  0.00    +0.000 A 
ATOM     24  O   UNL     1       1.830   6.257  20.553  0.00  0.00    +0.000 OA
ATOM     25  N   UNL     1       3.947   5.787  19.870  0.00  0.00    +0.000 N 
ATOM     26  H   UNL     1       4.222   6.709  20.184  0.00  0.00    +0.000 HD
ENDBRANCH  14  15
ENDBRANCH   3  14
TORSDOF 4
ENDMDL
MODEL 5
REMARK VINA RESULT:      -8.2      6.328      8.467
REMARK  Name = 
REMARK  4 active torsions:
REMARK  status: ('A' for Active; 'I' for Inactive)
REMARK    1  A    between atoms: C_2  and  C_3
REMARK    2  A    between atoms: C_3  and  C_4
REMARK    3  A    between atoms: N_12  and  C_13
REMARK    4  A    between atoms: C_13  and  C_14
REMARK                            x       y       z     vdW  Elec       q    Type
REMARK                         _______ _______ _______ _____ _____    ______ ____
ROOT
ATOM      1  O   UNL     1       2.148  10.594  17.716  0.00  0.00    +0.000 OA
ATOM      2  C   UNL     1       1.606   9.725  18.391  0.00  0.00    +0.000 C 
ATOM      3  N   UNL     1       2.024   8.423  18.406  0.00  0.00    +0.000 N 
ATOM      4  H   UNL     1       1.498   7.718  18.920  0.00  0.00    +0.000 HD
ENDROOT
BRANCH   2   5
ATOM      5  C   UNL     1       0.411   9.996  19.291  0.00  0.00    +0.000 C 
BRANCH   5   6
ATOM      6  C   UNL     1      -0.836  10.391  18.536  0.00  0.00    +0.000 A 
ATOM      7  C   UNL     1      -1.663  11.418  19.020  0.00  0.00    +0.000 A 
ATOM      8  C   UNL     1      -2.835  11.767  18.342  0.00  0.00    +0.000 A 
ATOM      9  C   UNL     1      -3.185  11.089  17.180  0.00  0.00    +0.000 A 
ATOM     10  F   UNL     1      -4.312  11.423  16.537  0.00  0.00    +0.000 F 
ATOM     11  C   UNL     1      -2.376  10.071  16.693  0.00  0.00    +0.000 A 
ATOM     12  F   UNL     1      -2.717   9.413  15.577  0.00  0.00    +0.000 F 
ATOM     13  C   UNL     1      -1.205   9.716  17.362  0.00  0.00    +0.000 A 
ENDBRANCH   5   6
ENDBRANCH   2   5
BRANCH   3  14
ATOM     14  C   UNL     1       3.168   7.932  17.666  0.00  0.00    +0.000 C 
BRANCH  14  15
ATOM     15  C   UNL     1       3.324   6.454  18.009  0.00  0.00    +0.000 A 
ATOM     16  N   UNL     1       2.281   5.682  18.022  0.00  0.00    +0.000 NA
ATOM     17  C   UNL     1       2.460   4.332  18.348  0.00  0.00    +0.000 A 
ATOM     18  C   UNL     1       1.340   3.500  18.376  0.00  0.00    +0.000 A 
ATOM     19  C   UNL     1       1.470   2.149  18.702  0.00  0.00    +0.000 A 
ATOM     20  C   UNL     1       2.726   1.619  19.000  0.00  0.00    +0.000 A 
ATOM     21  C   UNL     1       3.855   2.440  18.972  0.00  0.00    +0.000 A 
ATOM     22  C   UNL     1       3.712   3.791  18.648  0.00  0.00    +0.000 A 
ATOM     23  C   UNL     1       4.869   4.706  18.611  0.00  0.00    +0.000 A 
ATOM     24  O   UNL     1       6.009   4.328  18.855  0.00  0.00    +0.000 OA
ATOM     25  N   UNL     1       4.588   6.011  18.291  0.00  0.00    +0.000 N 
ATOM     26  H   UNL     1       5.382   6.637  18.271  0.00  0.00    +0.000 HD
ENDBRANCH  14  15
ENDBRANCH   3  14
TORSDOF 4
ENDMDL
MODEL 6
REMARK VINA RESULT:      -8.2      3.710      5.894
REMARK  Name = 
REMARK  4 active torsions:
REMARK  status: ('A' for Active; 'I' for Inactive)
REMARK    1  A    between atoms: C_2  and  C_3
REMARK    2  A    between atoms: C_3  and  C_4
REMARK    3  A    between atoms: N_12  and  C_13
REMARK    4  A    between atoms: C_13  and  C_14
REMARK                            x       y       z     vdW  Elec       q    Type
REMARK                         _______ _______ _______ _____ _____    ______ ____
ROOT
ATOM      1  O   UNL     1       2.643   3.317  17.370  0.00  0.00    +0.000 OA
ATOM      2  C   UNL     1       3.575   4.075  17.622  0.00  0.00    +0.000 C 
ATOM      3  N   UNL     1       3.567   4.942  18.680  0.00  0.00    +0.000 N 
ATOM      4  H   UNL     1       4.326   5.606  18.808  0.00  0.00    +0.000 HD
ENDROOT
BRANCH   2   5
ATOM      5  C   UNL     1       4.847   4.132  16.791  0.00  0.00    +0.000 C 
BRANCH   5   6
ATOM      6  C   UNL     1       5.860   5.126  17.309  0.00  0.00    +0.000 A 
ATOM      7  C   UNL     1       5.917   6.424  16.777  0.00  0.00    +0.000 A 
ATOM      8  C   UNL     1       6.873   7.339  17.229  0.00  0.00    +0.000 A 
ATOM      9  C   UNL     1       7.778   6.956  18.213  0.00  0.00    +0.000 A 
ATOM     10  F   UNL     1       8.696   7.834  18.639  0.00  0.00    +0.000 F 
ATOM     11  C   UNL     1       7.733   5.675  18.745  0.00  0.00    +0.000 A 
ATOM     12  F   UNL     1       8.610   5.304  19.688  0.00  0.00    +0.000 F 
ATOM     13  C   UNL     1       6.783   4.757  18.300  0.00  0.00    +0.000 A 
ENDBRANCH   5   6
ENDBRANCH   2   5
BRANCH   3  14
ATOM     14  C   UNL     1       2.485   5.037  19.638  0.00  0.00    +0.000 C 
BRANCH  14  15
ATOM     15  C   UNL     1       2.057   6.501  19.688  0.00  0.00    +0.000 A 
ATOM     16  N   UNL     1       1.542   6.984  20.776  0.00  0.00    +0.000 NA
ATOM     17  C   UNL     1       1.154   8.330  20.785  0.00  0.00    +0.000 A 
ATOM     18  C   UNL     1       0.586   8.852  21.948  0.00  0.00    +0.000 A 
ATOM     19  C   UNL     1       0.179  10.186  22.000  0.00  0.00    +0.000 A 
ATOM     20  C   UNL     1       0.340  11.010  20.885  0.00  0.00    +0.000 A 
ATOM     21  C   UNL     1       0.909  10.501  19.716  0.00  0.00    +0.000 A 
ATOM     22  C   UNL     1       1.310   9.163  19.675  0.00  0.00    +0.000 A 
ATOM     23  C   UNL     1       1.909   8.571  18.465  0.00  0.00    +0.000 A 
ATOM     24  O   UNL     1       2.092   9.220  17.441  0.00  0.00    +0.000 OA
ATOM     25  N   UNL     1       2.247   7.243  18.554  0.00  0.00    +0.000 N 
ATOM     26  H   UNL     1       2.653   6.839  17.721  0.00  0.00    +0.000 HD
ENDBRANCH  14  15
ENDBRANCH   3  14
TORSDOF 4
ENDMDL
MODEL 7
REMARK VINA RESULT:      -8.1      5.359      7.098
REMARK  Name = 
REMARK  4 active torsions:
REMARK  status: ('A' for Active; 'I' for Inactive)
REMARK    1  A    between atoms: C_2  and  C_3
REMARK    2  A    between atoms: C_3  and  C_4
REMARK    3  A    between atoms: N_12  and  C_13
REMARK    4  A    between atoms: C_13  and  C_14
REMARK                            x       y       z     vdW  Elec       q    Type
REMARK                         _______ _______ _______ _____ _____    ______ ____
ROOT
ATOM      1  O   UNL     1       7.661   4.147  16.359  0.00  0.00    +0.000 OA
ATOM      2  C   UNL     1       7.218   5.214  15.944  0.00  0.00    +0.000 C 
ATOM      3  N   UNL     1       6.642   6.150  16.758  0.00  0.00    +0.000 N 
ATOM      4  H   UNL     1       6.219   6.987  16.362  0.00  0.00    +0.000 HD
ENDROOT
BRANCH   2   5
ATOM      5  C   UNL     1       7.265   5.619  14.479  0.00  0.00    +0.000 C 
BRANCH   5   6
ATOM      6  C   UNL     1       6.680   4.584  13.548  0.00  0.00    +0.000 A 
ATOM      7  C   UNL     1       5.319   4.245  13.628  0.00  0.00    +0.000 A 
ATOM      8  C   UNL     1       4.778   3.265  12.790  0.00  0.00    +0.000 A 
ATOM      9  C   UNL     1       5.597   2.618  11.872  0.00  0.00    +0.000 A 
ATOM     10  F   UNL     1       5.076   1.675  11.076  0.00  0.00    +0.000 F 
ATOM     11  C   UNL     1       6.944   2.943  11.785  0.00  0.00    +0.000 A 
ATOM     12  F   UNL     1       7.735   2.313  10.905  0.00  0.00    +0.000 F 
ATOM     13  C   UNL     1       7.492   3.919  12.616  0.00  0.00    +0.000 A 
ENDBRANCH   5   6
ENDBRANCH   2   5
BRANCH   3  14
ATOM     14  C   UNL     1       6.524   6.009  18.194  0.00  0.00    +0.000 C 
BRANCH  14  15
ATOM     15  C   UNL     1       5.395   5.019  18.457  0.00  0.00    +0.000 A 
ATOM     16  N   UNL     1       4.209   5.255  17.986  0.00  0.00    +0.000 NA
ATOM     17  C   UNL     1       3.194   4.327  18.252  0.00  0.00    +0.000 A 
ATOM     18  C   UNL     1       1.913   4.583  17.760  0.00  0.00    +0.000 A 
ATOM     19  C   UNL     1       0.869   3.690  18.005  0.00  0.00    +0.000 A 
ATOM     20  C   UNL     1       1.101   2.530  18.746  0.00  0.00    +0.000 A 
ATOM     21  C   UNL     1       2.378   2.261  19.242  0.00  0.00    +0.000 A 
ATOM     22  C   UNL     1       3.414   3.164  18.993  0.00  0.00    +0.000 A 
ATOM     23  C   UNL     1       4.780   2.935  19.499  0.00  0.00    +0.000 A 
ATOM     24  O   UNL     1       5.077   1.943  20.155  0.00  0.00    +0.000 OA
ATOM     25  N   UNL     1       5.701   3.906  19.193  0.00  0.00    +0.000 N 
ATOM     26  H   UNL     1       6.636   3.749  19.545  0.00  0.00    +0.000 HD
ENDBRANCH  14  15
ENDBRANCH   3  14
TORSDOF 4
ENDMDL
MODEL 8
REMARK VINA RESULT:      -8.1      6.428      8.637
REMARK  Name = 
REMARK  4 active torsions:
REMARK  status: ('A' for Active; 'I' for Inactive)
REMARK    1  A    between atoms: C_2  and  C_3
REMARK    2  A    between atoms: C_3  and  C_4
REMARK    3  A    between atoms: N_12  and  C_13
REMARK    4  A    between atoms: C_13  and  C_14
REMARK                            x       y       z     vdW  Elec       q    Type
REMARK                         _______ _______ _______ _____ _____    ______ ____
ROOT
ATOM      1  O   UNL     1       1.849  10.622  17.478  0.00  0.00    +0.000 OA
ATOM      2  C   UNL     1       1.325   9.874  18.298  0.00  0.00    +0.000 C 
ATOM      3  N   UNL     1       1.754   8.595  18.523  0.00  0.00    +0.000 N 
ATOM      4  H   UNL     1       1.243   7.984  19.156  0.00  0.00    +0.000 HD
ENDROOT
BRANCH   2   5
ATOM      5  C   UNL     1       0.143  10.286  19.162  0.00  0.00    +0.000 C 
BRANCH   5   6
ATOM      6  C   UNL     1      -1.129  10.504  18.377  0.00  0.00    +0.000 A 
ATOM      7  C   UNL     1      -2.106  11.400  18.843  0.00  0.00    +0.000 A 
ATOM      8  C   UNL     1      -3.299  11.584  18.138  0.00  0.00    +0.000 A 
ATOM      9  C   UNL     1      -3.521  10.870  16.967  0.00  0.00    +0.000 A 
ATOM     10  F   UNL     1      -4.669  11.044  16.297  0.00  0.00    +0.000 F 
ATOM     11  C   UNL     1      -2.564   9.981  16.496  0.00  0.00    +0.000 A 
ATOM     12  F   UNL     1      -2.782   9.287  15.371  0.00  0.00    +0.000 F 
ATOM     13  C   UNL     1      -1.371   9.791  17.193  0.00  0.00    +0.000 A 
ENDBRANCH   5   6
ENDBRANCH   2   5
BRANCH   3  14
ATOM     14  C   UNL     1       2.890   7.994  17.855  0.00  0.00    +0.000 C 
BRANCH  14  15
ATOM     15  C   UNL     1       3.102   6.619  18.481  0.00  0.00    +0.000 A 
ATOM     16  N   UNL     1       2.267   6.182  19.373  0.00  0.00    +0.000 NA
ATOM     17  C   UNL     1       2.496   4.918  19.931  0.00  0.00    +0.000 A 
ATOM     18  C   UNL     1       1.609   4.448  20.900  0.00  0.00    +0.000 A 
ATOM     19  C   UNL     1       1.801   3.197  21.489  0.00  0.00    +0.000 A 
ATOM     20  C   UNL     1       2.885   2.404  21.108  0.00  0.00    +0.000 A 
ATOM     21  C   UNL     1       3.779   2.862  20.138  0.00  0.00    +0.000 A 
ATOM     22  C   UNL     1       3.578   4.117  19.558  0.00  0.00    +0.000 A 
ATOM     23  C   UNL     1       4.494   4.654  18.535  0.00  0.00    +0.000 A 
ATOM     24  O   UNL     1       5.470   4.027  18.137  0.00  0.00    +0.000 OA
ATOM     25  N   UNL     1       4.189   5.904  18.057  0.00  0.00    +0.000 N 
ATOM     26  H   UNL     1       4.822   6.271  17.358  0.00  0.00    +0.000 HD
ENDBRANCH  14  15
ENDBRANCH   3  14
TORSDOF 4
ENDMDL
MODEL 9
REMARK VINA RESULT:      -8.0      6.099      8.528
REMARK  Name = 
REMARK  4 active torsions:
REMARK  status: ('A' for Active; 'I' for Inactive)
REMARK    1  A    between atoms: C_2  and  C_3
REMARK    2  A    between atoms: C_3  and  C_4
REMARK    3  A    between atoms: N_12  and  C_13
REMARK    4  A    between atoms: C_13  and  C_14
REMARK                            x       y       z     vdW  Elec       q    Type
REMARK                         _______ _______ _______ _____ _____    ______ ____
ROOT
ATOM      1  O   UNL     1       1.161   8.823  20.676  0.00  0.00    +0.000 OA
ATOM      2  C   UNL     1       1.501   8.902  19.499  0.00  0.00    +0.000 C 
ATOM      3  N   UNL     1       2.118   7.881  18.830  0.00  0.00    +0.000 N 
ATOM      4  H   UNL     1       2.452   8.016  17.878  0.00  0.00    +0.000 HD
ENDROOT
BRANCH   2   5
ATOM      5  C   UNL     1       1.270  10.142  18.649  0.00  0.00    +0.000 C 
BRANCH   5   6
ATOM      6  C   UNL     1      -0.185  10.528  18.529  0.00  0.00    +0.000 A 
ATOM      7  C   UNL     1      -0.701  11.596  19.283  0.00  0.00    +0.000 A 
ATOM      8  C   UNL     1      -2.054  11.938  19.200  0.00  0.00    +0.000 A 
ATOM      9  C   UNL     1      -2.896  11.212  18.367  0.00  0.00    +0.000 A 
ATOM     10  F   UNL     1      -4.194  11.540  18.296  0.00  0.00    +0.000 F 
ATOM     11  C   UNL     1      -2.400  10.154  17.619  0.00  0.00    +0.000 A 
ATOM     12  F   UNL     1      -3.214   9.449  16.822  0.00  0.00    +0.000 F 
ATOM     13  C   UNL     1      -1.051   9.805  17.694  0.00  0.00    +0.000 A 
ENDBRANCH   5   6
ENDBRANCH   2   5
BRANCH   3  14
ATOM     14  C   UNL     1       2.404   6.588  19.415  0.00  0.00    +0.000 C 
BRANCH  14  15
ATOM     15  C   UNL     1       3.689   6.078  18.770  0.00  0.00    +0.000 A 
ATOM     16  N   UNL     1       3.763   5.972  17.479  0.00  0.00    +0.000 NA
ATOM     17  C   UNL     1       4.956   5.494  16.921  0.00  0.00    +0.000 A 
ATOM     18  C   UNL     1       5.037   5.364  15.534  0.00  0.00    +0.000 A 
ATOM     19  C   UNL     1       6.203   4.887  14.934  0.00  0.00    +0.000 A 
ATOM     20  C   UNL     1       7.301   4.536  15.721  0.00  0.00    +0.000 A 
ATOM     21  C   UNL     1       7.233   4.663  17.110  0.00  0.00    +0.000 A 
ATOM     22  C   UNL     1       6.060   5.139  17.700  0.00  0.00    +0.000 A 
ATOM     23  C   UNL     1       5.931   5.286  19.161  0.00  0.00    +0.000 A 
ATOM     24  O   UNL     1       6.844   5.006  19.930  0.00  0.00    +0.000 OA
ATOM     25  N   UNL     1       4.720   5.753  19.610  0.00  0.00    +0.000 N 
ATOM     26  H   UNL     1       4.633   5.848  20.613  0.00  0.00    +0.000 HD
ENDBRANCH  14  15
ENDBRANCH   3  14
TORSDOF 4
ENDMDL
