MODEL 1
REMARK VINA RESULT:      -8.6      0.000      0.000
REMARK  Name = 
REMARK  8 active torsions:
REMARK  status: ('A' for Active; 'I' for Inactive)
REMARK    1  A    between atoms: C_1  and  C_2
REMARK    2  A    between atoms: C_2  and  C_3
REMARK    3  A    between atoms: C_2  and  C_22
REMARK    4  A    between atoms: C_7  and  N_8
REMARK    5  A    between atoms: C_9  and  C_11
REMARK    6  A    between atoms: C_15  and  C_16
REMARK    7  A    between atoms: C_16  and  N_17
REMARK    8  A    between atoms: N_26  and  C_27
REMARK                            x       y       z     vdW  Elec       q    Type
REMARK                         _______ _______ _______ _____ _____    ______ ____
ROOT
ATOM      1  N   UNL     1       1.891   7.400  18.807  0.00  0.00    +0.000 N 
ATOM      2  C   UNL     1       1.798   8.693  18.309  0.00  0.00    +0.000 C 
ATOM      3  O   UNL     1       2.277   9.115  17.261  0.00  0.00    +0.000 OA
ATOM      4  H   UNL     1       1.449   7.250  19.709  0.00  0.00    +0.000 HD
ENDROOT
BRANCH   1   9
ATOM      5  C   UNL     1       4.457   5.262  17.146  0.00  0.00    +0.000 A 
ATOM      6  C   UNL     1       3.742   4.064  16.998  0.00  0.00    +0.000 A 
ATOM      7  C   UNL     1       2.415   3.977  17.403  0.00  0.00    +0.000 A 
ATOM      8  C   UNL     1       1.786   5.078  17.980  0.00  0.00    +0.000 A 
ATOM      9  C   UNL     1       2.469   6.282  18.162  0.00  0.00    +0.000 A 
ATOM     10  C   UNL     1       3.801   6.373  17.720  0.00  0.00    +0.000 A 
BRANCH   5  12
ATOM     11  C   UNL     1       6.298   4.073  15.879  0.00  0.00    +0.000 C 
ATOM     12  C   UNL     1       5.917   5.302  16.712  0.00  0.00    +0.000 C 
BRANCH  12  13
ATOM     13  C   UNL     1       6.868   5.504  17.857  0.00  0.00    +0.000 A 
ATOM     14  N   UNL     1       7.237   4.599  18.746  0.00  0.00    +0.000 NA
ATOM     15  N   UNL     1       8.180   5.160  19.571  0.00  0.00    +0.000 NA
ATOM     16  C   UNL     1       8.364   6.398  19.181  0.00  0.00    +0.000 A 
ATOM     17  N   UNL     1       7.554   6.665  18.121  0.00  0.00    +0.000 N 
ATOM     18  C   UNL     1       7.463   7.924  17.433  0.00  0.00    +0.000 C 
ENDBRANCH  12  13
ENDBRANCH   5  12
ENDBRANCH   1   9
BRANCH   2  19
ATOM     19  C   UNL     1       1.010   9.639  19.164  0.00  0.00    +0.000 A 
ATOM     20  C   UNL     1       0.606  10.864  18.634  0.00  0.00    +0.000 A 
ATOM     21  C   UNL     1      -0.149  11.716  19.428  0.00  0.00    +0.000 A 
ATOM     22  C   UNL     1      -0.480  11.324  20.721  0.00  0.00    +0.000 A 
ATOM     23  C   UNL     1      -0.044  10.082  21.191  0.00  0.00    +0.000 A 
ATOM     24  N   UNL     1       0.704   9.225  20.424  0.00  0.00    +0.000 NA
BRANCH  23  25
ATOM     25  C   UNL     1      -0.434   9.665  22.613  0.00  0.00    +0.000 C 
ATOM     26  F   UNL     1      -1.367  10.496  23.150  0.00  0.00    +0.000 F 
ATOM     27  F   UNL     1      -0.977   8.419  22.643  0.00  0.00    +0.000 F 
BRANCH  25  28
ATOM     28  N   UNL     1       0.697   9.654  23.524  0.00  0.00    +0.000 NA
ATOM     29  H   UNL     1       0.849  10.626  23.776  0.00  0.00    +0.000 HD
ATOM     30  H   UNL     1       1.496   9.393  22.954  0.00  0.00    +0.000 HD
ENDBRANCH  25  28
ENDBRANCH  23  25
ENDBRANCH   2  19
TORSDOF 6
ENDMDL
MODEL 2
REMARK VINA RESULT:      -8.5      6.370      9.840
REMARK  Name = 
REMARK  8 active torsions:
REMARK  status: ('A' for Active; 'I' for Inactive)
REMARK    1  A    between atoms: C_1  and  C_2
REMARK    2  A    between atoms: C_2  and  C_3
REMARK    3  A    between atoms: C_2  and  C_22
REMARK    4  A    between atoms: C_7  and  N_8
REMARK    5  A    between atoms: C_9  and  C_11
REMARK    6  A    between atoms: C_15  and  C_16
REMARK    7  A    between atoms: C_16  and  N_17
REMARK    8  A    between atoms: N_26  and  C_27
REMARK                            x       y       z     vdW  Elec       q    Type
REMARK                         _______ _______ _______ _____ _____    ______ ____
ROOT
ATOM      1  N   UNL     1       8.885   9.014  18.965  0.00  0.00    +0.000 N 
ATOM      2  C   UNL     1       7.969   8.688  17.973  0.00  0.00    +0.000 C 
ATOM      3  O   UNL     1       7.345   9.470  17.262  0.00  0.00    +0.000 OA
ATOM      4  H   UNL     1       9.279   8.223  19.467  0.00  0.00    +0.000 HD
ENDROOT
BRANCH   1   9
ATOM      5  C   UNL     1      10.050  12.528  18.512  0.00  0.00    +0.000 A 
ATOM      6  C   UNL     1      10.180  12.933  19.849  0.00  0.00    +0.000 A 
ATOM      7  C   UNL     1       9.928  12.044  20.886  0.00  0.00    +0.000 A 
ATOM      8  C   UNL     1       9.522  10.740  20.607  0.00  0.00    +0.000 A 
ATOM      9  C   UNL     1       9.362  10.304  19.291  0.00  0.00    +0.000 A 
ATOM     10  C   UNL     1       9.651  11.199  18.246  0.00  0.00    +0.000 A 
BRANCH   5  12
ATOM     11  C   UNL     1      11.696  13.357  16.777  0.00  0.00    +0.000 C 
ATOM     12  C   UNL     1      10.312  13.545  17.408  0.00  0.00    +0.000 C 
BRANCH  12  13
ATOM     13  C   UNL     1      10.098  14.964  17.850  0.00  0.00    +0.000 A 
ATOM     14  N   UNL     1      11.034  15.851  18.136  0.00  0.00    +0.000 NA
ATOM     15  N   UNL     1      10.427  17.050  18.415  0.00  0.00    +0.000 NA
ATOM     16  C   UNL     1       9.132  16.875  18.305  0.00  0.00    +0.000 A 
ATOM     17  N   UNL     1       8.876  15.581  17.968  0.00  0.00    +0.000 N 
ATOM     18  C   UNL     1       7.571  15.009  17.775  0.00  0.00    +0.000 C 
ENDBRANCH  12  13
ENDBRANCH   5  12
ENDBRANCH   1   9
BRANCH   2  19
ATOM     19  C   UNL     1       7.758   7.218  17.771  0.00  0.00    +0.000 A 
ATOM     20  C   UNL     1       7.950   6.347  18.844  0.00  0.00    +0.000 A 
ATOM     21  C   UNL     1       7.722   4.993  18.649  0.00  0.00    +0.000 A 
ATOM     22  C   UNL     1       7.311   4.545  17.398  0.00  0.00    +0.000 A 
ATOM     23  C   UNL     1       7.135   5.472  16.365  0.00  0.00    +0.000 A 
ATOM     24  N   UNL     1       7.357   6.815  16.534  0.00  0.00    +0.000 NA
BRANCH  23  25
ATOM     25  C   UNL     1       6.666   4.958  15.000  0.00  0.00    +0.000 C 
ATOM     26  F   UNL     1       6.533   3.605  14.983  0.00  0.00    +0.000 F 
ATOM     27  F   UNL     1       5.450   5.461  14.662  0.00  0.00    +0.000 F 
BRANCH  25  28
ATOM     28  N   UNL     1       7.580   5.307  13.925  0.00  0.00    +0.000 NA
ATOM     29  H   UNL     1       8.028   6.168  14.223  0.00  0.00    +0.000 HD
ATOM     30  H   UNL     1       6.985   5.566  13.143  0.00  0.00    +0.000 HD
ENDBRANCH  25  28
ENDBRANCH  23  25
ENDBRANCH   2  19
TORSDOF 6
ENDMDL
MODEL 3
REMARK VINA RESULT:      -8.3      2.321      3.699
REMARK  Name = 
REMARK  8 active torsions:
REMARK  status: ('A' for Active; 'I' for Inactive)
REMARK    1  A    between atoms: C_1  and  C_2
REMARK    2  A    between atoms: C_2  and  C_3
REMARK    3  A    between atoms: C_2  and  C_22
REMARK    4  A    between atoms: C_7  and  N_8
REMARK    5  A    between atoms: C_9  and  C_11
REMARK    6  A    between atoms: C_15  and  C_16
REMARK    7  A    between atoms: C_16  and  N_17
REMARK    8  A    between atoms: N_26  and  C_27
REMARK                            x       y       z     vdW  Elec       q    Type
REMARK                         _______ _______ _______ _____ _____    ______ ____
ROOT
ATOM      1  N   UNL     1       2.535   7.571  18.872  0.00  0.00    +0.000 N 
ATOM      2  C   UNL     1       2.055   8.705  18.228  0.00  0.00    +0.000 C 
ATOM      3  O   UNL     1       2.311   9.064  17.083  0.00  0.00    +0.000 OA
ATOM      4  H   UNL     1       2.229   7.458  19.834  0.00  0.00    +0.000 HD
ENDROOT
BRANCH   1   9
ATOM      5  C   UNL     1       3.998   4.186  18.315  0.00  0.00    +0.000 A 
ATOM      6  C   UNL     1       4.778   4.424  17.172  0.00  0.00    +0.000 A 
ATOM      7  C   UNL     1       4.853   5.696  16.619  0.00  0.00    +0.000 A 
ATOM      8  C   UNL     1       4.135   6.749  17.185  0.00  0.00    +0.000 A 
ATOM      9  C   UNL     1       3.333   6.548  18.309  0.00  0.00    +0.000 A 
ATOM     10  C   UNL     1       3.288   5.266  18.884  0.00  0.00    +0.000 A 
BRANCH   5  12
ATOM     11  C   UNL     1       3.519   1.756  17.795  0.00  0.00    +0.000 C 
ATOM     12  C   UNL     1       3.926   2.769  18.871  0.00  0.00    +0.000 C 
BRANCH  12  13
ATOM     13  C   UNL     1       3.054   2.656  20.088  0.00  0.00    +0.000 A 
ATOM     14  N   UNL     1       3.456   2.604  21.345  0.00  0.00    +0.000 NA
ATOM     15  N   UNL     1       2.349   2.589  22.157  0.00  0.00    +0.000 NA
ATOM     16  C   UNL     1       1.289   2.621  21.383  0.00  0.00    +0.000 A 
ATOM     17  N   UNL     1       1.680   2.648  20.080  0.00  0.00    +0.000 N 
ATOM     18  C   UNL     1       0.800   2.670  18.943  0.00  0.00    +0.000 C 
ENDBRANCH  12  13
ENDBRANCH   5  12
ENDBRANCH   1   9
BRANCH   2  19
ATOM     19  C   UNL     1       1.119   9.543  19.047  0.00  0.00    +0.000 A 
ATOM     20  C   UNL     1       0.410  10.574  18.431  0.00  0.00    +0.000 A 
ATOM     21  C   UNL     1      -0.474  11.321  19.196  0.00  0.00    +0.000 A 
ATOM     22  C   UNL     1      -0.628  11.020  20.545  0.00  0.00    +0.000 A 
ATOM     23  C   UNL     1       0.113   9.972  21.100  0.00  0.00    +0.000 A 
ATOM     24  N   UNL     1       0.994   9.222  20.364  0.00  0.00    +0.000 NA
BRANCH  23  25
ATOM     25  C   UNL     1      -0.085   9.650  22.585  0.00  0.00    +0.000 C 
ATOM     26  F   UNL     1      -0.947   8.616  22.772  0.00  0.00    +0.000 F 
ATOM     27  F   UNL     1       1.080   9.281  23.180  0.00  0.00    +0.000 F 
BRANCH  25  28
ATOM     28  N   UNL     1      -0.605  10.777  23.340  0.00  0.00    +0.000 NA
ATOM     29  H   UNL     1      -0.323  10.610  24.301  0.00  0.00    +0.000 HD
ATOM     30  H   UNL     1      -1.614  10.662  23.329  0.00  0.00    +0.000 HD
ENDBRANCH  25  28
ENDBRANCH  23  25
ENDBRANCH   2  19
TORSDOF 6
ENDMDL
MODEL 4
REMARK VINA RESULT:      -8.3      0.716      1.273
REMARK  Name = 
REMARK  8 active torsions:
REMARK  status: ('A' for Active; 'I' for Inactive)
REMARK    1  A    between atoms: C_1  and  C_2
REMARK    2  A    between atoms: C_2  and  C_3
REMARK    3  A    between atoms: C_2  and  C_22
REMARK    4  A    between atoms: C_7  and  N_8
REMARK    5  A    between atoms: C_9  and  C_11
REMARK    6  A    between atoms: C_15  and  C_16
REMARK    7  A    between atoms: C_16  and  N_17
REMARK    8  A    between atoms: N_26  and  C_27
REMARK                            x       y       z     vdW  Elec       q    Type
REMARK                         _______ _______ _______ _____ _____    ______ ____
ROOT
ATOM      1  N   UNL     1       2.097   7.658  18.904  0.00  0.00    +0.000 N 
ATOM      2  C   UNL     1       1.800   8.902  18.361  0.00  0.00    +0.000 C 
ATOM      3  O   UNL     1       2.098   9.306  17.242  0.00  0.00    +0.000 OA
ATOM      4  H   UNL     1       1.788   7.519  19.862  0.00  0.00    +0.000 HD
ENDROOT
BRANCH   1   9
ATOM      5  C   UNL     1       4.639   5.719  16.983  0.00  0.00    +0.000 A 
ATOM      6  C   UNL     1       4.077   4.434  17.032  0.00  0.00    +0.000 A 
ATOM      7  C   UNL     1       2.853   4.219  17.653  0.00  0.00    +0.000 A 
ATOM      8  C   UNL     1       2.179   5.280  18.255  0.00  0.00    +0.000 A 
ATOM      9  C   UNL     1       2.714   6.569  18.246  0.00  0.00    +0.000 A 
ATOM     10  C   UNL     1       3.936   6.785  17.586  0.00  0.00    +0.000 A 
BRANCH   5  12
ATOM     11  C   UNL     1       6.595   4.563  15.867  0.00  0.00    +0.000 C 
ATOM     12  C   UNL     1       5.995   5.901  16.313  0.00  0.00    +0.000 C 
BRANCH  12  13
ATOM     13  C   UNL     1       6.966   6.685  17.149  0.00  0.00    +0.000 A 
ATOM     14  N   UNL     1       7.399   7.911  16.914  0.00  0.00    +0.000 NA
ATOM     15  N   UNL     1       8.206   8.295  17.957  0.00  0.00    +0.000 NA
ATOM     16  C   UNL     1       8.262   7.295  18.804  0.00  0.00    +0.000 A 
ATOM     17  N   UNL     1       7.515   6.260  18.335  0.00  0.00    +0.000 N 
ATOM     18  C   UNL     1       7.348   4.987  18.982  0.00  0.00    +0.000 C 
ENDBRANCH  12  13
ENDBRANCH   5  12
ENDBRANCH   1   9
BRANCH   2  19
ATOM     19  C   UNL     1       1.021   9.811  19.263  0.00  0.00    +0.000 A 
ATOM     20  C   UNL     1       0.635  11.067  18.798  0.00  0.00    +0.000 A 
ATOM     21  C   UNL     1      -0.111  11.885  19.635  0.00  0.00    +0.000 A 
ATOM     22  C   UNL     1      -0.451  11.429  20.904  0.00  0.00    +0.000 A 
ATOM     23  C   UNL     1      -0.033  10.158  21.308  0.00  0.00    +0.000 A 
ATOM     24  N   UNL     1       0.707   9.334  20.499  0.00  0.00    +0.000 NA
BRANCH  23  25
ATOM     25  C   UNL     1      -0.433   9.671  22.706  0.00  0.00    +0.000 C 
ATOM     26  F   UNL     1      -1.352  10.488  23.286  0.00  0.00    +0.000 F 
ATOM     27  F   UNL     1      -0.998   8.436  22.667  0.00  0.00    +0.000 F 
BRANCH  25  28
ATOM     28  N   UNL     1       0.696   9.590  23.616  0.00  0.00    +0.000 NA
ATOM     29  H   UNL     1       0.488   8.813  24.234  0.00  0.00    +0.000 HD
ATOM     30  H   UNL     1       0.633  10.423  24.194  0.00  0.00    +0.000 HD
ENDBRANCH  25  28
ENDBRANCH  23  25
ENDBRANCH   2  19
TORSDOF 6
ENDMDL
MODEL 5
REMARK VINA RESULT:      -8.1      1.858      2.488
REMARK  Name = 
REMARK  8 active torsions:
REMARK  status: ('A' for Active; 'I' for Inactive)
REMARK    1  A    between atoms: C_1  and  C_2
REMARK    2  A    between atoms: C_2  and  C_3
REMARK    3  A    between atoms: C_2  and  C_22
REMARK    4  A    between atoms: C_7  and  N_8
REMARK    5  A    between atoms: C_9  and  C_11
REMARK    6  A    between atoms: C_15  and  C_16
REMARK    7  A    between atoms: C_16  and  N_17
REMARK    8  A    between atoms: N_26  and  C_27
REMARK                            x       y       z     vdW  Elec       q    Type
REMARK                         _______ _______ _______ _____ _____    ______ ____
ROOT
ATOM      1  N   UNL     1       1.979   7.414  18.850  0.00  0.00    +0.000 N 
ATOM      2  C   UNL     1       1.811   8.688  18.322  0.00  0.00    +0.000 C 
ATOM      3  O   UNL     1       2.191   9.086  17.225  0.00  0.00    +0.000 OA
ATOM      4  H   UNL     1       1.618   7.284  19.790  0.00  0.00    +0.000 HD
ENDROOT
BRANCH   1   9
ATOM      5  C   UNL     1       4.487   5.240  17.149  0.00  0.00    +0.000 A 
ATOM      6  C   UNL     1       3.749   4.055  17.005  0.00  0.00    +0.000 A 
ATOM      7  C   UNL     1       2.427   3.989  17.426  0.00  0.00    +0.000 A 
ATOM      8  C   UNL     1       1.824   5.098  18.015  0.00  0.00    +0.000 A 
ATOM      9  C   UNL     1       2.530   6.289  18.194  0.00  0.00    +0.000 A 
ATOM     10  C   UNL     1       3.857   6.359  17.736  0.00  0.00    +0.000 A 
BRANCH   5  12
ATOM     11  C   UNL     1       6.302   4.004  15.890  0.00  0.00    +0.000 C 
ATOM     12  C   UNL     1       5.942   5.257  16.697  0.00  0.00    +0.000 C 
BRANCH  12  13
ATOM     13  C   UNL     1       6.908   5.478  17.825  0.00  0.00    +0.000 A 
ATOM     14  N   UNL     1       7.322   4.577  18.698  0.00  0.00    +0.000 NA
ATOM     15  N   UNL     1       8.263   5.160  19.511  0.00  0.00    +0.000 NA
ATOM     16  C   UNL     1       8.401   6.407  19.129  0.00  0.00    +0.000 A 
ATOM     17  N   UNL     1       7.562   6.658  18.087  0.00  0.00    +0.000 N 
ATOM     18  C   UNL     1       7.420   7.920  17.413  0.00  0.00    +0.000 C 
ENDBRANCH  12  13
ENDBRANCH   5  12
ENDBRANCH   1   9
BRANCH   2  19
ATOM     19  C   UNL     1       1.073   9.643  19.211  0.00  0.00    +0.000 A 
ATOM     20  C   UNL     1       0.814   9.284  20.534  0.00  0.00    +0.000 A 
ATOM     21  C   UNL     1       0.156  10.190  21.352  0.00  0.00    +0.000 A 
ATOM     22  C   UNL     1      -0.222  11.424  20.834  0.00  0.00    +0.000 A 
ATOM     23  C   UNL     1       0.070  11.723  19.499  0.00  0.00    +0.000 A 
ATOM     24  N   UNL     1       0.717  10.841  18.671  0.00  0.00    +0.000 NA
BRANCH  23  25
ATOM     25  C   UNL     1      -0.343  13.095  18.954  0.00  0.00    +0.000 C 
ATOM     26  F   UNL     1      -1.190  13.743  19.796  0.00  0.00    +0.000 F 
ATOM     27  F   UNL     1       0.728  13.915  18.790  0.00  0.00    +0.000 F 
BRANCH  25  28
ATOM     28  N   UNL     1      -1.009  13.009  17.666  0.00  0.00    +0.000 NA
ATOM     29  H   UNL     1      -1.648  12.223  17.746  0.00  0.00    +0.000 HD
ATOM     30  H   UNL     1      -0.290  12.710  17.013  0.00  0.00    +0.000 HD
ENDBRANCH  25  28
ENDBRANCH  23  25
ENDBRANCH   2  19
TORSDOF 6
ENDMDL
MODEL 6
REMARK VINA RESULT:      -8.1      3.725      8.813
REMARK  Name = 
REMARK  8 active torsions:
REMARK  status: ('A' for Active; 'I' for Inactive)
REMARK    1  A    between atoms: C_1  and  C_2
REMARK    2  A    between atoms: C_2  and  C_3
REMARK    3  A    between atoms: C_2  and  C_22
REMARK    4  A    between atoms: C_7  and  N_8
REMARK    5  A    between atoms: C_9  and  C_11
REMARK    6  A    between atoms: C_15  and  C_16
REMARK    7  A    between atoms: C_16  and  N_17
REMARK    8  A    between atoms: N_26  and  C_27
REMARK                            x       y       z     vdW  Elec       q    Type
REMARK                         _______ _______ _______ _____ _____    ______ ____
ROOT
ATOM      1  N   UNL     1       2.517   7.455  19.568  0.00  0.00    +0.000 N 
ATOM      2  C   UNL     1       2.479   6.068  19.633  0.00  0.00    +0.000 C 
ATOM      3  O   UNL     1       1.659   5.381  20.234  0.00  0.00    +0.000 OA
ATOM      4  H   UNL     1       3.293   7.843  19.041  0.00  0.00    +0.000 HD
ENDROOT
BRANCH   1   9
ATOM      5  C   UNL     1       0.135  10.320  19.739  0.00  0.00    +0.000 A 
ATOM      6  C   UNL     1      -0.429  10.115  21.008  0.00  0.00    +0.000 A 
ATOM      7  C   UNL     1       0.003   9.068  21.813  0.00  0.00    +0.000 A 
ATOM      8  C   UNL     1       0.992   8.197  21.359  0.00  0.00    +0.000 A 
ATOM      9  C   UNL     1       1.563   8.356  20.095  0.00  0.00    +0.000 A 
ATOM     10  C   UNL     1       1.145   9.437  19.299  0.00  0.00    +0.000 A 
BRANCH   5  12
ATOM     11  C   UNL     1       0.171  12.818  19.333  0.00  0.00    +0.000 C 
ATOM     12  C   UNL     1      -0.389  11.465  18.881  0.00  0.00    +0.000 C 
BRANCH  12  13
ATOM     13  C   UNL     1      -1.888  11.495  18.787  0.00  0.00    +0.000 A 
ATOM     14  N   UNL     1      -2.712  12.199  19.542  0.00  0.00    +0.000 NA
ATOM     15  N   UNL     1      -3.991  12.013  19.081  0.00  0.00    +0.000 NA
ATOM     16  C   UNL     1      -3.930  11.191  18.060  0.00  0.00    +0.000 A 
ATOM     17  N   UNL     1      -2.636  10.828  17.847  0.00  0.00    +0.000 N 
ATOM     18  C   UNL     1      -2.177   9.925  16.827  0.00  0.00    +0.000 C 
ENDBRANCH  12  13
ENDBRANCH   5  12
ENDBRANCH   1   9
BRANCH   2  19
ATOM     19  C   UNL     1       3.563   5.374  18.863  0.00  0.00    +0.000 A 
ATOM     20  C   UNL     1       3.216   4.452  17.877  0.00  0.00    +0.000 A 
ATOM     21  C   UNL     1       4.230   3.840  17.153  0.00  0.00    +0.000 A 
ATOM     22  C   UNL     1       5.554   4.165  17.430  0.00  0.00    +0.000 A 
ATOM     23  C   UNL     1       5.833   5.100  18.431  0.00  0.00    +0.000 A 
ATOM     24  N   UNL     1       4.847   5.715  19.161  0.00  0.00    +0.000 NA
BRANCH  23  25
ATOM     25  C   UNL     1       7.298   5.453  18.708  0.00  0.00    +0.000 C 
ATOM     26  F   UNL     1       8.154   4.590  18.100  0.00  0.00    +0.000 F 
ATOM     27  F   UNL     1       7.616   6.690  18.242  0.00  0.00    +0.000 F 
BRANCH  25  28
ATOM     28  N   UNL     1       7.620   5.441  20.125  0.00  0.00    +0.000 NA
ATOM     29  H   UNL     1       7.254   6.315  20.491  0.00  0.00    +0.000 HD
ATOM     30  H   UNL     1       8.631   5.530  20.169  0.00  0.00    +0.000 HD
ENDBRANCH  25  28
ENDBRANCH  23  25
ENDBRANCH   2  19
TORSDOF 6
ENDMDL
MODEL 7
REMARK VINA RESULT:      -8.1      2.841      4.361
REMARK  Name = 
REMARK  8 active torsions:
REMARK  status: ('A' for Active; 'I' for Inactive)
REMARK    1  A    between atoms: C_1  and  C_2
REMARK    2  A    between atoms: C_2  and  C_3
REMARK    3  A    between atoms: C_2  and  C_22
REMARK    4  A    between atoms: C_7  and  N_8
REMARK    5  A    between atoms: C_9  and  C_11
REMARK    6  A    between atoms: C_15  and  C_16
REMARK    7  A    between atoms: C_16  and  N_17
REMARK    8  A    between atoms: N_26  and  C_27
REMARK                            x       y       z     vdW  Elec       q    Type
REMARK                         _______ _______ _______ _____ _____    ______ ____
ROOT
ATOM      1  N   UNL     1       2.477   7.695  19.066  0.00  0.00    +0.000 N 
ATOM      2  C   UNL     1       1.835   8.746  18.424  0.00  0.00    +0.000 C 
ATOM      3  O   UNL     1       1.921   9.046  17.238  0.00  0.00    +0.000 OA
ATOM      4  H   UNL     1       2.300   7.624  20.064  0.00  0.00    +0.000 HD
ENDROOT
BRANCH   1   9
ATOM      5  C   UNL     1       3.886   4.324  18.317  0.00  0.00    +0.000 A 
ATOM      6  C   UNL     1       4.737   4.630  17.244  0.00  0.00    +0.000 A 
ATOM      7  C   UNL     1       4.876   5.940  16.802  0.00  0.00    +0.000 A 
ATOM      8  C   UNL     1       4.153   6.964  17.410  0.00  0.00    +0.000 A 
ATOM      9  C   UNL     1       3.281   6.698  18.468  0.00  0.00    +0.000 A 
ATOM     10  C   UNL     1       3.171   5.375  18.932  0.00  0.00    +0.000 A 
BRANCH   5  12
ATOM     11  C   UNL     1       3.157   1.998  17.633  0.00  0.00    +0.000 C 
ATOM     12  C   UNL     1       3.745   2.870  18.749  0.00  0.00    +0.000 C 
BRANCH  12  13
ATOM     13  C   UNL     1       2.982   2.706  20.032  0.00  0.00    +0.000 A 
ATOM     14  N   UNL     1       3.492   2.624  21.249  0.00  0.00    +0.000 NA
ATOM     15  N   UNL     1       2.458   2.566  22.151  0.00  0.00    +0.000 NA
ATOM     16  C   UNL     1       1.336   2.602  21.472  0.00  0.00    +0.000 A 
ATOM     17  N   UNL     1       1.613   2.675  20.141  0.00  0.00    +0.000 N 
ATOM     18  C   UNL     1       0.639   2.715  19.085  0.00  0.00    +0.000 C 
ENDBRANCH  12  13
ENDBRANCH   5  12
ENDBRANCH   1   9
BRANCH   2  19
ATOM     19  C   UNL     1       0.940   9.566  19.304  0.00  0.00    +0.000 A 
ATOM     20  C   UNL     1       0.851   9.260  20.662  0.00  0.00    +0.000 A 
ATOM     21  C   UNL     1       0.042  10.047  21.468  0.00  0.00    +0.000 A 
ATOM     22  C   UNL     1      -0.651  11.112  20.904  0.00  0.00    +0.000 A 
ATOM     23  C   UNL     1      -0.516  11.366  19.536  0.00  0.00    +0.000 A 
ATOM     24  N   UNL     1       0.276  10.601  18.718  0.00  0.00    +0.000 NA
BRANCH  23  25
ATOM     25  C   UNL     1      -1.276  12.556  18.938  0.00  0.00    +0.000 C 
ATOM     26  F   UNL     1      -2.549  12.635  19.410  0.00  0.00    +0.000 F 
ATOM     27  F   UNL     1      -0.685  13.739  19.248  0.00  0.00    +0.000 F 
BRANCH  25  28
ATOM     28  N   UNL     1      -1.364  12.495  17.489  0.00  0.00    +0.000 NA
ATOM     29  H   UNL     1      -1.327  11.506  17.260  0.00  0.00    +0.000 HD
ATOM     30  H   UNL     1      -0.489  12.885  17.153  0.00  0.00    +0.000 HD
ENDBRANCH  25  28
ENDBRANCH  23  25
ENDBRANCH   2  19
TORSDOF 6
ENDMDL
MODEL 8
REMARK VINA RESULT:      -8.0      2.095      2.707
REMARK  Name = 
REMARK  8 active torsions:
REMARK  status: ('A' for Active; 'I' for Inactive)
REMARK    1  A    between atoms: C_1  and  C_2
REMARK    2  A    between atoms: C_2  and  C_3
REMARK    3  A    between atoms: C_2  and  C_22
REMARK    4  A    between atoms: C_7  and  N_8
REMARK    5  A    between atoms: C_9  and  C_11
REMARK    6  A    between atoms: C_15  and  C_16
REMARK    7  A    between atoms: C_16  and  N_17
REMARK    8  A    between atoms: N_26  and  C_27
REMARK                            x       y       z     vdW  Elec       q    Type
REMARK                         _______ _______ _______ _____ _____    ______ ____
ROOT
ATOM      1  N   UNL     1       1.367   7.350  20.932  0.00  0.00    +0.000 N 
ATOM      2  C   UNL     1       1.168   8.577  20.311  0.00  0.00    +0.000 C 
ATOM      3  O   UNL     1       1.484   8.881  19.165  0.00  0.00    +0.000 OA
ATOM      4  H   UNL     1       1.061   7.300  21.899  0.00  0.00    +0.000 HD
ENDROOT
BRANCH   1   9
ATOM      5  C   UNL     1       3.556   5.137  18.878  0.00  0.00    +0.000 A 
ATOM      6  C   UNL     1       3.052   3.875  19.228  0.00  0.00    +0.000 A 
ATOM      7  C   UNL     1       1.975   3.759  20.097  0.00  0.00    +0.000 A 
ATOM      8  C   UNL     1       1.395   4.900  20.649  0.00  0.00    +0.000 A 
ATOM      9  C   UNL     1       1.880   6.172  20.342  0.00  0.00    +0.000 A 
ATOM     10  C   UNL     1       2.949   6.284  19.435  0.00  0.00    +0.000 A 
BRANCH   5  12
ATOM     11  C   UNL     1       4.846   3.984  17.030  0.00  0.00    +0.000 C 
ATOM     12  C   UNL     1       4.755   5.214  17.941  0.00  0.00    +0.000 C 
BRANCH  12  13
ATOM     13  C   UNL     1       6.051   5.460  18.660  0.00  0.00    +0.000 A 
ATOM     14  N   UNL     1       6.472   4.856  19.757  0.00  0.00    +0.000 NA
ATOM     15  N   UNL     1       7.739   5.304  20.041  0.00  0.00    +0.000 NA
ATOM     16  C   UNL     1       8.066   6.180  19.121  0.00  0.00    +0.000 A 
ATOM     17  N   UNL     1       7.036   6.323  18.243  0.00  0.00    +0.000 N 
ATOM     18  C   UNL     1       7.019   7.207  17.110  0.00  0.00    +0.000 C 
ENDBRANCH  12  13
ENDBRANCH   5  12
ENDBRANCH   1   9
BRANCH   2  19
ATOM     19  C   UNL     1       0.482   9.605  21.159  0.00  0.00    +0.000 A 
ATOM     20  C   UNL     1      -0.224   9.197  22.291  0.00  0.00    +0.000 A 
ATOM     21  C   UNL     1      -0.829  10.163  23.081  0.00  0.00    +0.000 A 
ATOM     22  C   UNL     1      -0.714  11.502  22.725  0.00  0.00    +0.000 A 
ATOM     23  C   UNL     1       0.009  11.844  21.579  0.00  0.00    +0.000 A 
ATOM     24  N   UNL     1       0.614  10.906  20.781  0.00  0.00    +0.000 NA
BRANCH  23  25
ATOM     25  C   UNL     1       0.136  13.328  21.215  0.00  0.00    +0.000 C 
ATOM     26  F   UNL     1       0.438  13.506  19.902  0.00  0.00    +0.000 F 
ATOM     27  F   UNL     1      -1.026  14.001  21.429  0.00  0.00    +0.000 F 
BRANCH  25  28
ATOM     28  N   UNL     1       1.165  14.008  21.982  0.00  0.00    +0.000 NA
ATOM     29  H   UNL     1       1.500  14.754  21.380  0.00  0.00    +0.000 HD
ATOM     30  H   UNL     1       1.931  13.345  22.047  0.00  0.00    +0.000 HD
ENDBRANCH  25  28
ENDBRANCH  23  25
ENDBRANCH   2  19
TORSDOF 6
ENDMDL
MODEL 9
REMARK VINA RESULT:      -8.0      3.670      8.637
REMARK  Name = 
REMARK  8 active torsions:
REMARK  status: ('A' for Active; 'I' for Inactive)
REMARK    1  A    between atoms: C_1  and  C_2
REMARK    2  A    between atoms: C_2  and  C_3
REMARK    3  A    between atoms: C_2  and  C_22
REMARK    4  A    between atoms: C_7  and  N_8
REMARK    5  A    between atoms: C_9  and  C_11
REMARK    6  A    between atoms: C_15  and  C_16
REMARK    7  A    between atoms: C_16  and  N_17
REMARK    8  A    between atoms: N_26  and  C_27
REMARK                            x       y       z     vdW  Elec       q    Type
REMARK                         _______ _______ _______ _____ _____    ______ ____
ROOT
ATOM      1  N   UNL     1       2.503   7.504  19.708  0.00  0.00    +0.000 N 
ATOM      2  C   UNL     1       2.586   6.121  19.815  0.00  0.00    +0.000 C 
ATOM      3  O   UNL     1       1.913   5.397  20.542  0.00  0.00    +0.000 OA
ATOM      4  H   UNL     1       3.167   7.929  19.069  0.00  0.00    +0.000 HD
ENDROOT
BRANCH   1   9
ATOM      5  C   UNL     1      -0.253   9.987  20.099  0.00  0.00    +0.000 A 
ATOM      6  C   UNL     1      -0.434   9.957  21.490  0.00  0.00    +0.000 A 
ATOM      7  C   UNL     1       0.372   9.160  22.293  0.00  0.00    +0.000 A 
ATOM      8  C   UNL     1       1.361   8.362  21.719  0.00  0.00    +0.000 A 
ATOM      9  C   UNL     1       1.560   8.349  20.337  0.00  0.00    +0.000 A 
ATOM     10  C   UNL     1       0.762   9.184  19.534  0.00  0.00    +0.000 A 
BRANCH   5  12
ATOM     11  C   UNL     1      -1.347  10.301  17.838  0.00  0.00    +0.000 C 
ATOM     12  C   UNL     1      -1.178  10.856  19.257  0.00  0.00    +0.000 C 
BRANCH  12  13
ATOM     13  C   UNL     1      -0.773  12.302  19.236  0.00  0.00    +0.000 A 
ATOM     14  N   UNL     1       0.162  12.849  18.479  0.00  0.00    +0.000 NA
ATOM     15  N   UNL     1       0.164  14.204  18.699  0.00  0.00    +0.000 NA
ATOM     16  C   UNL     1      -0.760  14.462  19.594  0.00  0.00    +0.000 A 
ATOM     17  N   UNL     1      -1.363  13.302  19.971  0.00  0.00    +0.000 N 
ATOM     18  C   UNL     1      -2.413  13.183  20.946  0.00  0.00    +0.000 C 
ENDBRANCH  12  13
ENDBRANCH   5  12
ENDBRANCH   1   9
BRANCH   2  19
ATOM     19  C   UNL     1       3.608   5.483  18.923  0.00  0.00    +0.000 A 
ATOM     20  C   UNL     1       3.184   4.720  17.836  0.00  0.00    +0.000 A 
ATOM     21  C   UNL     1       4.142   4.161  17.003  0.00  0.00    +0.000 A 
ATOM     22  C   UNL     1       5.489   4.379  17.273  0.00  0.00    +0.000 A 
ATOM     23  C   UNL     1       5.847   5.156  18.379  0.00  0.00    +0.000 A 
ATOM     24  N   UNL     1       4.917   5.716  19.218  0.00  0.00    +0.000 NA
BRANCH  23  25
ATOM     25  C   UNL     1       7.337   5.395  18.648  0.00  0.00    +0.000 C 
ATOM     26  F   UNL     1       8.115   4.424  18.102  0.00  0.00    +0.000 F 
ATOM     27  F   UNL     1       7.765   6.567  18.111  0.00  0.00    +0.000 F 
BRANCH  25  28
ATOM     28  N   UNL     1       7.650   5.441  20.066  0.00  0.00    +0.000 NA
ATOM     29  H   UNL     1       8.469   4.851  20.180  0.00  0.00    +0.000 HD
ATOM     30  H   UNL     1       6.891   4.943  20.523  0.00  0.00    +0.000 HD
ENDBRANCH  25  28
ENDBRANCH  23  25
ENDBRANCH   2  19
TORSDOF 6
ENDMDL
