MODEL 1
REMARK VINA RESULT:      -9.2      0.000      0.000
REMARK  Name = 
REMARK  6 active torsions:
REMARK  status: ('A' for Active; 'I' for Inactive)
REMARK    1  A    between atoms: C_1  and  C_2
REMARK    2  A    between atoms: C_2  and  N_3
REMARK    3  A    between atoms: C_5  and  C_6
REMARK    4  A    between atoms: N_8  and  C_9
REMARK    5  A    between atoms: N_8  and  C_16
REMARK    6  A    between atoms: C_9  and  C_10
REMARK                            x       y       z     vdW  Elec       q    Type
REMARK                         _______ _______ _______ _____ _____    ______ ____
ROOT
ATOM      1  C   UNL     1       4.304   4.765  17.066  0.00  0.00    +0.000 C 
ATOM      2  O   UNL     1       3.628   3.994  16.373  0.00  0.00    +0.000 OA
ATOM      3  N   UNL     1       5.673   4.972  16.758  0.00  0.00    +0.000 N 
ENDROOT
BRANCH   1   6
ATOM      4  N   UNL     1       2.212   7.021  19.249  0.00  0.00    +0.000 N 
ATOM      5  N   UNL     1       3.005   6.582  18.188  0.00  0.00    +0.000 NA
ATOM      6  C   UNL     1       3.509   5.370  18.241  0.00  0.00    +0.000 A 
ATOM      7  C   UNL     1       3.254   4.445  19.405  0.00  0.00    +0.000 A 
ATOM      8  C   UNL     1       3.853   3.186  19.585  0.00  0.00    +0.000 A 
ATOM      9  C   UNL     1       3.495   2.355  20.659  0.00  0.00    +0.000 A 
ATOM     10  C   UNL     1       2.542   2.771  21.582  0.00  0.00    +0.000 A 
ATOM     11  C   UNL     1       1.963   4.023  21.433  0.00  0.00    +0.000 A 
ATOM     12  C   UNL     1       2.329   4.850  20.354  0.00  0.00    +0.000 A 
ATOM     13  C   UNL     1       1.774   6.195  20.285  0.00  0.00    +0.000 A 
ATOM     14  O   UNL     1       1.004   6.558  21.179  0.00  0.00    +0.000 OA
BRANCH   4  16
ATOM     15  C   UNL     1       1.468   9.305  18.264  0.00  0.00    +0.000 C 
ATOM     16  C   UNL     1       1.842   8.422  19.433  0.00  0.00    +0.000 C 
ENDBRANCH   4  16
ENDBRANCH   1   6
BRANCH   3  17
ATOM     17  C   UNL     1       6.611   5.883  17.345  0.00  0.00    +0.000 A 
ATOM     18  C   UNL     1       6.793   7.192  16.907  0.00  0.00    +0.000 A 
ATOM     19  C   UNL     1       7.695   8.053  17.545  0.00  0.00    +0.000 A 
ATOM     20  C   UNL     1       8.402   7.639  18.670  0.00  0.00    +0.000 A 
ATOM     21  C   UNL     1       8.223   6.349  19.146  0.00  0.00    +0.000 A 
ATOM     22  C   UNL     1       7.353   5.482  18.479  0.00  0.00    +0.000 A 
ENDBRANCH   3  17
BRANCH   3  23
ATOM     23  C   UNL     1       6.272   3.943  15.867  0.00  0.00    +0.000 C 
BRANCH  23  24
ATOM     24  C   UNL     1       6.406   4.214  14.377  0.00  0.00    +0.000 A 
ATOM     25  C   UNL     1       7.412   5.096  13.934  0.00  0.00    +0.000 A 
ATOM     26  C   UNL     1       7.811   5.116  12.594  0.00  0.00    +0.000 A 
ATOM     27  C   UNL     1       7.203   4.265  11.676  0.00  0.00    +0.000 A 
ATOM     28  C   UNL     1       6.148   3.453  12.083  0.00  0.00    +0.000 A 
ATOM     29  C   UNL     1       5.742   3.440  13.420  0.00  0.00    +0.000 A 
ENDBRANCH  23  24
ENDBRANCH   3  23
TORSDOF 5
ENDMDL
MODEL 2
REMARK VINA RESULT:      -8.3      1.033      3.073
REMARK  Name = 
REMARK  6 active torsions:
REMARK  status: ('A' for Active; 'I' for Inactive)
REMARK    1  A    between atoms: C_1  and  C_2
REMARK    2  A    between atoms: C_2  and  N_3
REMARK    3  A    between atoms: C_5  and  C_6
REMARK    4  A    between atoms: N_8  and  C_9
REMARK    5  A    between atoms: N_8  and  C_16
REMARK    6  A    between atoms: C_9  and  C_10
REMARK                            x       y       z     vdW  Elec       q    Type
REMARK                         _______ _______ _______ _____ _____    ______ ____
ROOT
ATOM      1  C   UNL     1       4.285   4.428  17.130  0.00  0.00    +0.000 C 
ATOM      2  O   UNL     1       3.675   3.657  16.378  0.00  0.00    +0.000 OA
ATOM      3  N   UNL     1       5.637   4.757  16.855  0.00  0.00    +0.000 N 
ENDROOT
BRANCH   1   6
ATOM      4  N   UNL     1       2.551   4.652  20.473  0.00  0.00    +0.000 N 
ATOM      5  N   UNL     1       3.245   4.125  19.383  0.00  0.00    +0.000 NA
ATOM      6  C   UNL     1       3.437   4.891  18.332  0.00  0.00    +0.000 A 
ATOM      7  C   UNL     1       2.935   6.312  18.272  0.00  0.00    +0.000 A 
ATOM      8  C   UNL     1       2.999   7.146  17.142  0.00  0.00    +0.000 A 
ATOM      9  C   UNL     1       2.581   8.485  17.201  0.00  0.00    +0.000 A 
ATOM     10  C   UNL     1       2.077   9.014  18.384  0.00  0.00    +0.000 A 
ATOM     11  C   UNL     1       1.982   8.195  19.499  0.00  0.00    +0.000 A 
ATOM     12  C   UNL     1       2.403   6.853  19.432  0.00  0.00    +0.000 A 
ATOM     13  C   UNL     1       2.197   5.997  20.592  0.00  0.00    +0.000 A 
ATOM     14  O   UNL     1       1.659   6.483  21.592  0.00  0.00    +0.000 OA
BRANCH   4  16
ATOM     15  C   UNL     1       1.360   2.497  21.295  0.00  0.00    +0.000 C 
ATOM     16  C   UNL     1       2.037   3.822  21.560  0.00  0.00    +0.000 C 
ENDBRANCH   4  16
ENDBRANCH   1   6
BRANCH   3  17
ATOM     17  C   UNL     1       6.499   5.694  17.514  0.00  0.00    +0.000 A 
ATOM     18  C   UNL     1       7.291   5.376  18.612  0.00  0.00    +0.000 A 
ATOM     19  C   UNL     1       8.147   6.322  19.192  0.00  0.00    +0.000 A 
ATOM     20  C   UNL     1       8.266   7.599  18.652  0.00  0.00    +0.000 A 
ATOM     21  C   UNL     1       7.508   7.939  17.542  0.00  0.00    +0.000 A 
ATOM     22  C   UNL     1       6.626   7.003  16.995  0.00  0.00    +0.000 A 
ENDBRANCH   3  17
BRANCH   3  23
ATOM     23  C   UNL     1       6.319   3.838  15.906  0.00  0.00    +0.000 C 
BRANCH  23  24
ATOM     24  C   UNL     1       6.434   4.213  14.437  0.00  0.00    +0.000 A 
ATOM     25  C   UNL     1       7.450   5.104  14.039  0.00  0.00    +0.000 A 
ATOM     26  C   UNL     1       7.827   5.213  12.697  0.00  0.00    +0.000 A 
ATOM     27  C   UNL     1       7.186   4.441  11.732  0.00  0.00    +0.000 A 
ATOM     28  C   UNL     1       6.122   3.622  12.100  0.00  0.00    +0.000 A 
ATOM     29  C   UNL     1       5.739   3.522  13.439  0.00  0.00    +0.000 A 
ENDBRANCH  23  24
ENDBRANCH   3  23
TORSDOF 5
ENDMDL
MODEL 3
REMARK VINA RESULT:      -7.4      4.619      7.907
REMARK  Name = 
REMARK  6 active torsions:
REMARK  status: ('A' for Active; 'I' for Inactive)
REMARK    1  A    between atoms: C_1  and  C_2
REMARK    2  A    between atoms: C_2  and  N_3
REMARK    3  A    between atoms: C_5  and  C_6
REMARK    4  A    between atoms: N_8  and  C_9
REMARK    5  A    between atoms: N_8  and  C_16
REMARK    6  A    between atoms: C_9  and  C_10
REMARK                            x       y       z     vdW  Elec       q    Type
REMARK                         _______ _______ _______ _____ _____    ______ ____
ROOT
ATOM      1  C   UNL     1       1.416   9.037  18.288  0.00  0.00    +0.000 C 
ATOM      2  O   UNL     1       2.116   8.831  17.288  0.00  0.00    +0.000 OA
ATOM      3  N   UNL     1       1.803   8.498  19.542  0.00  0.00    +0.000 N 
ENDROOT
BRANCH   1   6
ATOM      4  N   UNL     1      -2.009  10.111  17.126  0.00  0.00    +0.000 N 
ATOM      5  N   UNL     1      -0.852   9.347  17.283  0.00  0.00    +0.000 NA
ATOM      6  C   UNL     1       0.145   9.853  17.973  0.00  0.00    +0.000 A 
ATOM      7  C   UNL     1       0.076  11.224  18.598  0.00  0.00    +0.000 A 
ATOM      8  C   UNL     1       1.141  11.875  19.244  0.00  0.00    +0.000 A 
ATOM      9  C   UNL     1       0.963  13.119  19.870  0.00  0.00    +0.000 A 
ATOM     10  C   UNL     1      -0.279  13.745  19.850  0.00  0.00    +0.000 A 
ATOM     11  C   UNL     1      -1.332  13.128  19.191  0.00  0.00    +0.000 A 
ATOM     12  C   UNL     1      -1.144  11.881  18.566  0.00  0.00    +0.000 A 
ATOM     13  C   UNL     1      -2.245  11.310  17.801  0.00  0.00    +0.000 A 
ATOM     14  O   UNL     1      -3.301  11.945  17.730  0.00  0.00    +0.000 OA
BRANCH   4  16
ATOM     15  C   UNL     1      -2.953  10.198  14.710  0.00  0.00    +0.000 C 
ATOM     16  C   UNL     1      -3.052   9.779  16.159  0.00  0.00    +0.000 C 
ENDBRANCH   4  16
ENDBRANCH   1   6
BRANCH   3  17
ATOM     17  C   UNL     1       1.216   8.691  20.835  0.00  0.00    +0.000 A 
ATOM     18  C   UNL     1       1.916   9.172  21.937  0.00  0.00    +0.000 A 
ATOM     19  C   UNL     1       1.282   9.380  23.169  0.00  0.00    +0.000 A 
ATOM     20  C   UNL     1      -0.084   9.157  23.313  0.00  0.00    +0.000 A 
ATOM     21  C   UNL     1      -0.815   8.701  22.226  0.00  0.00    +0.000 A 
ATOM     22  C   UNL     1      -0.167   8.456  21.012  0.00  0.00    +0.000 A 
ENDBRANCH   3  17
BRANCH   3  23
ATOM     23  C   UNL     1       2.809   7.406  19.465  0.00  0.00    +0.000 C 
BRANCH  23  24
ATOM     24  C   UNL     1       2.353   5.958  19.398  0.00  0.00    +0.000 A 
ATOM     25  C   UNL     1       1.833   5.353  20.559  0.00  0.00    +0.000 A 
ATOM     26  C   UNL     1       1.087   4.172  20.483  0.00  0.00    +0.000 A 
ATOM     27  C   UNL     1       0.862   3.573  19.248  0.00  0.00    +0.000 A 
ATOM     28  C   UNL     1       1.445   4.111  18.104  0.00  0.00    +0.000 A 
ATOM     29  C   UNL     1       2.198   5.285  18.181  0.00  0.00    +0.000 A 
ENDBRANCH  23  24
ENDBRANCH   3  23
TORSDOF 5
ENDMDL
MODEL 4
REMARK VINA RESULT:      -7.3      8.471     10.877
REMARK  Name = 
REMARK  6 active torsions:
REMARK  status: ('A' for Active; 'I' for Inactive)
REMARK    1  A    between atoms: C_1  and  C_2
REMARK    2  A    between atoms: C_2  and  N_3
REMARK    3  A    between atoms: C_5  and  C_6
REMARK    4  A    between atoms: N_8  and  C_9
REMARK    5  A    between atoms: N_8  and  C_16
REMARK    6  A    between atoms: C_9  and  C_10
REMARK                            x       y       z     vdW  Elec       q    Type
REMARK                         _______ _______ _______ _____ _____    ______ ____
ROOT
ATOM      1  C   UNL     1      -2.217  13.336  20.619  0.00  0.00    +0.000 C 
ATOM      2  O   UNL     1      -2.277  14.565  20.483  0.00  0.00    +0.000 OA
ATOM      3  N   UNL     1      -1.055  12.746  21.181  0.00  0.00    +0.000 N 
ENDROOT
BRANCH   1   6
ATOM      4  N   UNL     1      -5.726  12.042  20.129  0.00  0.00    +0.000 N 
ATOM      5  N   UNL     1      -4.614  12.636  20.727  0.00  0.00    +0.000 NA
ATOM      6  C   UNL     1      -3.468  12.611  20.083  0.00  0.00    +0.000 A 
ATOM      7  C   UNL     1      -3.322  11.967  18.728  0.00  0.00    +0.000 A 
ATOM      8  C   UNL     1      -2.108  11.798  18.038  0.00  0.00    +0.000 A 
ATOM      9  C   UNL     1      -2.077  11.260  16.741  0.00  0.00    +0.000 A 
ATOM     10  C   UNL     1      -3.253  10.866  16.114  0.00  0.00    +0.000 A 
ATOM     11  C   UNL     1      -4.455  11.000  16.794  0.00  0.00    +0.000 A 
ATOM     12  C   UNL     1      -4.478  11.540  18.094  0.00  0.00    +0.000 A 
ATOM     13  C   UNL     1      -5.744  11.574  18.814  0.00  0.00    +0.000 A 
ATOM     14  O   UNL     1      -6.749  11.126  18.254  0.00  0.00    +0.000 OA
BRANCH   4  16
ATOM     15  C   UNL     1      -7.228  12.351  22.223  0.00  0.00    +0.000 C 
ATOM     16  C   UNL     1      -6.960  11.760  20.858  0.00  0.00    +0.000 C 
ENDBRANCH   4  16
ENDBRANCH   1   6
BRANCH   3  17
ATOM     17  C   UNL     1      -0.806  11.378  21.528  0.00  0.00    +0.000 A 
ATOM     18  C   UNL     1      -0.420  10.406  20.610  0.00  0.00    +0.000 A 
ATOM     19  C   UNL     1      -0.149   9.091  21.012  0.00  0.00    +0.000 A 
ATOM     20  C   UNL     1      -0.211   8.730  22.354  0.00  0.00    +0.000 A 
ATOM     21  C   UNL     1      -0.568   9.682  23.297  0.00  0.00    +0.000 A 
ATOM     22  C   UNL     1      -0.877  10.981  22.883  0.00  0.00    +0.000 A 
ENDBRANCH   3  17
BRANCH   3  23
ATOM     23  C   UNL     1       0.144  13.625  21.194  0.00  0.00    +0.000 C 
BRANCH  23  24
ATOM     24  C   UNL     1       0.913  13.879  19.907  0.00  0.00    +0.000 A 
ATOM     25  C   UNL     1       1.144  15.209  19.504  0.00  0.00    +0.000 A 
ATOM     26  C   UNL     1       2.120  15.512  18.550  0.00  0.00    +0.000 A 
ATOM     27  C   UNL     1       2.871  14.490  17.977  0.00  0.00    +0.000 A 
ATOM     28  C   UNL     1       2.592  13.165  18.301  0.00  0.00    +0.000 A 
ATOM     29  C   UNL     1       1.610  12.862  19.247  0.00  0.00    +0.000 A 
ENDBRANCH  23  24
ENDBRANCH   3  23
TORSDOF 5
ENDMDL
MODEL 5
REMARK VINA RESULT:      -7.1      2.832      7.824
REMARK  Name = 
REMARK  6 active torsions:
REMARK  status: ('A' for Active; 'I' for Inactive)
REMARK    1  A    between atoms: C_1  and  C_2
REMARK    2  A    between atoms: C_2  and  N_3
REMARK    3  A    between atoms: C_5  and  C_6
REMARK    4  A    between atoms: N_8  and  C_9
REMARK    5  A    between atoms: N_8  and  C_16
REMARK    6  A    between atoms: C_9  and  C_10
REMARK                            x       y       z     vdW  Elec       q    Type
REMARK                         _______ _______ _______ _____ _____    ______ ____
ROOT
ATOM      1  C   UNL     1       1.878   7.974  18.522  0.00  0.00    +0.000 C 
ATOM      2  O   UNL     1       1.941   8.086  17.291  0.00  0.00    +0.000 OA
ATOM      3  N   UNL     1       1.260   8.994  19.291  0.00  0.00    +0.000 N 
ENDROOT
BRANCH   1   6
ATOM      4  N   UNL     1       2.638   4.743  20.315  0.00  0.00    +0.000 N 
ATOM      5  N   UNL     1       2.008   5.938  19.967  0.00  0.00    +0.000 NA
ATOM      6  C   UNL     1       2.561   6.694  19.045  0.00  0.00    +0.000 A 
ATOM      7  C   UNL     1       3.846   6.309  18.355  0.00  0.00    +0.000 A 
ATOM      8  C   UNL     1       4.554   7.119  17.451  0.00  0.00    +0.000 A 
ATOM      9  C   UNL     1       5.701   6.646  16.793  0.00  0.00    +0.000 A 
ATOM     10  C   UNL     1       6.171   5.361  17.035  0.00  0.00    +0.000 A 
ATOM     11  C   UNL     1       5.499   4.560  17.946  0.00  0.00    +0.000 A 
ATOM     12  C   UNL     1       4.350   5.042  18.603  0.00  0.00    +0.000 A 
ATOM     13  C   UNL     1       3.728   4.210  19.625  0.00  0.00    +0.000 A 
ATOM     14  O   UNL     1       4.235   3.113  19.876  0.00  0.00    +0.000 OA
BRANCH   4  16
ATOM     15  C   UNL     1       1.303   2.823  21.441  0.00  0.00    +0.000 C 
ATOM     16  C   UNL     1       2.279   3.976  21.505  0.00  0.00    +0.000 C 
ENDBRANCH   4  16
ENDBRANCH   1   6
BRANCH   3  17
ATOM     17  C   UNL     1       0.980   9.032  20.697  0.00  0.00    +0.000 A 
ATOM     18  C   UNL     1       1.949   9.252  21.671  0.00  0.00    +0.000 A 
ATOM     19  C   UNL     1       1.612   9.320  23.030  0.00  0.00    +0.000 A 
ATOM     20  C   UNL     1       0.287   9.219  23.441  0.00  0.00    +0.000 A 
ATOM     21  C   UNL     1      -0.705   9.024  22.491  0.00  0.00    +0.000 A 
ATOM     22  C   UNL     1      -0.357   8.915  21.142  0.00  0.00    +0.000 A 
ENDBRANCH   3  17
BRANCH   3  23
ATOM     23  C   UNL     1       1.090  10.290  18.583  0.00  0.00    +0.000 C 
BRANCH  23  24
ATOM     24  C   UNL     1      -0.304  10.841  18.332  0.00  0.00    +0.000 A 
ATOM     25  C   UNL     1      -1.222  10.064  17.598  0.00  0.00    +0.000 A 
ATOM     26  C   UNL     1      -2.591  10.344  17.632  0.00  0.00    +0.000 A 
ATOM     27  C   UNL     1      -3.062  11.412  18.391  0.00  0.00    +0.000 A 
ATOM     28  C   UNL     1      -2.158  12.241  19.050  0.00  0.00    +0.000 A 
ATOM     29  C   UNL     1      -0.788  11.967  19.006  0.00  0.00    +0.000 A 
ENDBRANCH  23  24
ENDBRANCH   3  23
TORSDOF 5
ENDMDL
MODEL 6
REMARK VINA RESULT:      -6.9      8.369     10.582
REMARK  Name = 
REMARK  6 active torsions:
REMARK  status: ('A' for Active; 'I' for Inactive)
REMARK    1  A    between atoms: C_1  and  C_2
REMARK    2  A    between atoms: C_2  and  N_3
REMARK    3  A    between atoms: C_5  and  C_6
REMARK    4  A    between atoms: N_8  and  C_9
REMARK    5  A    between atoms: N_8  and  C_16
REMARK    6  A    between atoms: C_9  and  C_10
REMARK                            x       y       z     vdW  Elec       q    Type
REMARK                         _______ _______ _______ _____ _____    ______ ____
ROOT
ATOM      1  C   UNL     1      -1.661  13.554  20.499  0.00  0.00    +0.000 C 
ATOM      2  O   UNL     1      -1.711  14.749  20.182  0.00  0.00    +0.000 OA
ATOM      3  N   UNL     1      -0.540  13.061  21.216  0.00  0.00    +0.000 N 
ENDROOT
BRANCH   1   6
ATOM      4  N   UNL     1      -5.152  12.293  19.824  0.00  0.00    +0.000 N 
ATOM      5  N   UNL     1      -4.096  12.997  20.404  0.00  0.00    +0.000 NA
ATOM      6  C   UNL     1      -2.874  12.747  19.991  0.00  0.00    +0.000 A 
ATOM      7  C   UNL     1      -2.582  11.732  18.914  0.00  0.00    +0.000 A 
ATOM      8  C   UNL     1      -1.297  11.329  18.508  0.00  0.00    +0.000 A 
ATOM      9  C   UNL     1      -1.118  10.437  17.439  0.00  0.00    +0.000 A 
ATOM     10  C   UNL     1      -2.218   9.918  16.764  0.00  0.00    +0.000 A 
ATOM     11  C   UNL     1      -3.491  10.285  17.172  0.00  0.00    +0.000 A 
ATOM     12  C   UNL     1      -3.662  11.179  18.246  0.00  0.00    +0.000 A 
ATOM     13  C   UNL     1      -5.014  11.464  18.709  0.00  0.00    +0.000 A 
ATOM     14  O   UNL     1      -5.958  10.908  18.142  0.00  0.00    +0.000 OA
BRANCH   4  16
ATOM     15  C   UNL     1      -6.744  12.520  21.862  0.00  0.00    +0.000 C 
ATOM     16  C   UNL     1      -6.498  12.277  20.390  0.00  0.00    +0.000 C 
ENDBRANCH   4  16
ENDBRANCH   1   6
BRANCH   3  17
ATOM     17  C   UNL     1      -0.316  11.760  21.773  0.00  0.00    +0.000 A 
ATOM     18  C   UNL     1      -1.049  11.236  22.833  0.00  0.00    +0.000 A 
ATOM     19  C   UNL     1      -0.814   9.940  23.311  0.00  0.00    +0.000 A 
ATOM     20  C   UNL     1       0.129   9.117  22.704  0.00  0.00    +0.000 A 
ATOM     21  C   UNL     1       0.859   9.601  21.629  0.00  0.00    +0.000 A 
ATOM     22  C   UNL     1       0.648  10.910  21.184  0.00  0.00    +0.000 A 
ENDBRANCH   3  17
BRANCH   3  23
ATOM     23  C   UNL     1       0.656  13.944  21.182  0.00  0.00    +0.000 C 
BRANCH  23  24
ATOM     24  C   UNL     1       1.349  14.232  19.860  0.00  0.00    +0.000 A 
ATOM     25  C   UNL     1       1.580  15.571  19.489  0.00  0.00    +0.000 A 
ATOM     26  C   UNL     1       2.502  15.893  18.488  0.00  0.00    +0.000 A 
ATOM     27  C   UNL     1       3.196  14.879  17.835  0.00  0.00    +0.000 A 
ATOM     28  C   UNL     1       2.914  13.548  18.129  0.00  0.00    +0.000 A 
ATOM     29  C   UNL     1       1.985  13.228  19.122  0.00  0.00    +0.000 A 
ENDBRANCH  23  24
ENDBRANCH   3  23
TORSDOF 5
ENDMDL
MODEL 7
REMARK VINA RESULT:      -6.8      8.184     10.772
REMARK  Name = 
REMARK  6 active torsions:
REMARK  status: ('A' for Active; 'I' for Inactive)
REMARK    1  A    between atoms: C_1  and  C_2
REMARK    2  A    between atoms: C_2  and  N_3
REMARK    3  A    between atoms: C_5  and  C_6
REMARK    4  A    between atoms: N_8  and  C_9
REMARK    5  A    between atoms: N_8  and  C_16
REMARK    6  A    between atoms: C_9  and  C_10
REMARK                            x       y       z     vdW  Elec       q    Type
REMARK                         _______ _______ _______ _____ _____    ______ ____
ROOT
ATOM      1  C   UNL     1      -0.544  12.728  18.955  0.00  0.00    +0.000 C 
ATOM      2  O   UNL     1      -0.121  13.700  18.316  0.00  0.00    +0.000 OA
ATOM      3  N   UNL     1       0.293  12.094  19.910  0.00  0.00    +0.000 N 
ENDROOT
BRANCH   1   6
ATOM      4  N   UNL     1      -3.526  11.219  17.203  0.00  0.00    +0.000 N 
ATOM      5  N   UNL     1      -2.218  11.640  17.451  0.00  0.00    +0.000 NA
ATOM      6  C   UNL     1      -1.975  12.319  18.550  0.00  0.00    +0.000 A 
ATOM      7  C   UNL     1      -3.058  12.651  19.545  0.00  0.00    +0.000 A 
ATOM      8  C   UNL     1      -2.896  13.471  20.675  0.00  0.00    +0.000 A 
ATOM      9  C   UNL     1      -3.941  13.660  21.594  0.00  0.00    +0.000 A 
ATOM     10  C   UNL     1      -5.173  13.047  21.395  0.00  0.00    +0.000 A 
ATOM     11  C   UNL     1      -5.356  12.258  20.268  0.00  0.00    +0.000 A 
ATOM     12  C   UNL     1      -4.304  12.075  19.352  0.00  0.00    +0.000 A 
ATOM     13  C   UNL     1      -4.563  11.321  18.132  0.00  0.00    +0.000 A 
ATOM     14  O   UNL     1      -5.699  10.874  17.949  0.00  0.00    +0.000 OA
BRANCH   4  16
ATOM     15  C   UNL     1      -2.973  10.292  14.843  0.00  0.00    +0.000 C 
ATOM     16  C   UNL     1      -3.962  10.717  15.903  0.00  0.00    +0.000 C 
ENDBRANCH   4  16
ENDBRANCH   1   6
BRANCH   3  17
ATOM     17  C   UNL     1      -0.012  11.037  20.828  0.00  0.00    +0.000 A 
ATOM     18  C   UNL     1       0.196   9.689  20.551  0.00  0.00    +0.000 A 
ATOM     19  C   UNL     1      -0.082   8.699  21.503  0.00  0.00    +0.000 A 
ATOM     20  C   UNL     1      -0.527   9.040  22.776  0.00  0.00    +0.000 A 
ATOM     21  C   UNL     1      -0.719  10.377  23.092  0.00  0.00    +0.000 A 
ATOM     22  C   UNL     1      -0.480  11.356  22.123  0.00  0.00    +0.000 A 
ENDBRANCH   3  17
BRANCH   3  23
ATOM     23  C   UNL     1       1.739  12.412  19.776  0.00  0.00    +0.000 C 
BRANCH  23  24
ATOM     24  C   UNL     1       2.300  13.677  20.407  0.00  0.00    +0.000 A 
ATOM     25  C   UNL     1       3.281  14.409  19.710  0.00  0.00    +0.000 A 
ATOM     26  C   UNL     1       3.574  15.731  20.057  0.00  0.00    +0.000 A 
ATOM     27  C   UNL     1       2.900  16.336  21.113  0.00  0.00    +0.000 A 
ATOM     28  C   UNL     1       1.992  15.597  21.866  0.00  0.00    +0.000 A 
ATOM     29  C   UNL     1       1.707  14.272  21.525  0.00  0.00    +0.000 A 
ENDBRANCH  23  24
ENDBRANCH   3  23
TORSDOF 5
ENDMDL
MODEL 8
REMARK VINA RESULT:      -6.8      5.786      9.900
REMARK  Name = 
REMARK  6 active torsions:
REMARK  status: ('A' for Active; 'I' for Inactive)
REMARK    1  A    between atoms: C_1  and  C_2
REMARK    2  A    between atoms: C_2  and  N_3
REMARK    3  A    between atoms: C_5  and  C_6
REMARK    4  A    between atoms: N_8  and  C_9
REMARK    5  A    between atoms: N_8  and  C_16
REMARK    6  A    between atoms: C_9  and  C_10
REMARK                            x       y       z     vdW  Elec       q    Type
REMARK                         _______ _______ _______ _____ _____    ______ ____
ROOT
ATOM      1  C   UNL     1       0.453  12.242  19.923  0.00  0.00    +0.000 C 
ATOM      2  O   UNL     1       1.598  12.216  20.392  0.00  0.00    +0.000 OA
ATOM      3  N   UNL     1       0.055  11.260  18.980  0.00  0.00    +0.000 N 
ENDROOT
BRANCH   1   6
ATOM      4  N   UNL     1      -1.203  15.609  20.314  0.00  0.00    +0.000 N 
ATOM      5  N   UNL     1      -0.346  14.610  19.852  0.00  0.00    +0.000 NA
ATOM      6  C   UNL     1      -0.379  13.434  20.438  0.00  0.00    +0.000 A 
ATOM      7  C   UNL     1      -1.312  13.135  21.585  0.00  0.00    +0.000 A 
ATOM      8  C   UNL     1      -1.318  11.945  22.334  0.00  0.00    +0.000 A 
ATOM      9  C   UNL     1      -2.279  11.720  23.334  0.00  0.00    +0.000 A 
ATOM     10  C   UNL     1      -3.241  12.683  23.616  0.00  0.00    +0.000 A 
ATOM     11  C   UNL     1      -3.228  13.873  22.904  0.00  0.00    +0.000 A 
ATOM     12  C   UNL     1      -2.262  14.092  21.904  0.00  0.00    +0.000 A 
ATOM     13  C   UNL     1      -2.219  15.391  21.246  0.00  0.00    +0.000 A 
ATOM     14  O   UNL     1      -3.032  16.252  21.594  0.00  0.00    +0.000 OA
BRANCH   4  16
ATOM     15  C   UNL     1      -1.198  17.471  18.505  0.00  0.00    +0.000 C 
ATOM     16  C   UNL     1      -1.057  17.013  19.939  0.00  0.00    +0.000 C 
ENDBRANCH   4  16
ENDBRANCH   1   6
BRANCH   3  17
ATOM     17  C   UNL     1      -1.231  11.032  18.391  0.00  0.00    +0.000 A 
ATOM     18  C   UNL     1      -2.368  11.770  18.707  0.00  0.00    +0.000 A 
ATOM     19  C   UNL     1      -3.592  11.530  18.070  0.00  0.00    +0.000 A 
ATOM     20  C   UNL     1      -3.695  10.577  17.061  0.00  0.00    +0.000 A 
ATOM     21  C   UNL     1      -2.574   9.843  16.705  0.00  0.00    +0.000 A 
ATOM     22  C   UNL     1      -1.366  10.058  17.375  0.00  0.00    +0.000 A 
ENDBRANCH   3  17
BRANCH   3  23
ATOM     23  C   UNL     1       1.177  10.517  18.346  0.00  0.00    +0.000 C 
BRANCH  23  24
ATOM     24  C   UNL     1       1.450   9.075  18.740  0.00  0.00    +0.000 A 
ATOM     25  C   UNL     1       2.151   8.245  17.842  0.00  0.00    +0.000 A 
ATOM     26  C   UNL     1       2.731   7.048  18.272  0.00  0.00    +0.000 A 
ATOM     27  C   UNL     1       2.609   6.657  19.602  0.00  0.00    +0.000 A 
ATOM     28  C   UNL     1       1.846   7.422  20.478  0.00  0.00    +0.000 A 
ATOM     29  C   UNL     1       1.257   8.613  20.046  0.00  0.00    +0.000 A 
ENDBRANCH  23  24
ENDBRANCH   3  23
TORSDOF 5
ENDMDL
MODEL 9
REMARK VINA RESULT:      -6.8      5.619     10.212
REMARK  Name = 
REMARK  6 active torsions:
REMARK  status: ('A' for Active; 'I' for Inactive)
REMARK    1  A    between atoms: C_1  and  C_2
REMARK    2  A    between atoms: C_2  and  N_3
REMARK    3  A    between atoms: C_5  and  C_6
REMARK    4  A    between atoms: N_8  and  C_9
REMARK    5  A    between atoms: N_8  and  C_16
REMARK    6  A    between atoms: C_9  and  C_10
REMARK                            x       y       z     vdW  Elec       q    Type
REMARK                         _______ _______ _______ _____ _____    ______ ____
ROOT
ATOM      1  C   UNL     1      -0.112  12.131  20.612  0.00  0.00    +0.000 C 
ATOM      2  O   UNL     1       0.572  11.970  21.630  0.00  0.00    +0.000 OA
ATOM      3  N   UNL     1      -0.767  11.021  20.019  0.00  0.00    +0.000 N 
ENDROOT
BRANCH   1   6
ATOM      4  N   UNL     1      -0.888  15.779  20.041  0.00  0.00    +0.000 N 
ATOM      5  N   UNL     1      -1.023  14.454  20.458  0.00  0.00    +0.000 NA
ATOM      6  C   UNL     1      -0.099  13.588  20.105  0.00  0.00    +0.000 A 
ATOM      7  C   UNL     1       1.094  13.982  19.272  0.00  0.00    +0.000 A 
ATOM      8  C   UNL     1       2.054  13.091  18.759  0.00  0.00    +0.000 A 
ATOM      9  C   UNL     1       3.180  13.556  18.061  0.00  0.00    +0.000 A 
ATOM     10  C   UNL     1       3.362  14.917  17.847  0.00  0.00    +0.000 A 
ATOM     11  C   UNL     1       2.409  15.806  18.322  0.00  0.00    +0.000 A 
ATOM     12  C   UNL     1       1.283  15.332  19.021  0.00  0.00    +0.000 A 
ATOM     13  C   UNL     1       0.255  16.284  19.418  0.00  0.00    +0.000 A 
ATOM     14  O   UNL     1       0.412  17.473  19.125  0.00  0.00    +0.000 OA
BRANCH   4  16
ATOM     15  C   UNL     1      -2.369  17.388  21.439  0.00  0.00    +0.000 C 
ATOM     16  C   UNL     1      -1.975  16.750  20.126  0.00  0.00    +0.000 C 
ENDBRANCH   4  16
ENDBRANCH   1   6
BRANCH   3  17
ATOM     17  C   UNL     1      -1.683  10.985  18.918  0.00  0.00    +0.000 A 
ATOM     18  C   UNL     1      -1.495  10.204  17.781  0.00  0.00    +0.000 A 
ATOM     19  C   UNL     1      -2.445  10.176  16.752  0.00  0.00    +0.000 A 
ATOM     20  C   UNL     1      -3.632  10.894  16.858  0.00  0.00    +0.000 A 
ATOM     21  C   UNL     1      -3.860  11.662  17.990  0.00  0.00    +0.000 A 
ATOM     22  C   UNL     1      -2.889  11.718  18.994  0.00  0.00    +0.000 A 
ENDBRANCH   3  17
BRANCH   3  23
ATOM     23  C   UNL     1      -0.253   9.694  20.452  0.00  0.00    +0.000 C 
BRANCH  23  24
ATOM     24  C   UNL     1       0.982   9.106  19.789  0.00  0.00    +0.000 A 
ATOM     25  C   UNL     1       1.552   7.935  20.328  0.00  0.00    +0.000 A 
ATOM     26  C   UNL     1       2.448   7.162  19.584  0.00  0.00    +0.000 A 
ATOM     27  C   UNL     1       2.797   7.554  18.295  0.00  0.00    +0.000 A 
ATOM     28  C   UNL     1       2.310   8.754  17.783  0.00  0.00    +0.000 A 
ATOM     29  C   UNL     1       1.423   9.531  18.532  0.00  0.00    +0.000 A 
ENDBRANCH  23  24
ENDBRANCH   3  23
TORSDOF 5
ENDMDL
