MODEL 1
REMARK VINA RESULT:      -8.9      0.000      0.000
REMARK  Name = 
REMARK  4 active torsions:
REMARK  status: ('A' for Active; 'I' for Inactive)
REMARK    1  A    between atoms: C_5  and  N_6
REMARK    2  A    between atoms: C_9  and  C_10
REMARK    3  A    between atoms: C_10  and  N_11
REMARK    4  A    between atoms: C_18  and  C_19
REMARK                            x       y       z     vdW  Elec       q    Type
REMARK                         _______ _______ _______ _____ _____    ______ ____
ROOT
ATOM      1  N   UNL     1       2.037   7.891  19.577  0.00  0.00    +0.000 N 
ATOM      2  C   UNL     1       2.315   6.545  19.718  0.00  0.00    +0.000 A 
ATOM      3  C   UNL     1       1.593   5.789  20.791  0.00  0.00    +0.000 A 
ATOM      4  C   UNL     1       1.796   4.470  20.902  0.00  0.00    +0.000 A 
ATOM      5  C   UNL     1       2.711   3.846  20.035  0.00  0.00    +0.000 A 
ATOM      6  N   UNL     1       3.096   2.595  19.906  0.00  0.00    +0.000 NA
ATOM      7  N   UNL     1       4.033   2.553  18.900  0.00  0.00    +0.000 NA
ATOM      8  C   UNL     1       4.227   3.786  18.449  0.00  0.00    +0.000 A 
ATOM      9  N   UNL     1       3.368   4.638  19.126  0.00  0.00    +0.000 N 
ATOM     10  N   UNL     1       3.178   5.982  18.918  0.00  0.00    +0.000 NA
ATOM     11  H   UNL     1       1.239   8.231  20.103  0.00  0.00    +0.000 HD
ENDROOT
BRANCH   8  12
ATOM     12  C   UNL     1       5.156   4.182  17.388  0.00  0.00    +0.000 A 
ATOM     13  C   UNL     1       6.472   4.542  17.710  0.00  0.00    +0.000 A 
ATOM     14  C   UNL     1       7.387   4.880  16.707  0.00  0.00    +0.000 A 
ATOM     15  C   UNL     1       6.991   4.867  15.370  0.00  0.00    +0.000 A 
ATOM     16  C   UNL     1       5.680   4.539  15.038  0.00  0.00    +0.000 A 
ATOM     17  C   UNL     1       4.768   4.215  16.042  0.00  0.00    +0.000 A 
ENDBRANCH   8  12
BRANCH   1  18
ATOM     18  C   UNL     1       2.248   8.575  18.304  0.00  0.00    +0.000 C 
BRANCH  18  22
ATOM     19  N   UNL     1       0.288  10.768  19.991  0.00  0.00    +0.000 N 
ATOM     20  C   UNL     1       1.573  11.382  19.694  0.00  0.00    +0.000 C 
ATOM     21  C   UNL     1       1.754  11.061  18.218  0.00  0.00    +0.000 C 
ATOM     22  C   UNL     1       1.179   9.649  18.076  0.00  0.00    +0.000 C 
ATOM     23  C   UNL     1       0.057   9.604  19.130  0.00  0.00    +0.000 C 
BRANCH  19  28
ATOM     24  F   UNL     1      -3.468  12.691  23.590  0.00  0.00    +0.000 F 
ATOM     25  C   UNL     1      -2.559  12.230  22.722  0.00  0.00    +0.000 A 
ATOM     26  C   UNL     1      -2.632  12.600  21.391  0.00  0.00    +0.000 A 
ATOM     27  C   UNL     1      -1.676  12.119  20.488  0.00  0.00    +0.000 A 
ATOM     28  C   UNL     1      -0.638  11.255  20.883  0.00  0.00    +0.000 A 
ATOM     29  C   UNL     1      -0.607  10.907  22.247  0.00  0.00    +0.000 A 
ATOM     30  C   UNL     1      -1.553  11.386  23.161  0.00  0.00    +0.000 A 
ENDBRANCH  19  28
ENDBRANCH  18  22
ENDBRANCH   1  18
TORSDOF 4
ENDMDL
MODEL 2
REMARK VINA RESULT:      -8.8      0.085      1.264
REMARK  Name = 
REMARK  4 active torsions:
REMARK  status: ('A' for Active; 'I' for Inactive)
REMARK    1  A    between atoms: C_5  and  N_6
REMARK    2  A    between atoms: C_9  and  C_10
REMARK    3  A    between atoms: C_10  and  N_11
REMARK    4  A    between atoms: C_18  and  C_19
REMARK                            x       y       z     vdW  Elec       q    Type
REMARK                         _______ _______ _______ _____ _____    ______ ____
ROOT
ATOM      1  N   UNL     1       2.066   7.930  19.524  0.00  0.00    +0.000 N 
ATOM      2  C   UNL     1       2.335   6.582  19.670  0.00  0.00    +0.000 A 
ATOM      3  C   UNL     1       1.601   5.833  20.740  0.00  0.00    +0.000 A 
ATOM      4  C   UNL     1       1.795   4.514  20.856  0.00  0.00    +0.000 A 
ATOM      5  C   UNL     1       2.713   3.882  19.998  0.00  0.00    +0.000 A 
ATOM      6  N   UNL     1       3.092   2.628  19.876  0.00  0.00    +0.000 NA
ATOM      7  N   UNL     1       4.037   2.578  18.876  0.00  0.00    +0.000 NA
ATOM      8  C   UNL     1       4.242   3.809  18.423  0.00  0.00    +0.000 A 
ATOM      9  N   UNL     1       3.382   4.667  19.092  0.00  0.00    +0.000 N 
ATOM     10  N   UNL     1       3.201   6.012  18.878  0.00  0.00    +0.000 NA
ATOM     11  H   UNL     1       1.266   8.275  20.043  0.00  0.00    +0.000 HD
ENDROOT
BRANCH   8  12
ATOM     12  C   UNL     1       5.180   4.196  17.369  0.00  0.00    +0.000 A 
ATOM     13  C   UNL     1       4.783   4.146  16.026  0.00  0.00    +0.000 A 
ATOM     14  C   UNL     1       5.650   4.553  15.007  0.00  0.00    +0.000 A 
ATOM     15  C   UNL     1       6.929   5.010  15.322  0.00  0.00    +0.000 A 
ATOM     16  C   UNL     1       7.347   5.039  16.649  0.00  0.00    +0.000 A 
ATOM     17  C   UNL     1       6.484   4.620  17.660  0.00  0.00    +0.000 A 
ENDBRANCH   8  12
BRANCH   1  18
ATOM     18  C   UNL     1       2.291   8.609  18.251  0.00  0.00    +0.000 C 
BRANCH  18  22
ATOM     19  N   UNL     1       0.325  10.789  19.948  0.00  0.00    +0.000 N 
ATOM     20  C   UNL     1       1.629  11.388  19.702  0.00  0.00    +0.000 C 
ATOM     21  C   UNL     1       1.844  11.105  18.222  0.00  0.00    +0.000 C 
ATOM     22  C   UNL     1       1.248   9.708  18.025  0.00  0.00    +0.000 C 
ATOM     23  C   UNL     1       0.097   9.654  19.048  0.00  0.00    +0.000 C 
BRANCH  19  28
ATOM     24  F   UNL     1      -3.450  12.765  23.496  0.00  0.00    +0.000 F 
ATOM     25  C   UNL     1      -2.541  12.285  22.639  0.00  0.00    +0.000 A 
ATOM     26  C   UNL     1      -1.532  11.458  23.101  0.00  0.00    +0.000 A 
ATOM     27  C   UNL     1      -0.586  10.955  22.199  0.00  0.00    +0.000 A 
ATOM     28  C   UNL     1      -0.615  11.268  20.828  0.00  0.00    +0.000 A 
ATOM     29  C   UNL     1      -1.660  12.113  20.407  0.00  0.00    +0.000 A 
ATOM     30  C   UNL     1      -2.615  12.618  21.298  0.00  0.00    +0.000 A 
ENDBRANCH  19  28
ENDBRANCH  18  22
ENDBRANCH   1  18
TORSDOF 4
ENDMDL
MODEL 3
REMARK VINA RESULT:      -8.8      4.361      8.827
REMARK  Name = 
REMARK  4 active torsions:
REMARK  status: ('A' for Active; 'I' for Inactive)
REMARK    1  A    between atoms: C_5  and  N_6
REMARK    2  A    between atoms: C_9  and  C_10
REMARK    3  A    between atoms: C_10  and  N_11
REMARK    4  A    between atoms: C_18  and  C_19
REMARK                            x       y       z     vdW  Elec       q    Type
REMARK                         _______ _______ _______ _____ _____    ______ ____
ROOT
ATOM      1  N   UNL     1       6.374   4.255  18.974  0.00  0.00    +0.000 N 
ATOM      2  C   UNL     1       5.072   4.030  19.378  0.00  0.00    +0.000 A 
ATOM      3  C   UNL     1       4.691   2.635  19.771  0.00  0.00    +0.000 A 
ATOM      4  C   UNL     1       3.454   2.407  20.228  0.00  0.00    +0.000 A 
ATOM      5  C   UNL     1       2.540   3.475  20.286  0.00  0.00    +0.000 A 
ATOM      6  N   UNL     1       1.291   3.550  20.691  0.00  0.00    +0.000 NA
ATOM      7  N   UNL     1       0.876   4.849  20.509  0.00  0.00    +0.000 NA
ATOM      8  C   UNL     1       1.870   5.541  19.967  0.00  0.00    +0.000 A 
ATOM      9  N   UNL     1       2.968   4.703  19.845  0.00  0.00    +0.000 N 
ATOM     10  N   UNL     1       4.230   5.027  19.411  0.00  0.00    +0.000 NA
ATOM     11  H   UNL     1       7.021   3.491  19.135  0.00  0.00    +0.000 HD
ENDROOT
BRANCH   8  12
ATOM     12  C   UNL     1       1.836   6.957  19.598  0.00  0.00    +0.000 A 
ATOM     13  C   UNL     1       2.222   7.354  18.310  0.00  0.00    +0.000 A 
ATOM     14  C   UNL     1       2.155   8.697  17.924  0.00  0.00    +0.000 A 
ATOM     15  C   UNL     1       1.705   9.660  18.827  0.00  0.00    +0.000 A 
ATOM     16  C   UNL     1       1.346   9.284  20.119  0.00  0.00    +0.000 A 
ATOM     17  C   UNL     1       1.427   7.946  20.502  0.00  0.00    +0.000 A 
ENDBRANCH   8  12
BRANCH   1  18
ATOM     18  C   UNL     1       6.978   5.580  19.083  0.00  0.00    +0.000 C 
BRANCH  18  22
ATOM     19  N   UNL     1       6.397   5.226  15.761  0.00  0.00    +0.000 N 
ATOM     20  C   UNL     1       5.555   6.283  16.299  0.00  0.00    +0.000 C 
ATOM     21  C   UNL     1       6.545   7.110  17.107  0.00  0.00    +0.000 C 
ATOM     22  C   UNL     1       7.482   6.065  17.719  0.00  0.00    +0.000 C 
ATOM     23  C   UNL     1       7.516   4.942  16.665  0.00  0.00    +0.000 C 
BRANCH  19  28
ATOM     24  F   UNL     1       5.760   2.790  10.820  0.00  0.00    +0.000 F 
ATOM     25  C   UNL     1       5.912   3.381  12.011  0.00  0.00    +0.000 A 
ATOM     26  C   UNL     1       7.102   4.019  12.313  0.00  0.00    +0.000 A 
ATOM     27  C   UNL     1       7.255   4.640  13.559  0.00  0.00    +0.000 A 
ATOM     28  C   UNL     1       6.238   4.633  14.531  0.00  0.00    +0.000 A 
ATOM     29  C   UNL     1       5.047   3.971  14.177  0.00  0.00    +0.000 A 
ATOM     30  C   UNL     1       4.880   3.352  12.932  0.00  0.00    +0.000 A 
ENDBRANCH  19  28
ENDBRANCH  18  22
ENDBRANCH   1  18
TORSDOF 4
ENDMDL
MODEL 4
REMARK VINA RESULT:      -8.7      2.131      2.665
REMARK  Name = 
REMARK  4 active torsions:
REMARK  status: ('A' for Active; 'I' for Inactive)
REMARK    1  A    between atoms: C_5  and  N_6
REMARK    2  A    between atoms: C_9  and  C_10
REMARK    3  A    between atoms: C_10  and  N_11
REMARK    4  A    between atoms: C_18  and  C_19
REMARK                            x       y       z     vdW  Elec       q    Type
REMARK                         _______ _______ _______ _____ _____    ______ ____
ROOT
ATOM      1  N   UNL     1       1.985   7.576  19.862  0.00  0.00    +0.000 N 
ATOM      2  C   UNL     1       2.263   6.223  19.904  0.00  0.00    +0.000 A 
ATOM      3  C   UNL     1       1.528   5.387  20.908  0.00  0.00    +0.000 A 
ATOM      4  C   UNL     1       1.732   4.064  20.921  0.00  0.00    +0.000 A 
ATOM      5  C   UNL     1       2.659   3.507  20.022  0.00  0.00    +0.000 A 
ATOM      6  N   UNL     1       3.047   2.270  19.804  0.00  0.00    +0.000 NA
ATOM      7  N   UNL     1       3.997   2.305  18.809  0.00  0.00    +0.000 NA
ATOM      8  C   UNL     1       4.195   3.569  18.455  0.00  0.00    +0.000 A 
ATOM      9  N   UNL     1       3.327   4.366  19.183  0.00  0.00    +0.000 N 
ATOM     10  N   UNL     1       3.137   5.722  19.075  0.00  0.00    +0.000 NA
ATOM     11  H   UNL     1       1.180   7.874  20.402  0.00  0.00    +0.000 HD
ENDROOT
BRANCH   8  12
ATOM     12  C   UNL     1       5.137   4.043  17.439  0.00  0.00    +0.000 A 
ATOM     13  C   UNL     1       6.401   4.512  17.823  0.00  0.00    +0.000 A 
ATOM     14  C   UNL     1       7.331   4.929  16.864  0.00  0.00    +0.000 A 
ATOM     15  C   UNL     1       7.002   4.885  15.509  0.00  0.00    +0.000 A 
ATOM     16  C   UNL     1       5.740   4.448  15.116  0.00  0.00    +0.000 A 
ATOM     17  C   UNL     1       4.813   4.047  16.076  0.00  0.00    +0.000 A 
ENDBRANCH   8  12
BRANCH   1  18
ATOM     18  C   UNL     1       2.212   8.354  18.647  0.00  0.00    +0.000 C 
BRANCH  18  22
ATOM     19  N   UNL     1      -0.726  10.046  18.595  0.00  0.00    +0.000 N 
ATOM     20  C   UNL     1      -0.459   9.562  19.941  0.00  0.00    +0.000 C 
ATOM     21  C   UNL     1       0.988   9.982  20.158  0.00  0.00    +0.000 C 
ATOM     22  C   UNL     1       1.641   9.769  18.789  0.00  0.00    +0.000 C 
ATOM     23  C   UNL     1       0.501  10.052  17.792  0.00  0.00    +0.000 C 
BRANCH  19  28
ATOM     24  F   UNL     1      -5.619  11.967  16.830  0.00  0.00    +0.000 F 
ATOM     25  C   UNL     1      -4.436  11.506  17.254  0.00  0.00    +0.000 A 
ATOM     26  C   UNL     1      -3.742  10.590  16.485  0.00  0.00    +0.000 A 
ATOM     27  C   UNL     1      -2.502  10.114  16.931  0.00  0.00    +0.000 A 
ATOM     28  C   UNL     1      -1.933  10.529  18.149  0.00  0.00    +0.000 A 
ATOM     29  C   UNL     1      -2.678  11.461  18.896  0.00  0.00    +0.000 A 
ATOM     30  C   UNL     1      -3.916  11.949  18.458  0.00  0.00    +0.000 A 
ENDBRANCH  19  28
ENDBRANCH  18  22
ENDBRANCH   1  18
TORSDOF 4
ENDMDL
MODEL 5
REMARK VINA RESULT:      -8.7      2.417      3.225
REMARK  Name = 
REMARK  4 active torsions:
REMARK  status: ('A' for Active; 'I' for Inactive)
REMARK    1  A    between atoms: C_5  and  N_6
REMARK    2  A    between atoms: C_9  and  C_10
REMARK    3  A    between atoms: C_10  and  N_11
REMARK    4  A    between atoms: C_18  and  C_19
REMARK                            x       y       z     vdW  Elec       q    Type
REMARK                         _______ _______ _______ _____ _____    ______ ____
ROOT
ATOM      1  N   UNL     1       1.414   6.995  21.008  0.00  0.00    +0.000 N 
ATOM      2  C   UNL     1       1.862   5.860  20.360  0.00  0.00    +0.000 A 
ATOM      3  C   UNL     1       0.982   4.648  20.379  0.00  0.00    +0.000 A 
ATOM      4  C   UNL     1       1.365   3.559  19.701  0.00  0.00    +0.000 A 
ATOM      5  C   UNL     1       2.600   3.574  19.028  0.00  0.00    +0.000 A 
ATOM      6  N   UNL     1       3.217   2.678  18.290  0.00  0.00    +0.000 NA
ATOM      7  N   UNL     1       4.415   3.224  17.892  0.00  0.00    +0.000 NA
ATOM      8  C   UNL     1       4.525   4.438  18.419  0.00  0.00    +0.000 A 
ATOM      9  N   UNL     1       3.362   4.713  19.122  0.00  0.00    +0.000 N 
ATOM     10  N   UNL     1       3.017   5.884  19.753  0.00  0.00    +0.000 NA
ATOM     11  H   UNL     1       0.445   6.975  21.307  0.00  0.00    +0.000 HD
ENDROOT
BRANCH   8  12
ATOM     12  C   UNL     1       5.656   5.351  18.255  0.00  0.00    +0.000 A 
ATOM     13  C   UNL     1       5.618   6.339  17.261  0.00  0.00    +0.000 A 
ATOM     14  C   UNL     1       6.670   7.250  17.116  0.00  0.00    +0.000 A 
ATOM     15  C   UNL     1       7.776   7.178  17.963  0.00  0.00    +0.000 A 
ATOM     16  C   UNL     1       7.839   6.184  18.936  0.00  0.00    +0.000 A 
ATOM     17  C   UNL     1       6.794   5.271  19.067  0.00  0.00    +0.000 A 
ENDBRANCH   8  12
BRANCH   1  18
ATOM     18  C   UNL     1       1.893   8.321  20.625  0.00  0.00    +0.000 C 
BRANCH  18  22
ATOM     19  N   UNL     1       1.312  11.323  19.160  0.00  0.00    +0.000 N 
ATOM     20  C   UNL     1       1.987  10.438  18.223  0.00  0.00    +0.000 C 
ATOM     21  C   UNL     1       1.175   9.157  18.341  0.00  0.00    +0.000 C 
ATOM     22  C   UNL     1       0.825   9.080  19.830  0.00  0.00    +0.000 C 
ATOM     23  C   UNL     1       0.707  10.556  20.254  0.00  0.00    +0.000 C 
BRANCH  19  28
ATOM     24  F   UNL     1       0.744  16.809  18.583  0.00  0.00    +0.000 F 
ATOM     25  C   UNL     1       0.881  15.484  18.719  0.00  0.00    +0.000 A 
ATOM     26  C   UNL     1      -0.230  14.704  18.985  0.00  0.00    +0.000 A 
ATOM     27  C   UNL     1      -0.083  13.318  19.121  0.00  0.00    +0.000 A 
ATOM     28  C   UNL     1       1.166  12.681  19.007  0.00  0.00    +0.000 A 
ATOM     29  C   UNL     1       2.266  13.518  18.736  0.00  0.00    +0.000 A 
ATOM     30  C   UNL     1       2.131  14.904  18.592  0.00  0.00    +0.000 A 
ENDBRANCH  19  28
ENDBRANCH  18  22
ENDBRANCH   1  18
TORSDOF 4
ENDMDL
MODEL 6
REMARK VINA RESULT:      -8.7      2.156      2.872
REMARK  Name = 
REMARK  4 active torsions:
REMARK  status: ('A' for Active; 'I' for Inactive)
REMARK    1  A    between atoms: C_5  and  N_6
REMARK    2  A    between atoms: C_9  and  C_10
REMARK    3  A    between atoms: C_10  and  N_11
REMARK    4  A    between atoms: C_18  and  C_19
REMARK                            x       y       z     vdW  Elec       q    Type
REMARK                         _______ _______ _______ _____ _____    ______ ____
ROOT
ATOM      1  N   UNL     1       1.982   7.646  19.859  0.00  0.00    +0.000 N 
ATOM      2  C   UNL     1       2.281   6.299  19.924  0.00  0.00    +0.000 A 
ATOM      3  C   UNL     1       1.569   5.471  20.949  0.00  0.00    +0.000 A 
ATOM      4  C   UNL     1       1.793   4.152  20.985  0.00  0.00    +0.000 A 
ATOM      5  C   UNL     1       2.720   3.592  20.087  0.00  0.00    +0.000 A 
ATOM      6  N   UNL     1       3.125   2.357  19.888  0.00  0.00    +0.000 NA
ATOM      7  N   UNL     1       4.065   2.388  18.884  0.00  0.00    +0.000 NA
ATOM      8  C   UNL     1       4.241   3.648  18.504  0.00  0.00    +0.000 A 
ATOM      9  N   UNL     1       3.367   4.445  19.227  0.00  0.00    +0.000 N 
ATOM     10  N   UNL     1       3.155   5.796  19.095  0.00  0.00    +0.000 NA
ATOM     11  H   UNL     1       1.178   7.943  20.401  0.00  0.00    +0.000 HD
ENDROOT
BRANCH   8  12
ATOM     12  C   UNL     1       5.165   4.118  17.471  0.00  0.00    +0.000 A 
ATOM     13  C   UNL     1       4.793   4.058  16.121  0.00  0.00    +0.000 A 
ATOM     14  C   UNL     1       5.644   4.543  15.122  0.00  0.00    +0.000 A 
ATOM     15  C   UNL     1       6.881   5.088  15.465  0.00  0.00    +0.000 A 
ATOM     16  C   UNL     1       7.275   5.127  16.799  0.00  0.00    +0.000 A 
ATOM     17  C   UNL     1       6.429   4.631  17.790  0.00  0.00    +0.000 A 
ENDBRANCH   8  12
BRANCH   1  18
ATOM     18  C   UNL     1       2.186   8.405  18.628  0.00  0.00    +0.000 C 
BRANCH  18  22
ATOM     19  N   UNL     1      -0.764  10.076  18.570  0.00  0.00    +0.000 N 
ATOM     20  C   UNL     1      -0.486   9.612  19.921  0.00  0.00    +0.000 C 
ATOM     21  C   UNL     1       0.959  10.045  20.124  0.00  0.00    +0.000 C 
ATOM     22  C   UNL     1       1.605   9.818  18.754  0.00  0.00    +0.000 C 
ATOM     23  C   UNL     1       0.458  10.080  17.760  0.00  0.00    +0.000 C 
BRANCH  19  28
ATOM     24  F   UNL     1      -5.637  11.990  16.743  0.00  0.00    +0.000 F 
ATOM     25  C   UNL     1      -4.463  11.525  17.186  0.00  0.00    +0.000 A 
ATOM     26  C   UNL     1      -3.965  11.964  18.400  0.00  0.00    +0.000 A 
ATOM     27  C   UNL     1      -2.738  11.472  18.861  0.00  0.00    +0.000 A 
ATOM     28  C   UNL     1      -1.978  10.544  18.126  0.00  0.00    +0.000 A 
ATOM     29  C   UNL     1      -2.526  10.128  16.897  0.00  0.00    +0.000 A 
ATOM     30  C   UNL     1      -3.755  10.609  16.428  0.00  0.00    +0.000 A 
ENDBRANCH  19  28
ENDBRANCH  18  22
ENDBRANCH   1  18
TORSDOF 4
ENDMDL
MODEL 7
REMARK VINA RESULT:      -8.6      2.193      2.857
REMARK  Name = 
REMARK  4 active torsions:
REMARK  status: ('A' for Active; 'I' for Inactive)
REMARK    1  A    between atoms: C_5  and  N_6
REMARK    2  A    between atoms: C_9  and  C_10
REMARK    3  A    between atoms: C_10  and  N_11
REMARK    4  A    between atoms: C_18  and  C_19
REMARK                            x       y       z     vdW  Elec       q    Type
REMARK                         _______ _______ _______ _____ _____    ______ ____
ROOT
ATOM      1  N   UNL     1       1.759   6.694  20.733  0.00  0.00    +0.000 N 
ATOM      2  C   UNL     1       1.933   5.432  20.199  0.00  0.00    +0.000 A 
ATOM      3  C   UNL     1       0.976   4.357  20.615  0.00  0.00    +0.000 A 
ATOM      4  C   UNL     1       1.084   3.144  20.060  0.00  0.00    +0.000 A 
ATOM      5  C   UNL     1       2.119   2.906  19.137  0.00  0.00    +0.000 A 
ATOM      6  N   UNL     1       2.456   1.842  18.440  0.00  0.00    +0.000 NA
ATOM      7  N   UNL     1       3.570   2.170  17.702  0.00  0.00    +0.000 NA
ATOM      8  C   UNL     1       3.913   3.421  17.982  0.00  0.00    +0.000 A 
ATOM      9  N   UNL     1       2.983   3.939  18.869  0.00  0.00    +0.000 N 
ATOM     10  N   UNL     1       2.907   5.221  19.357  0.00  0.00    +0.000 NA
ATOM     11  H   UNL     1       0.892   6.841  21.238  0.00  0.00    +0.000 HD
ENDROOT
BRANCH   8  12
ATOM     12  C   UNL     1       5.052   4.150  17.421  0.00  0.00    +0.000 A 
ATOM     13  C   UNL     1       5.059   4.498  16.063  0.00  0.00    +0.000 A 
ATOM     14  C   UNL     1       6.117   5.232  15.518  0.00  0.00    +0.000 A 
ATOM     15  C   UNL     1       7.184   5.623  16.327  0.00  0.00    +0.000 A 
ATOM     16  C   UNL     1       7.203   5.260  17.671  0.00  0.00    +0.000 A 
ATOM     17  C   UNL     1       6.153   4.516  18.206  0.00  0.00    +0.000 A 
ENDBRANCH   8  12
BRANCH   1  18
ATOM     18  C   UNL     1       2.253   7.880  20.038  0.00  0.00    +0.000 C 
BRANCH  18  22
ATOM     19  N   UNL     1       1.363  10.953  18.913  0.00  0.00    +0.000 N 
ATOM     20  C   UNL     1       2.122  10.252  17.888  0.00  0.00    +0.000 C 
ATOM     21  C   UNL     1       1.446   8.889  17.855  0.00  0.00    +0.000 C 
ATOM     22  C   UNL     1       1.111   8.611  19.323  0.00  0.00    +0.000 C 
ATOM     23  C   UNL     1       0.843  10.011  19.909  0.00  0.00    +0.000 C 
BRANCH  19  28
ATOM     24  F   UNL     1       0.238  16.382  18.945  0.00  0.00    +0.000 F 
ATOM     25  C   UNL     1       0.509  15.072  18.933  0.00  0.00    +0.000 A 
ATOM     26  C   UNL     1      -0.502  14.160  19.179  0.00  0.00    +0.000 A 
ATOM     27  C   UNL     1      -0.215  12.790  19.162  0.00  0.00    +0.000 A 
ATOM     28  C   UNL     1       1.079  12.298  18.910  0.00  0.00    +0.000 A 
ATOM     29  C   UNL     1       2.073  13.264  18.666  0.00  0.00    +0.000 A 
ATOM     30  C   UNL     1       1.797  14.637  18.675  0.00  0.00    +0.000 A 
ENDBRANCH  19  28
ENDBRANCH  18  22
ENDBRANCH   1  18
TORSDOF 4
ENDMDL
MODEL 8
REMARK VINA RESULT:      -8.6      1.017      1.198
REMARK  Name = 
REMARK  4 active torsions:
REMARK  status: ('A' for Active; 'I' for Inactive)
REMARK    1  A    between atoms: C_5  and  N_6
REMARK    2  A    between atoms: C_9  and  C_10
REMARK    3  A    between atoms: C_10  and  N_11
REMARK    4  A    between atoms: C_18  and  C_19
REMARK                            x       y       z     vdW  Elec       q    Type
REMARK                         _______ _______ _______ _____ _____    ______ ____
ROOT
ATOM      1  N   UNL     1       1.973   7.262  20.111  0.00  0.00    +0.000 N 
ATOM      2  C   UNL     1       2.191   5.910  19.929  0.00  0.00    +0.000 A 
ATOM      3  C   UNL     1       1.401   4.953  20.769  0.00  0.00    +0.000 A 
ATOM      4  C   UNL     1       1.547   3.638  20.564  0.00  0.00    +0.000 A 
ATOM      5  C   UNL     1       2.467   3.197  19.596  0.00  0.00    +0.000 A 
ATOM      6  N   UNL     1       2.807   1.997  19.179  0.00  0.00    +0.000 NA
ATOM      7  N   UNL     1       3.777   2.154  18.216  0.00  0.00    +0.000 NA
ATOM      8  C   UNL     1       4.037   3.448  18.081  0.00  0.00    +0.000 A 
ATOM      9  N   UNL     1       3.189   4.152  18.922  0.00  0.00    +0.000 N 
ATOM     10  N   UNL     1       3.060   5.515  19.039  0.00  0.00    +0.000 NA
ATOM     11  H   UNL     1       1.170   7.503  20.682  0.00  0.00    +0.000 HD
ENDROOT
BRANCH   8  12
ATOM     12  C   UNL     1       5.018   4.042  17.172  0.00  0.00    +0.000 A 
ATOM     13  C   UNL     1       6.248   4.495  17.670  0.00  0.00    +0.000 A 
ATOM     14  C   UNL     1       7.216   5.026  16.810  0.00  0.00    +0.000 A 
ATOM     15  C   UNL     1       6.962   5.112  15.442  0.00  0.00    +0.000 A 
ATOM     16  C   UNL     1       5.734   4.691  14.938  0.00  0.00    +0.000 A 
ATOM     17  C   UNL     1       4.767   4.176  15.800  0.00  0.00    +0.000 A 
ENDBRANCH   8  12
BRANCH   1  18
ATOM     18  C   UNL     1       2.258   8.220  19.047  0.00  0.00    +0.000 C 
BRANCH  18  22
ATOM     19  N   UNL     1       0.680  10.901  20.396  0.00  0.00    +0.000 N 
ATOM     20  C   UNL     1       1.742  11.349  19.508  0.00  0.00    +0.000 C 
ATOM     21  C   UNL     1       1.501  10.510  18.261  0.00  0.00    +0.000 C 
ATOM     22  C   UNL     1       1.062   9.151  18.813  0.00  0.00    +0.000 C 
ATOM     23  C   UNL     1       0.323   9.507  20.117  0.00  0.00    +0.000 C 
BRANCH  19  28
ATOM     24  F   UNL     1      -1.937  14.092  24.100  0.00  0.00    +0.000 F 
ATOM     25  C   UNL     1      -1.308  13.323  23.203  0.00  0.00    +0.000 A 
ATOM     26  C   UNL     1      -1.568  11.965  23.163  0.00  0.00    +0.000 A 
ATOM     27  C   UNL     1      -0.911  11.165  22.220  0.00  0.00    +0.000 A 
ATOM     28  C   UNL     1       0.021  11.691  21.308  0.00  0.00    +0.000 A 
ATOM     29  C   UNL     1       0.252  13.078  21.389  0.00  0.00    +0.000 A 
ATOM     30  C   UNL     1      -0.403  13.889  22.323  0.00  0.00    +0.000 A 
ENDBRANCH  19  28
ENDBRANCH  18  22
ENDBRANCH   1  18
TORSDOF 4
ENDMDL
MODEL 9
REMARK VINA RESULT:      -8.6      1.526      1.790
REMARK  Name = 
REMARK  4 active torsions:
REMARK  status: ('A' for Active; 'I' for Inactive)
REMARK    1  A    between atoms: C_5  and  N_6
REMARK    2  A    between atoms: C_9  and  C_10
REMARK    3  A    between atoms: C_10  and  N_11
REMARK    4  A    between atoms: C_18  and  C_19
REMARK                            x       y       z     vdW  Elec       q    Type
REMARK                         _______ _______ _______ _____ _____    ______ ____
ROOT
ATOM      1  N   UNL     1       1.368   7.007  21.060  0.00  0.00    +0.000 N 
ATOM      2  C   UNL     1       1.862   5.872  20.446  0.00  0.00    +0.000 A 
ATOM      3  C   UNL     1       1.036   4.623  20.514  0.00  0.00    +0.000 A 
ATOM      4  C   UNL     1       1.462   3.529  19.871  0.00  0.00    +0.000 A 
ATOM      5  C   UNL     1       2.691   3.576  19.187  0.00  0.00    +0.000 A 
ATOM      6  N   UNL     1       3.342   2.683  18.474  0.00  0.00    +0.000 NA
ATOM      7  N   UNL     1       4.512   3.268  18.048  0.00  0.00    +0.000 NA
ATOM      8  C   UNL     1       4.571   4.502  18.533  0.00  0.00    +0.000 A 
ATOM      9  N   UNL     1       3.403   4.750  19.236  0.00  0.00    +0.000 N 
ATOM     10  N   UNL     1       3.010   5.925  19.830  0.00  0.00    +0.000 NA
ATOM     11  H   UNL     1       0.403   6.954  21.367  0.00  0.00    +0.000 HD
ENDROOT
BRANCH   8  12
ATOM     12  C   UNL     1       5.660   5.459  18.328  0.00  0.00    +0.000 A 
ATOM     13  C   UNL     1       6.818   5.379  19.114  0.00  0.00    +0.000 A 
ATOM     14  C   UNL     1       7.887   6.256  18.904  0.00  0.00    +0.000 A 
ATOM     15  C   UNL     1       7.806   7.228  17.907  0.00  0.00    +0.000 A 
ATOM     16  C   UNL     1       6.651   7.336  17.138  0.00  0.00    +0.000 A 
ATOM     17  C   UNL     1       5.583   6.468  17.360  0.00  0.00    +0.000 A 
ENDBRANCH   8  12
BRANCH   1  18
ATOM     18  C   UNL     1       1.785   8.338  20.628  0.00  0.00    +0.000 C 
BRANCH  18  22
ATOM     19  N   UNL     1      -0.246  11.010  21.114  0.00  0.00    +0.000 N 
ATOM     20  C   UNL     1       0.966  11.429  20.426  0.00  0.00    +0.000 C 
ATOM     21  C   UNL     1       1.086  10.394  19.317  0.00  0.00    +0.000 C 
ATOM     22  C   UNL     1       0.621   9.093  19.978  0.00  0.00    +0.000 C 
ATOM     23  C   UNL     1      -0.431   9.559  21.002  0.00  0.00    +0.000 C 
BRANCH  19  28
ATOM     24  F   UNL     1      -3.948  14.382  23.495  0.00  0.00    +0.000 F 
ATOM     25  C   UNL     1      -3.052  13.570  22.922  0.00  0.00    +0.000 A 
ATOM     26  C   UNL     1      -2.464  13.933  21.724  0.00  0.00    +0.000 A 
ATOM     27  C   UNL     1      -1.523  13.082  21.131  0.00  0.00    +0.000 A 
ATOM     28  C   UNL     1      -1.155  11.853  21.707  0.00  0.00    +0.000 A 
ATOM     29  C   UNL     1      -1.781  11.528  22.926  0.00  0.00    +0.000 A 
ATOM     30  C   UNL     1      -2.718  12.373  23.531  0.00  0.00    +0.000 A 
ENDBRANCH  19  28
ENDBRANCH  18  22
ENDBRANCH   1  18
TORSDOF 4
ENDMDL
