MODEL 1
REMARK VINA RESULT:      -7.9      0.000      0.000
REMARK  Name = 
REMARK  4 active torsions:
REMARK  status: ('A' for Active; 'I' for Inactive)
REMARK    1  A    between atoms: C_1  and  N_2
REMARK    2  A    between atoms: C_8  and  N_9
REMARK    3  A    between atoms: N_9  and  C_10
REMARK    4  A    between atoms: N_18  and  C_19
REMARK                            x       y       z     vdW  Elec       q    Type
REMARK                         _______ _______ _______ _____ _____    ______ ____
ROOT
ATOM      1  N   UNL     1       2.834   6.342  19.829  0.00  0.00    +0.000 N 
ATOM      2  H   UNL     1       2.819   5.870  20.730  0.00  0.00    +0.000 HD
ENDROOT
BRANCH   1  10
ATOM      3  C   UNL     1      -0.622  11.881  18.784  0.00  0.00    +0.000 C 
ATOM      4  N   UNL     1      -0.288  10.954  19.831  0.00  0.00    +0.000 N 
ATOM      5  C   UNL     1      -0.780  11.001  21.135  0.00  0.00    +0.000 C 
ATOM      6  O   UNL     1      -1.555  11.823  21.600  0.00  0.00    +0.000 OA
ATOM      7  C   UNL     1      -0.178   9.812  21.895  0.00  0.00    +0.000 C 
ATOM      8  C   UNL     1       0.667   9.151  20.849  0.00  0.00    +0.000 A 
ATOM      9  C   UNL     1       1.443   8.004  20.929  0.00  0.00    +0.000 A 
ATOM     10  C   UNL     1       2.116   7.554  19.778  0.00  0.00    +0.000 A 
ATOM     11  C   UNL     1       2.031   8.333  18.605  0.00  0.00    +0.000 A 
ATOM     12  C   UNL     1       1.244   9.483  18.526  0.00  0.00    +0.000 A 
ATOM     13  C   UNL     1       0.566   9.866  19.658  0.00  0.00    +0.000 A 
ENDBRANCH   1  10
BRANCH   1  14
ATOM     14  C   UNL     1       3.068   5.420  18.790  0.00  0.00    +0.000 A 
ATOM     15  N   UNL     1       2.268   4.338  18.583  0.00  0.00    +0.000 NA
ATOM     16  C   UNL     1       2.585   3.439  17.631  0.00  0.00    +0.000 A 
ATOM     17  N   UNL     1       3.644   3.453  16.809  0.00  0.00    +0.000 NA
ATOM     18  C   UNL     1       4.406   4.540  17.024  0.00  0.00    +0.000 A 
ATOM     19  C   UNL     1       4.191   5.550  17.950  0.00  0.00    +0.000 A 
ATOM     20  N   UNL     1       5.191   6.504  17.893  0.00  0.00    +0.000 NA
ATOM     21  C   UNL     1       6.002   6.075  16.944  0.00  0.00    +0.000 A 
ATOM     22  N   UNL     1       5.575   4.889  16.411  0.00  0.00    +0.000 N 
BRANCH  22  23
ATOM     23  C   UNL     1       6.240   4.095  15.404  0.00  0.00    +0.000 C 
ATOM     24  C   UNL     1       6.941   4.731  14.214  0.00  0.00    +0.000 C 
ATOM     25  C   UNL     1       5.690   3.954  13.997  0.00  0.00    +0.000 C 
ENDBRANCH  22  23
ENDBRANCH   1  14
TORSDOF 3
ENDMDL
MODEL 2
REMARK VINA RESULT:      -7.7      1.801      3.333
REMARK  Name = 
REMARK  4 active torsions:
REMARK  status: ('A' for Active; 'I' for Inactive)
REMARK    1  A    between atoms: C_1  and  N_2
REMARK    2  A    between atoms: C_8  and  N_9
REMARK    3  A    between atoms: N_9  and  C_10
REMARK    4  A    between atoms: N_18  and  C_19
REMARK                            x       y       z     vdW  Elec       q    Type
REMARK                         _______ _______ _______ _____ _____    ______ ____
ROOT
ATOM      1  N   UNL     1       4.036   4.353  18.421  0.00  0.00    +0.000 N 
ATOM      2  H   UNL     1       3.505   3.545  18.104  0.00  0.00    +0.000 HD
ENDROOT
BRANCH   1  10
ATOM      3  C   UNL     1       0.584   9.266  21.188  0.00  0.00    +0.000 C 
ATOM      4  N   UNL     1       1.240   8.917  19.956  0.00  0.00    +0.000 N 
ATOM      5  C   UNL     1       1.371   9.755  18.848  0.00  0.00    +0.000 C 
ATOM      6  O   UNL     1       0.952  10.897  18.736  0.00  0.00    +0.000 OA
ATOM      7  C   UNL     1       2.155   8.982  17.781  0.00  0.00    +0.000 C 
ATOM      8  C   UNL     1       2.417   7.669  18.455  0.00  0.00    +0.000 A 
ATOM      9  C   UNL     1       3.110   6.558  17.995  0.00  0.00    +0.000 A 
ATOM     10  C   UNL     1       3.260   5.448  18.847  0.00  0.00    +0.000 A 
ATOM     11  C   UNL     1       2.632   5.484  20.111  0.00  0.00    +0.000 A 
ATOM     12  C   UNL     1       1.941   6.606  20.571  0.00  0.00    +0.000 A 
ATOM     13  C   UNL     1       1.855   7.688  19.728  0.00  0.00    +0.000 A 
ENDBRANCH   1  10
BRANCH   1  14
ATOM     14  C   UNL     1       5.317   4.366  17.834  0.00  0.00    +0.000 A 
ATOM     15  N   UNL     1       6.453   4.537  18.565  0.00  0.00    +0.000 NA
ATOM     16  C   UNL     1       7.645   4.629  17.946  0.00  0.00    +0.000 A 
ATOM     17  N   UNL     1       7.892   4.580  16.629  0.00  0.00    +0.000 NA
ATOM     18  C   UNL     1       6.757   4.394  15.933  0.00  0.00    +0.000 A 
ATOM     19  C   UNL     1       5.471   4.263  16.437  0.00  0.00    +0.000 A 
ATOM     20  N   UNL     1       4.548   4.095  15.420  0.00  0.00    +0.000 NA
ATOM     21  C   UNL     1       5.268   4.125  14.314  0.00  0.00    +0.000 A 
ATOM     22  N   UNL     1       6.595   4.322  14.579  0.00  0.00    +0.000 N 
BRANCH  22  23
ATOM     23  C   UNL     1       7.664   4.474  13.619  0.00  0.00    +0.000 C 
ATOM     24  C   UNL     1       7.866   5.764  12.840  0.00  0.00    +0.000 C 
ATOM     25  C   UNL     1       7.400   4.544  12.125  0.00  0.00    +0.000 C 
ENDBRANCH  22  23
ENDBRANCH   1  14
TORSDOF 3
ENDMDL
MODEL 3
REMARK VINA RESULT:      -7.6      0.859      1.667
REMARK  Name = 
REMARK  4 active torsions:
REMARK  status: ('A' for Active; 'I' for Inactive)
REMARK    1  A    between atoms: C_1  and  N_2
REMARK    2  A    between atoms: C_8  and  N_9
REMARK    3  A    between atoms: N_9  and  C_10
REMARK    4  A    between atoms: N_18  and  C_19
REMARK                            x       y       z     vdW  Elec       q    Type
REMARK                         _______ _______ _______ _____ _____    ______ ____
ROOT
ATOM      1  N   UNL     1       2.888   6.144  19.937  0.00  0.00    +0.000 N 
ATOM      2  H   UNL     1       3.000   5.641  20.815  0.00  0.00    +0.000 HD
ENDROOT
BRANCH   1  10
ATOM      3  C   UNL     1      -0.860  11.470  21.080  0.00  0.00    +0.000 C 
ATOM      4  N   UNL     1      -0.033  10.884  20.060  0.00  0.00    +0.000 N 
ATOM      5  C   UNL     1       0.275  11.476  18.835  0.00  0.00    +0.000 C 
ATOM      6  O   UNL     1      -0.104  12.564  18.427  0.00  0.00    +0.000 OA
ATOM      7  C   UNL     1       1.197  10.511  18.079  0.00  0.00    +0.000 C 
ATOM      8  C   UNL     1       1.335   9.371  19.042  0.00  0.00    +0.000 A 
ATOM      9  C   UNL     1       2.070   8.200  18.931  0.00  0.00    +0.000 A 
ATOM     10  C   UNL     1       2.074   7.293  20.007  0.00  0.00    +0.000 A 
ATOM     11  C   UNL     1       1.265   7.579  21.127  0.00  0.00    +0.000 A 
ATOM     12  C   UNL     1       0.531   8.761  21.238  0.00  0.00    +0.000 A 
ATOM     13  C   UNL     1       0.589   9.644  20.185  0.00  0.00    +0.000 A 
ENDBRANCH   1  10
BRANCH   1  14
ATOM     14  C   UNL     1       3.090   5.282  18.842  0.00  0.00    +0.000 A 
ATOM     15  N   UNL     1       2.256   4.241  18.570  0.00  0.00    +0.000 NA
ATOM     16  C   UNL     1       2.543   3.394  17.562  0.00  0.00    +0.000 A 
ATOM     17  N   UNL     1       3.601   3.425  16.739  0.00  0.00    +0.000 NA
ATOM     18  C   UNL     1       4.398   4.471  17.020  0.00  0.00    +0.000 A 
ATOM     19  C   UNL     1       4.217   5.427  18.009  0.00  0.00    +0.000 A 
ATOM     20  N   UNL     1       5.247   6.351  18.008  0.00  0.00    +0.000 NA
ATOM     21  C   UNL     1       6.043   5.956  17.032  0.00  0.00    +0.000 A 
ATOM     22  N   UNL     1       5.578   4.820  16.427  0.00  0.00    +0.000 N 
BRANCH  22  23
ATOM     23  C   UNL     1       6.216   4.070  15.371  0.00  0.00    +0.000 C 
ATOM     24  C   UNL     1       6.956   4.755  14.234  0.00  0.00    +0.000 C 
ATOM     25  C   UNL     1       5.673   4.053  13.954  0.00  0.00    +0.000 C 
ENDBRANCH  22  23
ENDBRANCH   1  14
TORSDOF 3
ENDMDL
MODEL 4
REMARK VINA RESULT:      -7.6      1.580      2.725
REMARK  Name = 
REMARK  4 active torsions:
REMARK  status: ('A' for Active; 'I' for Inactive)
REMARK    1  A    between atoms: C_1  and  N_2
REMARK    2  A    between atoms: C_8  and  N_9
REMARK    3  A    between atoms: N_9  and  C_10
REMARK    4  A    between atoms: N_18  and  C_19
REMARK                            x       y       z     vdW  Elec       q    Type
REMARK                         _______ _______ _______ _____ _____    ______ ____
ROOT
ATOM      1  N   UNL     1       4.149   4.909  18.586  0.00  0.00    +0.000 N 
ATOM      2  H   UNL     1       3.575   4.071  18.523  0.00  0.00    +0.000 HD
ENDROOT
BRANCH   1  10
ATOM      3  C   UNL     1       0.726  10.565  18.550  0.00  0.00    +0.000 C 
ATOM      4  N   UNL     1       1.032   9.451  19.406  0.00  0.00    +0.000 N 
ATOM      5  C   UNL     1       0.506   9.246  20.682  0.00  0.00    +0.000 C 
ATOM      6  O   UNL     1      -0.279   9.967  21.278  0.00  0.00    +0.000 OA
ATOM      7  C   UNL     1       1.088   7.929  21.211  0.00  0.00    +0.000 C 
ATOM      8  C   UNL     1       1.958   7.479  20.077  0.00  0.00    +0.000 A 
ATOM      9  C   UNL     1       2.732   6.333  19.953  0.00  0.00    +0.000 A 
ATOM     10  C   UNL     1       3.433   6.111  18.753  0.00  0.00    +0.000 A 
ATOM     11  C   UNL     1       3.379   7.104  17.752  0.00  0.00    +0.000 A 
ATOM     12  C   UNL     1       2.595   8.252  17.878  0.00  0.00    +0.000 A 
ATOM     13  C   UNL     1       1.889   8.412  19.046  0.00  0.00    +0.000 A 
ENDBRANCH   1  10
BRANCH   1  14
ATOM     14  C   UNL     1       5.388   4.711  17.946  0.00  0.00    +0.000 A 
ATOM     15  N   UNL     1       6.570   4.743  18.620  0.00  0.00    +0.000 NA
ATOM     16  C   UNL     1       7.732   4.636  17.947  0.00  0.00    +0.000 A 
ATOM     17  N   UNL     1       7.906   4.500  16.624  0.00  0.00    +0.000 NA
ATOM     18  C   UNL     1       6.723   4.455  15.987  0.00  0.00    +0.000 A 
ATOM     19  C   UNL     1       5.457   4.533  16.550  0.00  0.00    +0.000 A 
ATOM     20  N   UNL     1       4.472   4.462  15.582  0.00  0.00    +0.000 NA
ATOM     21  C   UNL     1       5.134   4.343  14.446  0.00  0.00    +0.000 A 
ATOM     22  N   UNL     1       6.487   4.355  14.645  0.00  0.00    +0.000 N 
BRANCH  22  23
ATOM     23  C   UNL     1       7.518   4.311  13.634  0.00  0.00    +0.000 C 
ATOM     24  C   UNL     1       7.781   5.485  12.704  0.00  0.00    +0.000 C 
ATOM     25  C   UNL     1       7.192   4.233  12.154  0.00  0.00    +0.000 C 
ENDBRANCH  22  23
ENDBRANCH   1  14
TORSDOF 3
ENDMDL
MODEL 5
REMARK VINA RESULT:      -7.6      1.103      1.868
REMARK  Name = 
REMARK  4 active torsions:
REMARK  status: ('A' for Active; 'I' for Inactive)
REMARK    1  A    between atoms: C_1  and  N_2
REMARK    2  A    between atoms: C_8  and  N_9
REMARK    3  A    between atoms: N_9  and  C_10
REMARK    4  A    between atoms: N_18  and  C_19
REMARK                            x       y       z     vdW  Elec       q    Type
REMARK                         _______ _______ _______ _____ _____    ______ ____
ROOT
ATOM      1  N   UNL     1       3.293   5.698  19.822  0.00  0.00    +0.000 N 
ATOM      2  H   UNL     1       2.724   4.868  19.971  0.00  0.00    +0.000 HD
ENDROOT
BRANCH   1  10
ATOM      3  C   UNL     1      -0.141  11.230  18.676  0.00  0.00    +0.000 C 
ATOM      4  N   UNL     1       0.171  10.309  19.735  0.00  0.00    +0.000 N 
ATOM      5  C   UNL     1      -0.350  10.361  21.028  0.00  0.00    +0.000 C 
ATOM      6  O   UNL     1      -1.135  11.185  21.471  0.00  0.00    +0.000 OA
ATOM      7  C   UNL     1       0.236   9.176  21.806  0.00  0.00    +0.000 C 
ATOM      8  C   UNL     1       1.103   8.510  20.781  0.00  0.00    +0.000 A 
ATOM      9  C   UNL     1       1.879   7.364  20.884  0.00  0.00    +0.000 A 
ATOM     10  C   UNL     1       2.576   6.909  19.749  0.00  0.00    +0.000 A 
ATOM     11  C   UNL     1       2.516   7.682  18.571  0.00  0.00    +0.000 A 
ATOM     12  C   UNL     1       1.731   8.832  18.470  0.00  0.00    +0.000 A 
ATOM     13  C   UNL     1       1.028   9.219  19.586  0.00  0.00    +0.000 A 
ENDBRANCH   1  10
BRANCH   1  14
ATOM     14  C   UNL     1       4.505   5.361  19.187  0.00  0.00    +0.000 A 
ATOM     15  N   UNL     1       5.718   5.634  19.742  0.00  0.00    +0.000 NA
ATOM     16  C   UNL     1       6.847   5.370  19.055  0.00  0.00    +0.000 A 
ATOM     17  N   UNL     1       6.956   4.851  17.823  0.00  0.00    +0.000 NA
ATOM     18  C   UNL     1       5.745   4.577  17.308  0.00  0.00    +0.000 A 
ATOM     19  C   UNL     1       4.509   4.777  17.906  0.00  0.00    +0.000 A 
ATOM     20  N   UNL     1       3.479   4.385  17.070  0.00  0.00    +0.000 NA
ATOM     21  C   UNL     1       4.084   3.955  15.979  0.00  0.00    +0.000 A 
ATOM     22  N   UNL     1       5.444   4.073  16.075  0.00  0.00    +0.000 N 
BRANCH  22  23
ATOM     23  C   UNL     1       6.421   3.765  15.056  0.00  0.00    +0.000 C 
ATOM     24  C   UNL     1       6.978   4.833  14.129  0.00  0.00    +0.000 C 
ATOM     25  C   UNL     1       6.076   3.784  13.578  0.00  0.00    +0.000 C 
ENDBRANCH  22  23
ENDBRANCH   1  14
TORSDOF 3
ENDMDL
MODEL 6
REMARK VINA RESULT:      -7.5      3.059      8.717
REMARK  Name = 
REMARK  4 active torsions:
REMARK  status: ('A' for Active; 'I' for Inactive)
REMARK    1  A    between atoms: C_1  and  N_2
REMARK    2  A    between atoms: C_8  and  N_9
REMARK    3  A    between atoms: N_9  and  C_10
REMARK    4  A    between atoms: N_18  and  C_19
REMARK                            x       y       z     vdW  Elec       q    Type
REMARK                         _______ _______ _______ _____ _____    ______ ____
ROOT
ATOM      1  N   UNL     1       1.791   7.895  20.801  0.00  0.00    +0.000 N 
ATOM      2  H   UNL     1       2.412   8.134  21.571  0.00  0.00    +0.000 HD
ENDROOT
BRANCH   1  10
ATOM      3  C   UNL     1       4.503   3.557  16.612  0.00  0.00    +0.000 C 
ATOM      4  N   UNL     1       3.724   3.606  17.820  0.00  0.00    +0.000 N 
ATOM      5  C   UNL     1       3.335   2.498  18.572  0.00  0.00    +0.000 C 
ATOM      6  O   UNL     1       3.577   1.325  18.333  0.00  0.00    +0.000 OA
ATOM      7  C   UNL     1       2.546   3.019  19.780  0.00  0.00    +0.000 C 
ATOM      8  C   UNL     1       2.575   4.503  19.572  0.00  0.00    +0.000 A 
ATOM      9  C   UNL     1       2.046   5.519  20.355  0.00  0.00    +0.000 A 
ATOM     10  C   UNL     1       2.249   6.856  19.965  0.00  0.00    +0.000 A 
ATOM     11  C   UNL     1       2.922   7.105  18.750  0.00  0.00    +0.000 A 
ATOM     12  C   UNL     1       3.458   6.080  17.968  0.00  0.00    +0.000 A 
ATOM     13  C   UNL     1       3.278   4.790  18.406  0.00  0.00    +0.000 A 
ENDBRANCH   1  10
BRANCH   1  14
ATOM     14  C   UNL     1       0.974   8.991  20.464  0.00  0.00    +0.000 A 
ATOM     15  N   UNL     1       0.972   9.543  19.219  0.00  0.00    +0.000 NA
ATOM     16  C   UNL     1       0.237  10.644  18.972  0.00  0.00    +0.000 A 
ATOM     17  N   UNL     1      -0.537  11.325  19.830  0.00  0.00    +0.000 NA
ATOM     18  C   UNL     1      -0.529  10.748  21.045  0.00  0.00    +0.000 A 
ATOM     19  C   UNL     1       0.161   9.609  21.433  0.00  0.00    +0.000 A 
ATOM     20  N   UNL     1      -0.063   9.318  22.768  0.00  0.00    +0.000 NA
ATOM     21  C   UNL     1      -0.877  10.272  23.181  0.00  0.00    +0.000 A 
ATOM     22  N   UNL     1      -1.164  11.160  22.182  0.00  0.00    +0.000 N 
BRANCH  22  23
ATOM     23  C   UNL     1      -1.964  12.359  22.284  0.00  0.00    +0.000 C 
ATOM     24  C   UNL     1      -1.656  13.445  23.303  0.00  0.00    +0.000 C 
ATOM     25  C   UNL     1      -2.883  12.616  23.463  0.00  0.00    +0.000 C 
ENDBRANCH  22  23
ENDBRANCH   1  14
TORSDOF 3
ENDMDL
MODEL 7
REMARK VINA RESULT:      -7.5      3.025      8.722
REMARK  Name = 
REMARK  4 active torsions:
REMARK  status: ('A' for Active; 'I' for Inactive)
REMARK    1  A    between atoms: C_1  and  N_2
REMARK    2  A    between atoms: C_8  and  N_9
REMARK    3  A    between atoms: N_9  and  C_10
REMARK    4  A    between atoms: N_18  and  C_19
REMARK                            x       y       z     vdW  Elec       q    Type
REMARK                         _______ _______ _______ _____ _____    ______ ____
ROOT
ATOM      1  N   UNL     1       1.723   7.650  21.102  0.00  0.00    +0.000 N 
ATOM      2  H   UNL     1       2.327   7.875  21.889  0.00  0.00    +0.000 HD
ENDROOT
BRANCH   1  10
ATOM      3  C   UNL     1       2.910   2.141  17.644  0.00  0.00    +0.000 C 
ATOM      4  N   UNL     1       3.333   3.512  17.741  0.00  0.00    +0.000 N 
ATOM      5  C   UNL     1       4.251   4.132  16.894  0.00  0.00    +0.000 C 
ATOM      6  O   UNL     1       4.844   3.625  15.954  0.00  0.00    +0.000 OA
ATOM      7  C   UNL     1       4.381   5.591  17.350  0.00  0.00    +0.000 C 
ATOM      8  C   UNL     1       3.434   5.656  18.510  0.00  0.00    +0.000 A 
ATOM      9  C   UNL     1       3.098   6.729  19.323  0.00  0.00    +0.000 A 
ATOM     10  C   UNL     1       2.133   6.544  20.331  0.00  0.00    +0.000 A 
ATOM     11  C   UNL     1       1.602   5.251  20.521  0.00  0.00    +0.000 A 
ATOM     12  C   UNL     1       1.938   4.175  19.697  0.00  0.00    +0.000 A 
ATOM     13  C   UNL     1       2.849   4.406  18.694  0.00  0.00    +0.000 A 
ENDBRANCH   1  10
BRANCH   1  14
ATOM     14  C   UNL     1       1.010   8.791  20.683  0.00  0.00    +0.000 A 
ATOM     15  N   UNL     1       1.122   9.299  19.425  0.00  0.00    +0.000 NA
ATOM     16  C   UNL     1       0.486  10.442  19.101  0.00  0.00    +0.000 A 
ATOM     17  N   UNL     1      -0.286  11.204  19.890  0.00  0.00    +0.000 NA
ATOM     18  C   UNL     1      -0.392  10.669  21.119  0.00  0.00    +0.000 A 
ATOM     19  C   UNL     1       0.188   9.497  21.582  0.00  0.00    +0.000 A 
ATOM     20  N   UNL     1      -0.136   9.267  22.908  0.00  0.00    +0.000 NA
ATOM     21  C   UNL     1      -0.901  10.289  23.243  0.00  0.00    +0.000 A 
ATOM     22  N   UNL     1      -1.062  11.163  22.202  0.00  0.00    +0.000 N 
BRANCH  22  23
ATOM     23  C   UNL     1      -1.776  12.418  22.220  0.00  0.00    +0.000 C 
ATOM     24  C   UNL     1      -1.477  13.498  23.248  0.00  0.00    +0.000 C 
ATOM     25  C   UNL     1      -2.771  12.764  23.313  0.00  0.00    +0.000 C 
ENDBRANCH  22  23
ENDBRANCH   1  14
TORSDOF 3
ENDMDL
MODEL 8
REMARK VINA RESULT:      -7.4      1.439      2.579
REMARK  Name = 
REMARK  4 active torsions:
REMARK  status: ('A' for Active; 'I' for Inactive)
REMARK    1  A    between atoms: C_1  and  N_2
REMARK    2  A    between atoms: C_8  and  N_9
REMARK    3  A    between atoms: N_9  and  C_10
REMARK    4  A    between atoms: N_18  and  C_19
REMARK                            x       y       z     vdW  Elec       q    Type
REMARK                         _______ _______ _______ _____ _____    ______ ____
ROOT
ATOM      1  N   UNL     1       3.271   5.375  19.860  0.00  0.00    +0.000 N 
ATOM      2  H   UNL     1       2.740   4.508  19.895  0.00  0.00    +0.000 HD
ENDROOT
BRANCH   1  10
ATOM      3  C   UNL     1      -0.302  10.825  20.979  0.00  0.00    +0.000 C 
ATOM      4  N   UNL     1       0.521  10.217  19.968  0.00  0.00    +0.000 N 
ATOM      5  C   UNL     1       0.872  10.806  18.754  0.00  0.00    +0.000 C 
ATOM      6  O   UNL     1       0.540  11.910  18.349  0.00  0.00    +0.000 OA
ATOM      7  C   UNL     1       1.772   9.814  18.007  0.00  0.00    +0.000 C 
ATOM      8  C   UNL     1       1.851   8.662  18.963  0.00  0.00    +0.000 A 
ATOM      9  C   UNL     1       2.546   7.466  18.855  0.00  0.00    +0.000 A 
ATOM     10  C   UNL     1       2.497   6.552  19.924  0.00  0.00    +0.000 A 
ATOM     11  C   UNL     1       1.680   6.859  21.032  0.00  0.00    +0.000 A 
ATOM     12  C   UNL     1       0.987   8.066  21.139  0.00  0.00    +0.000 A 
ATOM     13  C   UNL     1       1.096   8.954  20.095  0.00  0.00    +0.000 A 
ENDBRANCH   1  10
BRANCH   1  14
ATOM     14  C   UNL     1       4.505   5.176  19.210  0.00  0.00    +0.000 A 
ATOM     15  N   UNL     1       5.689   5.565  19.758  0.00  0.00    +0.000 NA
ATOM     16  C   UNL     1       6.831   5.431  19.058  0.00  0.00    +0.000 A 
ATOM     17  N   UNL     1       6.982   4.944  17.817  0.00  0.00    +0.000 NA
ATOM     18  C   UNL     1       5.801   4.553  17.308  0.00  0.00    +0.000 A 
ATOM     19  C   UNL     1       4.557   4.614  17.919  0.00  0.00    +0.000 A 
ATOM     20  N   UNL     1       3.565   4.129  17.086  0.00  0.00    +0.000 NA
ATOM     21  C   UNL     1       4.201   3.781  15.983  0.00  0.00    +0.000 A 
ATOM     22  N   UNL     1       5.542   4.037  16.070  0.00  0.00    +0.000 N 
BRANCH  22  23
ATOM     23  C   UNL     1       6.535   3.848  15.038  0.00  0.00    +0.000 C 
ATOM     24  C   UNL     1       6.921   4.963  14.081  0.00  0.00    +0.000 C 
ATOM     25  C   UNL     1       6.167   3.786  13.567  0.00  0.00    +0.000 C 
ENDBRANCH  22  23
ENDBRANCH   1  14
TORSDOF 3
ENDMDL
MODEL 9
REMARK VINA RESULT:      -7.4      3.304      8.566
REMARK  Name = 
REMARK  4 active torsions:
REMARK  status: ('A' for Active; 'I' for Inactive)
REMARK    1  A    between atoms: C_1  and  N_2
REMARK    2  A    between atoms: C_8  and  N_9
REMARK    3  A    between atoms: N_9  and  C_10
REMARK    4  A    between atoms: N_18  and  C_19
REMARK                            x       y       z     vdW  Elec       q    Type
REMARK                         _______ _______ _______ _____ _____    ______ ____
ROOT
ATOM      1  N   UNL     1       1.299  10.204  18.234  0.00  0.00    +0.000 N 
ATOM      2  H   UNL     1       1.490  10.324  17.242  0.00  0.00    +0.000 HD
ENDROOT
BRANCH   1  10
ATOM      3  C   UNL     1       2.382   4.408  21.225  0.00  0.00    +0.000 C 
ATOM      4  N   UNL     1       2.655   5.096  19.992  0.00  0.00    +0.000 N 
ATOM      5  C   UNL     1       3.302   4.544  18.887  0.00  0.00    +0.000 C 
ATOM      6  O   UNL     1       3.745   3.410  18.785  0.00  0.00    +0.000 OA
ATOM      7  C   UNL     1       3.353   5.624  17.799  0.00  0.00    +0.000 C 
ATOM      8  C   UNL     1       2.663   6.781  18.456  0.00  0.00    +0.000 A 
ATOM      9  C   UNL     1       2.378   8.044  17.958  0.00  0.00    +0.000 A 
ATOM     10  C   UNL     1       1.668   8.952  18.766  0.00  0.00    +0.000 A 
ATOM     11  C   UNL     1       1.340   8.563  20.081  0.00  0.00    +0.000 A 
ATOM     12  C   UNL     1       1.622   7.289  20.577  0.00  0.00    +0.000 A 
ATOM     13  C   UNL     1       2.276   6.415  19.742  0.00  0.00    +0.000 A 
ENDBRANCH   1  10
BRANCH   1  14
ATOM     14  C   UNL     1       0.253  11.053  18.645  0.00  0.00    +0.000 A 
ATOM     15  N   UNL     1       0.436  12.047  19.558  0.00  0.00    +0.000 NA
ATOM     16  C   UNL     1      -0.615  12.774  19.982  0.00  0.00    +0.000 A 
ATOM     17  N   UNL     1      -1.900  12.650  19.618  0.00  0.00    +0.000 NA
ATOM     18  C   UNL     1      -2.048  11.674  18.705  0.00  0.00    +0.000 A 
ATOM     19  C   UNL     1      -1.059  10.864  18.168  0.00  0.00    +0.000 A 
ATOM     20  N   UNL     1      -1.586   9.962  17.261  0.00  0.00    +0.000 NA
ATOM     21  C   UNL     1      -2.880  10.222  17.252  0.00  0.00    +0.000 A 
ATOM     22  N   UNL     1      -3.200  11.230  18.120  0.00  0.00    +0.000 N 
BRANCH  22  23
ATOM     23  C   UNL     1      -4.519  11.736  18.421  0.00  0.00    +0.000 C 
ATOM     24  C   UNL     1      -5.730  10.821  18.508  0.00  0.00    +0.000 C 
ATOM     25  C   UNL     1      -5.621  11.785  17.378  0.00  0.00    +0.000 C 
ENDBRANCH  22  23
ENDBRANCH   1  14
TORSDOF 3
ENDMDL
