MODEL 1
REMARK VINA RESULT:      -9.0      0.000      0.000
REMARK  Name = 
REMARK  6 active torsions:
REMARK  status: ('A' for Active; 'I' for Inactive)
REMARK    1  A    between atoms: N_1  and  S_2
REMARK    2  A    between atoms: S_2  and  C_5
REMARK    3  A    between atoms: N_13  and  C_14
REMARK    4  A    between atoms: C_14  and  C_15
REMARK    5  A    between atoms: N_19  and  C_20
REMARK    6  A    between atoms: C_23  and  C_24
REMARK                            x       y       z     vdW  Elec       q    Type
REMARK                         _______ _______ _______ _____ _____    ______ ____
ROOT
ATOM      1  C   UNL     1       4.452   3.661  18.680  0.00  0.00    +0.000 C 
ENDROOT
BRANCH   1  10
ATOM      2  C   UNL     1       1.963   8.235  18.826  0.00  0.00    +0.000 A 
ATOM      3  C   UNL     1       2.830   7.741  17.835  0.00  0.00    +0.000 A 
ATOM      4  C   UNL     1       3.337   6.437  17.932  0.00  0.00    +0.000 A 
ATOM      5  C   UNL     1       2.985   5.658  19.021  0.00  0.00    +0.000 A 
ATOM      6  C   UNL     1       2.143   6.181  20.014  0.00  0.00    +0.000 A 
ATOM      7  C   UNL     1       1.610   7.461  19.930  0.00  0.00    +0.000 A 
ATOM      8  C   UNL     1       1.886   5.138  21.048  0.00  0.00    +0.000 C 
ATOM      9  C   UNL     1       2.991   4.125  20.696  0.00  0.00    +0.000 C 
ATOM     10  N   UNL     1       3.283   4.312  19.260  0.00  0.00    +0.000 N 
BRANCH   2  11
ATOM     11  S   UNL     1       1.239   9.834  18.608  0.00  0.00    +0.000 S 
ATOM     12  O   UNL     1       1.339  10.566  19.849  0.00  0.00    +0.000 OA
ATOM     13  O   UNL     1       0.004   9.688  17.878  0.00  0.00    +0.000 OA
BRANCH  11  14
ATOM     14  N   UNL     1       2.311  10.548  17.529  0.00  0.00    +0.000 NA
ATOM     15  H   UNL     1       1.932  10.489  16.585  0.00  0.00    +0.000 HD
ATOM     16  H   UNL     1       3.241  10.133  17.619  0.00  0.00    +0.000 HD
ENDBRANCH  11  14
ENDBRANCH   2  11
ENDBRANCH   1  10
BRANCH   1  17
ATOM     17  C   UNL     1       5.700   4.474  18.733  0.00  0.00    +0.000 A 
ATOM     18  N   UNL     1       6.218   4.997  19.831  0.00  0.00    +0.000 NA
ATOM     19  N   UNL     1       7.225   5.823  19.428  0.00  0.00    +0.000 NA
ATOM     20  N   UNL     1       7.328   5.836  18.110  0.00  0.00    +0.000 NA
ATOM     21  N   UNL     1       6.427   4.931  17.645  0.00  0.00    +0.000 N 
BRANCH  21  22
ATOM     22  C   UNL     1       6.372   4.635  16.257  0.00  0.00    +0.000 A 
ATOM     23  C   UNL     1       5.314   3.919  15.691  0.00  0.00    +0.000 A 
ATOM     24  C   UNL     1       5.317   3.615  14.324  0.00  0.00    +0.000 A 
ATOM     25  C   UNL     1       6.374   4.022  13.498  0.00  0.00    +0.000 A 
ATOM     26  C   UNL     1       7.430   4.746  14.067  0.00  0.00    +0.000 A 
ATOM     27  C   UNL     1       7.438   5.036  15.435  0.00  0.00    +0.000 A 
BRANCH  25  28
ATOM     28  C   UNL     1       6.403   3.678  12.028  0.00  0.00    +0.000 C 
ATOM     29  F   UNL     1       6.818   2.406  11.774  0.00  0.00    +0.000 F 
ATOM     30  F   UNL     1       5.180   3.796  11.442  0.00  0.00    +0.000 F 
ATOM     31  F   UNL     1       7.237   4.489  11.320  0.00  0.00    +0.000 F 
ENDBRANCH  25  28
ENDBRANCH  21  22
ENDBRANCH   1  17
TORSDOF 6
ENDMDL
MODEL 2
REMARK VINA RESULT:      -9.0      0.674      1.192
REMARK  Name = 
REMARK  6 active torsions:
REMARK  status: ('A' for Active; 'I' for Inactive)
REMARK    1  A    between atoms: N_1  and  S_2
REMARK    2  A    between atoms: S_2  and  C_5
REMARK    3  A    between atoms: N_13  and  C_14
REMARK    4  A    between atoms: C_14  and  C_15
REMARK    5  A    between atoms: N_19  and  C_20
REMARK    6  A    between atoms: C_23  and  C_24
REMARK                            x       y       z     vdW  Elec       q    Type
REMARK                         _______ _______ _______ _____ _____    ______ ____
ROOT
ATOM      1  C   UNL     1       4.372   3.726  18.658  0.00  0.00    +0.000 C 
ENDROOT
BRANCH   1  10
ATOM      2  C   UNL     1       2.140   8.432  18.729  0.00  0.00    +0.000 A 
ATOM      3  C   UNL     1       3.019   7.894  17.772  0.00  0.00    +0.000 A 
ATOM      4  C   UNL     1       3.448   6.563  17.882  0.00  0.00    +0.000 A 
ATOM      5  C   UNL     1       3.007   5.800  18.950  0.00  0.00    +0.000 A 
ATOM      6  C   UNL     1       2.155   6.367  19.910  0.00  0.00    +0.000 A 
ATOM      7  C   UNL     1       1.698   7.675  19.813  0.00  0.00    +0.000 A 
ATOM      8  C   UNL     1       1.797   5.336  20.927  0.00  0.00    +0.000 C 
ATOM      9  C   UNL     1       2.857   4.263  20.614  0.00  0.00    +0.000 C 
ATOM     10  N   UNL     1       3.218   4.440  19.193  0.00  0.00    +0.000 N 
BRANCH   2  11
ATOM     11  S   UNL     1       1.517  10.070  18.491  0.00  0.00    +0.000 S 
ATOM     12  O   UNL     1       2.434  10.801  17.648  0.00  0.00    +0.000 OA
ATOM     13  O   UNL     1       1.039  10.574  19.755  0.00  0.00    +0.000 OA
BRANCH  11  14
ATOM     14  N   UNL     1       0.137   9.779  17.577  0.00  0.00    +0.000 NA
ATOM     15  H   UNL     1      -0.471  10.597  17.611  0.00  0.00    +0.000 HD
ATOM     16  H   UNL     1      -0.322   8.920  17.885  0.00  0.00    +0.000 HD
ENDBRANCH  11  14
ENDBRANCH   2  11
ENDBRANCH   1  10
BRANCH   1  17
ATOM     17  C   UNL     1       5.669   4.441  18.822  0.00  0.00    +0.000 A 
ATOM     18  N   UNL     1       6.138   4.907  19.967  0.00  0.00    +0.000 NA
ATOM     19  N   UNL     1       7.233   5.660  19.658  0.00  0.00    +0.000 NA
ATOM     20  N   UNL     1       7.439   5.683  18.352  0.00  0.00    +0.000 NA
ATOM     21  N   UNL     1       6.512   4.856  17.802  0.00  0.00    +0.000 N 
BRANCH  21  22
ATOM     22  C   UNL     1       6.542   4.583  16.408  0.00  0.00    +0.000 A 
ATOM     23  C   UNL     1       7.435   5.222  15.545  0.00  0.00    +0.000 A 
ATOM     24  C   UNL     1       7.406   4.952  14.171  0.00  0.00    +0.000 A 
ATOM     25  C   UNL     1       6.487   4.039  13.636  0.00  0.00    +0.000 A 
ATOM     26  C   UNL     1       5.597   3.394  14.506  0.00  0.00    +0.000 A 
ATOM     27  C   UNL     1       5.613   3.675  15.875  0.00  0.00    +0.000 A 
BRANCH  25  28
ATOM     28  C   UNL     1       6.427   3.758  12.153  0.00  0.00    +0.000 C 
ATOM     29  F   UNL     1       7.023   2.587  11.796  0.00  0.00    +0.000 F 
ATOM     30  F   UNL     1       5.149   3.684  11.689  0.00  0.00    +0.000 F 
ATOM     31  F   UNL     1       7.037   4.726  11.415  0.00  0.00    +0.000 F 
ENDBRANCH  25  28
ENDBRANCH  21  22
ENDBRANCH   1  17
TORSDOF 6
ENDMDL
MODEL 3
REMARK VINA RESULT:      -8.9      0.114      1.120
REMARK  Name = 
REMARK  6 active torsions:
REMARK  status: ('A' for Active; 'I' for Inactive)
REMARK    1  A    between atoms: N_1  and  S_2
REMARK    2  A    between atoms: S_2  and  C_5
REMARK    3  A    between atoms: N_13  and  C_14
REMARK    4  A    between atoms: C_14  and  C_15
REMARK    5  A    between atoms: N_19  and  C_20
REMARK    6  A    between atoms: C_23  and  C_24
REMARK                            x       y       z     vdW  Elec       q    Type
REMARK                         _______ _______ _______ _____ _____    ______ ____
ROOT
ATOM      1  C   UNL     1       4.491   3.711  18.590  0.00  0.00    +0.000 C 
ENDROOT
BRANCH   1  10
ATOM      2  C   UNL     1       1.971   8.265  18.804  0.00  0.00    +0.000 A 
ATOM      3  C   UNL     1       2.838   7.790  17.804  0.00  0.00    +0.000 A 
ATOM      4  C   UNL     1       3.355   6.489  17.882  0.00  0.00    +0.000 A 
ATOM      5  C   UNL     1       3.011   5.693  18.961  0.00  0.00    +0.000 A 
ATOM      6  C   UNL     1       2.169   6.197  19.963  0.00  0.00    +0.000 A 
ATOM      7  C   UNL     1       1.627   7.474  19.898  0.00  0.00    +0.000 A 
ATOM      8  C   UNL     1       1.922   5.139  20.985  0.00  0.00    +0.000 C 
ATOM      9  C   UNL     1       3.034   4.138  20.616  0.00  0.00    +0.000 C 
ATOM     10  N   UNL     1       3.320   4.347  19.182  0.00  0.00    +0.000 N 
BRANCH   2  11
ATOM     11  S   UNL     1       1.235   9.861  18.608  0.00  0.00    +0.000 S 
ATOM     12  O   UNL     1       1.298  10.563  19.869  0.00  0.00    +0.000 OA
ATOM     13  O   UNL     1       0.019   9.722  17.846  0.00  0.00    +0.000 OA
BRANCH  11  14
ATOM     14  N   UNL     1       2.325  10.614  17.574  0.00  0.00    +0.000 NA
ATOM     15  H   UNL     1       2.534  11.549  17.923  0.00  0.00    +0.000 HD
ATOM     16  H   UNL     1       1.972  10.609  16.615  0.00  0.00    +0.000 HD
ENDBRANCH  11  14
ENDBRANCH   2  11
ENDBRANCH   1  10
BRANCH   1  17
ATOM     17  C   UNL     1       5.745   4.510  18.697  0.00  0.00    +0.000 A 
ATOM     18  N   UNL     1       6.212   5.042  19.813  0.00  0.00    +0.000 NA
ATOM     19  N   UNL     1       7.250   5.850  19.452  0.00  0.00    +0.000 NA
ATOM     20  N   UNL     1       7.421   5.842  18.141  0.00  0.00    +0.000 NA
ATOM     21  N   UNL     1       6.535   4.942  17.642  0.00  0.00    +0.000 N 
BRANCH  21  22
ATOM     22  C   UNL     1       6.548   4.625  16.257  0.00  0.00    +0.000 A 
ATOM     23  C   UNL     1       7.520   5.127  15.389  0.00  0.00    +0.000 A 
ATOM     24  C   UNL     1       7.474   4.821  14.023  0.00  0.00    +0.000 A 
ATOM     25  C   UNL     1       6.458   4.007  13.501  0.00  0.00    +0.000 A 
ATOM     26  C   UNL     1       5.489   3.499  14.377  0.00  0.00    +0.000 A 
ATOM     27  C   UNL     1       5.523   3.817  15.737  0.00  0.00    +0.000 A 
BRANCH  25  28
ATOM     28  C   UNL     1       6.381   3.691  12.026  0.00  0.00    +0.000 C 
ATOM     29  F   UNL     1       5.108   3.650  11.544  0.00  0.00    +0.000 F 
ATOM     30  F   UNL     1       7.041   4.605  11.264  0.00  0.00    +0.000 F 
ATOM     31  F   UNL     1       6.933   2.483  11.724  0.00  0.00    +0.000 F 
ENDBRANCH  25  28
ENDBRANCH  21  22
ENDBRANCH   1  17
TORSDOF 6
ENDMDL
MODEL 4
REMARK VINA RESULT:      -8.8      0.738      1.468
REMARK  Name = 
REMARK  6 active torsions:
REMARK  status: ('A' for Active; 'I' for Inactive)
REMARK    1  A    between atoms: N_1  and  S_2
REMARK    2  A    between atoms: S_2  and  C_5
REMARK    3  A    between atoms: N_13  and  C_14
REMARK    4  A    between atoms: C_14  and  C_15
REMARK    5  A    between atoms: N_19  and  C_20
REMARK    6  A    between atoms: C_23  and  C_24
REMARK                            x       y       z     vdW  Elec       q    Type
REMARK                         _______ _______ _______ _____ _____    ______ ____
ROOT
ATOM      1  C   UNL     1       4.119   3.865  18.469  0.00  0.00    +0.000 C 
ENDROOT
BRANCH   1  10
ATOM      2  C   UNL     1       1.918   8.576  18.776  0.00  0.00    +0.000 A 
ATOM      3  C   UNL     1       2.700   8.041  17.737  0.00  0.00    +0.000 A 
ATOM      4  C   UNL     1       3.134   6.708  17.798  0.00  0.00    +0.000 A 
ATOM      5  C   UNL     1       2.793   5.941  18.899  0.00  0.00    +0.000 A 
ATOM      6  C   UNL     1       2.037   6.504  19.939  0.00  0.00    +0.000 A 
ATOM      7  C   UNL     1       1.578   7.813  19.892  0.00  0.00    +0.000 A 
ATOM      8  C   UNL     1       1.774   5.468  20.980  0.00  0.00    +0.000 C 
ATOM      9  C   UNL     1       2.797   4.394  20.562  0.00  0.00    +0.000 C 
ATOM     10  N   UNL     1       3.023   4.578  19.114  0.00  0.00    +0.000 N 
BRANCH   2  11
ATOM     11  S   UNL     1       1.280  10.216  18.607  0.00  0.00    +0.000 S 
ATOM     12  O   UNL     1      -0.038  10.147  18.021  0.00  0.00    +0.000 OA
ATOM     13  O   UNL     1       2.324  11.070  18.096  0.00  0.00    +0.000 OA
BRANCH  11  14
ATOM     14  N   UNL     1       1.080  10.671  20.212  0.00  0.00    +0.000 NA
ATOM     15  H   UNL     1       0.853   9.850  20.772  0.00  0.00    +0.000 HD
ATOM     16  H   UNL     1       0.387  11.418  20.289  0.00  0.00    +0.000 HD
ENDBRANCH  11  14
ENDBRANCH   2  11
ENDBRANCH   1  10
BRANCH   1  17
ATOM     17  C   UNL     1       5.466   4.454  18.711  0.00  0.00    +0.000 A 
ATOM     18  N   UNL     1       5.914   4.860  19.886  0.00  0.00    +0.000 NA
ATOM     19  N   UNL     1       7.088   5.512  19.648  0.00  0.00    +0.000 NA
ATOM     20  N   UNL     1       7.364   5.533  18.354  0.00  0.00    +0.000 NA
ATOM     21  N   UNL     1       6.395   4.802  17.743  0.00  0.00    +0.000 N 
BRANCH  21  22
ATOM     22  C   UNL     1       6.474   4.545  16.348  0.00  0.00    +0.000 A 
ATOM     23  C   UNL     1       7.463   5.113  15.542  0.00  0.00    +0.000 A 
ATOM     24  C   UNL     1       7.481   4.865  14.164  0.00  0.00    +0.000 A 
ATOM     25  C   UNL     1       6.514   4.044  13.567  0.00  0.00    +0.000 A 
ATOM     26  C   UNL     1       5.527   3.469  14.380  0.00  0.00    +0.000 A 
ATOM     27  C   UNL     1       5.497   3.730  15.753  0.00  0.00    +0.000 A 
BRANCH  25  28
ATOM     28  C   UNL     1       6.507   3.789  12.079  0.00  0.00    +0.000 C 
ATOM     29  F   UNL     1       7.143   4.753  11.358  0.00  0.00    +0.000 F 
ATOM     30  F   UNL     1       7.111   2.615  11.749  0.00  0.00    +0.000 F 
ATOM     31  F   UNL     1       5.246   3.716  11.570  0.00  0.00    +0.000 F 
ENDBRANCH  25  28
ENDBRANCH  21  22
ENDBRANCH   1  17
TORSDOF 6
ENDMDL
MODEL 5
REMARK VINA RESULT:      -8.7      1.335      1.747
REMARK  Name = 
REMARK  6 active torsions:
REMARK  status: ('A' for Active; 'I' for Inactive)
REMARK    1  A    between atoms: N_1  and  S_2
REMARK    2  A    between atoms: S_2  and  C_5
REMARK    3  A    between atoms: N_13  and  C_14
REMARK    4  A    between atoms: C_14  and  C_15
REMARK    5  A    between atoms: N_19  and  C_20
REMARK    6  A    between atoms: C_23  and  C_24
REMARK                            x       y       z     vdW  Elec       q    Type
REMARK                         _______ _______ _______ _____ _____    ______ ____
ROOT
ATOM      1  C   UNL     1       4.141   3.445  18.263  0.00  0.00    +0.000 C 
ENDROOT
BRANCH   1  10
ATOM      2  C   UNL     1       1.620   7.440  20.459  0.00  0.00    +0.000 A 
ATOM      3  C   UNL     1       2.370   7.425  19.270  0.00  0.00    +0.000 A 
ATOM      4  C   UNL     1       2.905   6.220  18.791  0.00  0.00    +0.000 A 
ATOM      5  C   UNL     1       2.696   5.058  19.514  0.00  0.00    +0.000 A 
ATOM      6  C   UNL     1       1.970   5.100  20.714  0.00  0.00    +0.000 A 
ATOM      7  C   UNL     1       1.413   6.276  21.198  0.00  0.00    +0.000 A 
ATOM      8  C   UNL     1       1.854   3.722  21.273  0.00  0.00    +0.000 C 
ATOM      9  C   UNL     1       2.924   2.996  20.437  0.00  0.00    +0.000 C 
ATOM     10  N   UNL     1       3.040   3.746  19.170  0.00  0.00    +0.000 N 
BRANCH   2  11
ATOM     11  S   UNL     1       0.852   8.950  20.966  0.00  0.00    +0.000 S 
ATOM     12  O   UNL     1      -0.492   8.664  21.410  0.00  0.00    +0.000 OA
ATOM     13  O   UNL     1       1.160   9.975  19.999  0.00  0.00    +0.000 OA
BRANCH  11  14
ATOM     14  N   UNL     1       1.746   9.345  22.333  0.00  0.00    +0.000 NA
ATOM     15  H   UNL     1       1.224   9.080  23.168  0.00  0.00    +0.000 HD
ATOM     16  H   UNL     1       2.011  10.331  22.315  0.00  0.00    +0.000 HD
ENDBRANCH  11  14
ENDBRANCH   2  11
ENDBRANCH   1  10
BRANCH   1  17
ATOM     17  C   UNL     1       5.409   4.166  18.571  0.00  0.00    +0.000 A 
ATOM     18  N   UNL     1       5.777   4.571  19.774  0.00  0.00    +0.000 NA
ATOM     19  N   UNL     1       6.880   5.354  19.598  0.00  0.00    +0.000 NA
ATOM     20  N   UNL     1       7.187   5.457  18.316  0.00  0.00    +0.000 NA
ATOM     21  N   UNL     1       6.322   4.651  17.647  0.00  0.00    +0.000 N 
BRANCH  21  22
ATOM     22  C   UNL     1       6.467   4.462  16.246  0.00  0.00    +0.000 A 
ATOM     23  C   UNL     1       7.459   5.111  15.507  0.00  0.00    +0.000 A 
ATOM     24  C   UNL     1       7.543   4.925  14.121  0.00  0.00    +0.000 A 
ATOM     25  C   UNL     1       6.640   4.088  13.451  0.00  0.00    +0.000 A 
ATOM     26  C   UNL     1       5.651   3.433  14.197  0.00  0.00    +0.000 A 
ATOM     27  C   UNL     1       5.554   3.630  15.577  0.00  0.00    +0.000 A 
BRANCH  25  28
ATOM     28  C   UNL     1       6.703   3.900  11.953  0.00  0.00    +0.000 C 
ATOM     29  F   UNL     1       7.377   2.779  11.573  0.00  0.00    +0.000 F 
ATOM     30  F   UNL     1       5.468   3.804  11.389  0.00  0.00    +0.000 F 
ATOM     31  F   UNL     1       7.322   4.937  11.325  0.00  0.00    +0.000 F 
ENDBRANCH  25  28
ENDBRANCH  21  22
ENDBRANCH   1  17
TORSDOF 6
ENDMDL
MODEL 6
REMARK VINA RESULT:      -8.5      0.812      1.126
REMARK  Name = 
REMARK  6 active torsions:
REMARK  status: ('A' for Active; 'I' for Inactive)
REMARK    1  A    between atoms: N_1  and  S_2
REMARK    2  A    between atoms: S_2  and  C_5
REMARK    3  A    between atoms: N_13  and  C_14
REMARK    4  A    between atoms: C_14  and  C_15
REMARK    5  A    between atoms: N_19  and  C_20
REMARK    6  A    between atoms: C_23  and  C_24
REMARK                            x       y       z     vdW  Elec       q    Type
REMARK                         _______ _______ _______ _____ _____    ______ ____
ROOT
ATOM      1  C   UNL     1       3.526   4.473  18.203  0.00  0.00    +0.000 C 
ENDROOT
BRANCH   1  10
ATOM      2  C   UNL     1       1.634   9.253  19.039  0.00  0.00    +0.000 A 
ATOM      3  C   UNL     1       2.242   8.743  17.879  0.00  0.00    +0.000 A 
ATOM      4  C   UNL     1       2.610   7.391  17.814  0.00  0.00    +0.000 A 
ATOM      5  C   UNL     1       2.380   6.579  18.912  0.00  0.00    +0.000 A 
ATOM      6  C   UNL     1       1.800   7.116  20.071  0.00  0.00    +0.000 A 
ATOM      7  C   UNL     1       1.407   8.446  20.152  0.00  0.00    +0.000 A 
ATOM      8  C   UNL     1       1.624   6.036  21.085  0.00  0.00    +0.000 C 
ATOM      9  C   UNL     1       2.525   4.943  20.480  0.00  0.00    +0.000 C 
ATOM     10  N   UNL     1       2.565   5.197  19.026  0.00  0.00    +0.000 N 
BRANCH   2  11
ATOM     11  S   UNL     1       1.065  10.928  19.040  0.00  0.00    +0.000 S 
ATOM     12  O   UNL     1       1.336  11.513  20.331  0.00  0.00    +0.000 OA
ATOM     13  O   UNL     1      -0.231  10.978  18.410  0.00  0.00    +0.000 OA
BRANCH  11  14
ATOM     14  N   UNL     1       2.119  11.645  17.945  0.00  0.00    +0.000 NA
ATOM     15  H   UNL     1       2.605  10.921  17.417  0.00  0.00    +0.000 HD
ATOM     16  H   UNL     1       2.751  12.289  18.425  0.00  0.00    +0.000 HD
ENDBRANCH  11  14
ENDBRANCH   2  11
ENDBRANCH   1  10
BRANCH   1  17
ATOM     17  C   UNL     1       4.952   4.737  18.544  0.00  0.00    +0.000 A 
ATOM     18  N   UNL     1       5.401   5.027  19.753  0.00  0.00    +0.000 NA
ATOM     19  N   UNL     1       6.707   5.392  19.604  0.00  0.00    +0.000 NA
ATOM     20  N   UNL     1       7.067   5.353  18.332  0.00  0.00    +0.000 NA
ATOM     21  N   UNL     1       6.001   4.865  17.645  0.00  0.00    +0.000 N 
BRANCH  21  22
ATOM     22  C   UNL     1       6.113   4.601  16.254  0.00  0.00    +0.000 A 
ATOM     23  C   UNL     1       5.290   3.679  15.603  0.00  0.00    +0.000 A 
ATOM     24  C   UNL     1       5.461   3.420  14.237  0.00  0.00    +0.000 A 
ATOM     25  C   UNL     1       6.453   4.079  13.497  0.00  0.00    +0.000 A 
ATOM     26  C   UNL     1       7.272   5.009  14.152  0.00  0.00    +0.000 A 
ATOM     27  C   UNL     1       7.115   5.256  15.519  0.00  0.00    +0.000 A 
BRANCH  25  28
ATOM     28  C   UNL     1       6.664   3.790  12.030  0.00  0.00    +0.000 C 
ATOM     29  F   UNL     1       7.400   4.739  11.389  0.00  0.00    +0.000 F 
ATOM     30  F   UNL     1       7.310   2.610  11.821  0.00  0.00    +0.000 F 
ATOM     31  F   UNL     1       5.492   3.702  11.343  0.00  0.00    +0.000 F 
ENDBRANCH  25  28
ENDBRANCH  21  22
ENDBRANCH   1  17
TORSDOF 6
ENDMDL
MODEL 7
REMARK VINA RESULT:      -8.5      1.033      1.127
REMARK  Name = 
REMARK  6 active torsions:
REMARK  status: ('A' for Active; 'I' for Inactive)
REMARK    1  A    between atoms: N_1  and  S_2
REMARK    2  A    between atoms: S_2  and  C_5
REMARK    3  A    between atoms: N_13  and  C_14
REMARK    4  A    between atoms: C_14  and  C_15
REMARK    5  A    between atoms: N_19  and  C_20
REMARK    6  A    between atoms: C_23  and  C_24
REMARK                            x       y       z     vdW  Elec       q    Type
REMARK                         _______ _______ _______ _____ _____    ______ ____
ROOT
ATOM      1  C   UNL     1       3.805   4.031  18.272  0.00  0.00    +0.000 C 
ENDROOT
BRANCH   1  10
ATOM      2  C   UNL     1       1.500   8.480  19.693  0.00  0.00    +0.000 A 
ATOM      3  C   UNL     1       2.142   8.176  18.480  0.00  0.00    +0.000 A 
ATOM      4  C   UNL     1       2.629   6.880  18.248  0.00  0.00    +0.000 A 
ATOM      5  C   UNL     1       2.480   5.920  19.235  0.00  0.00    +0.000 A 
ATOM      6  C   UNL     1       1.863   6.254  20.450  0.00  0.00    +0.000 A 
ATOM      7  C   UNL     1       1.354   7.523  20.695  0.00  0.00    +0.000 A 
ATOM      8  C   UNL     1       1.792   5.045  21.320  0.00  0.00    +0.000 C 
ATOM      9  C   UNL     1       2.782   4.121  20.586  0.00  0.00    +0.000 C 
ATOM     10  N   UNL     1       2.789   4.558  19.176  0.00  0.00    +0.000 N 
BRANCH   2  11
ATOM     11  S   UNL     1       0.784  10.084  19.900  0.00  0.00    +0.000 S 
ATOM     12  O   UNL     1      -0.654   9.968  19.822  0.00  0.00    +0.000 OA
ATOM     13  O   UNL     1       1.539  11.034  19.122  0.00  0.00    +0.000 OA
BRANCH  11  14
ATOM     14  N   UNL     1       1.162  10.421  21.503  0.00  0.00    +0.000 NA
ATOM     15  H   UNL     1       1.582  11.348  21.564  0.00  0.00    +0.000 HD
ATOM     16  H   UNL     1       1.749   9.683  21.895  0.00  0.00    +0.000 HD
ENDBRANCH  11  14
ENDBRANCH   2  11
ENDBRANCH   1  10
BRANCH   1  17
ATOM     17  C   UNL     1       5.189   4.506  18.556  0.00  0.00    +0.000 A 
ATOM     18  N   UNL     1       5.644   4.843  19.750  0.00  0.00    +0.000 NA
ATOM     19  N   UNL     1       6.870   5.408  19.552  0.00  0.00    +0.000 NA
ATOM     20  N   UNL     1       7.171   5.445  18.265  0.00  0.00    +0.000 NA
ATOM     21  N   UNL     1       6.161   4.809  17.615  0.00  0.00    +0.000 N 
BRANCH  21  22
ATOM     22  C   UNL     1       6.247   4.588  16.214  0.00  0.00    +0.000 A 
ATOM     23  C   UNL     1       5.235   3.942  15.500  0.00  0.00    +0.000 A 
ATOM     24  C   UNL     1       5.377   3.709  14.126  0.00  0.00    +0.000 A 
ATOM     25  C   UNL     1       6.529   4.121  13.442  0.00  0.00    +0.000 A 
ATOM     26  C   UNL     1       7.539   4.777  14.159  0.00  0.00    +0.000 A 
ATOM     27  C   UNL     1       7.407   4.994  15.534  0.00  0.00    +0.000 A 
BRANCH  25  28
ATOM     28  C   UNL     1       6.706   3.854  11.966  0.00  0.00    +0.000 C 
ATOM     29  F   UNL     1       7.425   2.728  11.698  0.00  0.00    +0.000 F 
ATOM     30  F   UNL     1       5.518   3.702  11.319  0.00  0.00    +0.000 F 
ATOM     31  F   UNL     1       7.353   4.868  11.327  0.00  0.00    +0.000 F 
ENDBRANCH  25  28
ENDBRANCH  21  22
ENDBRANCH   1  17
TORSDOF 6
ENDMDL
MODEL 8
REMARK VINA RESULT:      -8.5      1.605      2.135
REMARK  Name = 
REMARK  6 active torsions:
REMARK  status: ('A' for Active; 'I' for Inactive)
REMARK    1  A    between atoms: N_1  and  S_2
REMARK    2  A    between atoms: S_2  and  C_5
REMARK    3  A    between atoms: N_13  and  C_14
REMARK    4  A    between atoms: C_14  and  C_15
REMARK    5  A    between atoms: N_19  and  C_20
REMARK    6  A    between atoms: C_23  and  C_24
REMARK                            x       y       z     vdW  Elec       q    Type
REMARK                         _______ _______ _______ _____ _____    ______ ____
ROOT
ATOM      1  C   UNL     1       3.760   5.946  17.811  0.00  0.00    +0.000 C 
ENDROOT
BRANCH   1  10
ATOM      2  C   UNL     1       0.892   9.404  20.447  0.00  0.00    +0.000 A 
ATOM      3  C   UNL     1       1.567   9.576  19.226  0.00  0.00    +0.000 A 
ATOM      4  C   UNL     1       2.219   8.489  18.624  0.00  0.00    +0.000 A 
ATOM      5  C   UNL     1       2.200   7.259  19.259  0.00  0.00    +0.000 A 
ATOM      6  C   UNL     1       1.547   7.117  20.492  0.00  0.00    +0.000 A 
ATOM      7  C   UNL     1       0.876   8.171  21.098  0.00  0.00    +0.000 A 
ATOM      8  C   UNL     1       1.638   5.698  20.942  0.00  0.00    +0.000 C 
ATOM      9  C   UNL     1       2.739   5.181  19.998  0.00  0.00    +0.000 C 
ATOM     10  N   UNL     1       2.685   6.033  18.793  0.00  0.00    +0.000 N 
BRANCH   2  11
ATOM     11  S   UNL     1      -0.028  10.760  21.113  0.00  0.00    +0.000 S 
ATOM     12  O   UNL     1      -1.148  11.036  20.244  0.00  0.00    +0.000 OA
ATOM     13  O   UNL     1       0.896  11.777  21.552  0.00  0.00    +0.000 OA
BRANCH  11  14
ATOM     14  N   UNL     1      -0.653  10.088  22.521  0.00  0.00    +0.000 NA
ATOM     15  H   UNL     1      -0.245   9.166  22.667  0.00  0.00    +0.000 HD
ATOM     16  H   UNL     1      -1.674  10.080  22.491  0.00  0.00    +0.000 HD
ENDBRANCH  11  14
ENDBRANCH   2  11
ENDBRANCH   1  10
BRANCH   1  17
ATOM     17  C   UNL     1       5.051   5.438  18.354  0.00  0.00    +0.000 A 
ATOM     18  N   UNL     1       5.409   5.485  19.625  0.00  0.00    +0.000 NA
ATOM     19  N   UNL     1       6.721   5.113  19.672  0.00  0.00    +0.000 NA
ATOM     20  N   UNL     1       7.183   4.857  18.459  0.00  0.00    +0.000 NA
ATOM     21  N   UNL     1       6.128   4.977  17.612  0.00  0.00    +0.000 N 
BRANCH  21  22
ATOM     22  C   UNL     1       6.282   4.655  16.237  0.00  0.00    +0.000 A 
ATOM     23  C   UNL     1       7.126   5.381  15.393  0.00  0.00    +0.000 A 
ATOM     24  C   UNL     1       7.219   5.054  14.034  0.00  0.00    +0.000 A 
ATOM     25  C   UNL     1       6.474   3.996  13.495  0.00  0.00    +0.000 A 
ATOM     26  C   UNL     1       5.634   3.264  14.346  0.00  0.00    +0.000 A 
ATOM     27  C   UNL     1       5.526   3.600  15.699  0.00  0.00    +0.000 A 
BRANCH  25  28
ATOM     28  C   UNL     1       6.545   3.649  12.027  0.00  0.00    +0.000 C 
ATOM     29  F   UNL     1       7.091   2.426  11.782  0.00  0.00    +0.000 F 
ATOM     30  F   UNL     1       5.320   3.638  11.436  0.00  0.00    +0.000 F 
ATOM     31  F   UNL     1       7.294   4.539  11.319  0.00  0.00    +0.000 F 
ENDBRANCH  25  28
ENDBRANCH  21  22
ENDBRANCH   1  17
TORSDOF 6
ENDMDL
MODEL 9
REMARK VINA RESULT:      -8.5      1.134      1.684
REMARK  Name = 
REMARK  6 active torsions:
REMARK  status: ('A' for Active; 'I' for Inactive)
REMARK    1  A    between atoms: N_1  and  S_2
REMARK    2  A    between atoms: S_2  and  C_5
REMARK    3  A    between atoms: N_13  and  C_14
REMARK    4  A    between atoms: C_14  and  C_15
REMARK    5  A    between atoms: N_19  and  C_20
REMARK    6  A    between atoms: C_23  and  C_24
REMARK                            x       y       z     vdW  Elec       q    Type
REMARK                         _______ _______ _______ _____ _____    ______ ____
ROOT
ATOM      1  C   UNL     1       4.113   3.454  18.403  0.00  0.00    +0.000 C 
ENDROOT
BRANCH   1  10
ATOM      2  C   UNL     1       1.598   7.546  20.418  0.00  0.00    +0.000 A 
ATOM      3  C   UNL     1       2.364   7.482  19.241  0.00  0.00    +0.000 A 
ATOM      4  C   UNL     1       2.894   6.256  18.813  0.00  0.00    +0.000 A 
ATOM      5  C   UNL     1       2.665   5.122  19.574  0.00  0.00    +0.000 A 
ATOM      6  C   UNL     1       1.924   5.214  20.762  0.00  0.00    +0.000 A 
ATOM      7  C   UNL     1       1.370   6.412  21.196  0.00  0.00    +0.000 A 
ATOM      8  C   UNL     1       1.787   3.859  21.369  0.00  0.00    +0.000 C 
ATOM      9  C   UNL     1       2.862   3.094  20.575  0.00  0.00    +0.000 C 
ATOM     10  N   UNL     1       3.002   3.797  19.284  0.00  0.00    +0.000 N 
BRANCH   2  11
ATOM     11  S   UNL     1       0.837   9.080  20.859  0.00  0.00    +0.000 S 
ATOM     12  O   UNL     1       1.644   9.731  21.865  0.00  0.00    +0.000 OA
ATOM     13  O   UNL     1      -0.582   8.870  21.004  0.00  0.00    +0.000 OA
BRANCH  11  14
ATOM     14  N   UNL     1       1.012   9.967  19.442  0.00  0.00    +0.000 NA
ATOM     15  H   UNL     1       1.095   9.329  18.651  0.00  0.00    +0.000 HD
ATOM     16  H   UNL     1       1.795  10.618  19.521  0.00  0.00    +0.000 HD
ENDBRANCH  11  14
ENDBRANCH   2  11
ENDBRANCH   1  10
BRANCH   1  17
ATOM     17  C   UNL     1       5.372   4.201  18.679  0.00  0.00    +0.000 A 
ATOM     18  N   UNL     1       5.750   4.635  19.869  0.00  0.00    +0.000 NA
ATOM     19  N   UNL     1       6.837   5.432  19.663  0.00  0.00    +0.000 NA
ATOM     20  N   UNL     1       7.125   5.515  18.375  0.00  0.00    +0.000 NA
ATOM     21  N   UNL     1       6.264   4.682  17.733  0.00  0.00    +0.000 N 
BRANCH  21  22
ATOM     22  C   UNL     1       6.394   4.468  16.335  0.00  0.00    +0.000 A 
ATOM     23  C   UNL     1       7.344   5.142  15.564  0.00  0.00    +0.000 A 
ATOM     24  C   UNL     1       7.412   4.929  14.181  0.00  0.00    +0.000 A 
ATOM     25  C   UNL     1       6.535   4.038  13.546  0.00  0.00    +0.000 A 
ATOM     26  C   UNL     1       5.588   3.358  14.323  0.00  0.00    +0.000 A 
ATOM     27  C   UNL     1       5.507   3.582  15.701  0.00  0.00    +0.000 A 
BRANCH  25  28
ATOM     28  C   UNL     1       6.581   3.819  12.052  0.00  0.00    +0.000 C 
ATOM     29  F   UNL     1       7.212   4.817  11.374  0.00  0.00    +0.000 F 
ATOM     30  F   UNL     1       7.227   2.670  11.714  0.00  0.00    +0.000 F 
ATOM     31  F   UNL     1       5.338   3.725  11.502  0.00  0.00    +0.000 F 
ENDBRANCH  25  28
ENDBRANCH  21  22
ENDBRANCH   1  17
TORSDOF 6
ENDMDL
