MODEL 1
REMARK VINA RESULT:      -9.2      0.000      0.000
REMARK  Name = 
REMARK  7 active torsions:
REMARK  status: ('A' for Active; 'I' for Inactive)
REMARK    1  A    between atoms: C_2  and  C_3
REMARK    2  A    between atoms: C_3  and  N_4
REMARK    3  A    between atoms: N_4  and  C_5
REMARK    4  A    between atoms: C_10  and  N_11
REMARK    5  A    between atoms: N_17  and  C_18
REMARK    6  A    between atoms: C_23  and  C_24
REMARK    7  A    between atoms: C_24  and  C_25
REMARK                            x       y       z     vdW  Elec       q    Type
REMARK                         _______ _______ _______ _____ _____    ______ ____
ROOT
ATOM      1  O   UNL     1       1.704   6.914  20.870  0.00  0.00    +0.000 OA
ATOM      2  C   UNL     1       1.790   7.708  19.940  0.00  0.00    +0.000 C 
ATOM      3  N   UNL     1       1.133   8.937  19.850  0.00  0.00    +0.000 N 
ATOM      4  H   UNL     1       1.092   9.359  18.934  0.00  0.00    +0.000 HD
ENDROOT
BRANCH   3   5
ATOM      5  C   UNL     1       0.444   9.598  20.903  0.00  0.00    +0.000 A 
ATOM      6  C   UNL     1       0.413   9.057  22.198  0.00  0.00    +0.000 A 
ATOM      7  C   UNL     1      -0.260   9.693  23.245  0.00  0.00    +0.000 A 
ATOM      8  C   UNL     1      -0.905  10.896  23.024  0.00  0.00    +0.000 A 
ATOM      9  C   UNL     1      -0.875  11.465  21.755  0.00  0.00    +0.000 A 
ATOM     10  C   UNL     1      -0.204  10.840  20.680  0.00  0.00    +0.000 A 
BRANCH  10  11
ATOM     11  C   UNL     1      -0.308  11.524  19.329  0.00  0.00    +0.000 C 
BRANCH  11  12
ATOM     12  C   UNL     1      -1.473  11.111  18.448  0.00  0.00    +0.000 A 
ATOM     13  C   UNL     1      -1.380  10.116  17.463  0.00  0.00    +0.000 A 
ATOM     14  C   UNL     1      -2.473   9.805  16.651  0.00  0.00    +0.000 A 
ATOM     15  C   UNL     1      -3.680  10.475  16.818  0.00  0.00    +0.000 A 
ATOM     16  C   UNL     1      -3.803  11.442  17.813  0.00  0.00    +0.000 A 
ATOM     17  C   UNL     1      -2.709  11.755  18.625  0.00  0.00    +0.000 A 
ENDBRANCH  11  12
ENDBRANCH  10  11
ENDBRANCH   3   5
BRANCH   2  18
ATOM     18  C   UNL     1       2.692   7.404  18.734  0.00  0.00    +0.000 C 
BRANCH  18  19
ATOM     19  N   UNL     1       3.467   6.181  18.947  0.00  0.00    +0.000 N 
ATOM     20  H   UNL     1       2.975   5.495  19.506  0.00  0.00    +0.000 HD
BRANCH  19  21
ATOM     21  C   UNL     1       4.053   5.566  17.812  0.00  0.00    +0.000 A 
ATOM     22  C   UNL     1       4.742   6.346  16.860  0.00  0.00    +0.000 A 
ATOM     23  C   UNL     1       5.390   5.767  15.771  0.00  0.00    +0.000 A 
ATOM     24  C   UNL     1       5.358   4.392  15.609  0.00  0.00    +0.000 A 
ATOM     25  C   UNL     1       4.617   3.607  16.496  0.00  0.00    +0.000 A 
ATOM     26  C   UNL     1       3.902   4.162  17.579  0.00  0.00    +0.000 A 
BRANCH  26  27
ATOM     27  N   UNL     1       3.104   3.336  18.369  0.00  0.00    +0.000 N 
ATOM     28  C   UNL     1       1.648   3.271  18.225  0.00  0.00    +0.000 C 
ATOM     29  C   UNL     1       0.962   3.773  19.497  0.00  0.00    +0.000 C 
ATOM     30  C   UNL     1       1.478   3.032  20.729  0.00  0.00    +0.000 C 
ATOM     31  C   UNL     1       2.996   3.134  20.812  0.00  0.00    +0.000 C 
ATOM     32  C   UNL     1       3.669   2.650  19.529  0.00  0.00    +0.000 C 
ENDBRANCH  26  27
ENDBRANCH  19  21
ENDBRANCH  18  19
ENDBRANCH   2  18
TORSDOF 7
ENDMDL
MODEL 2
REMARK VINA RESULT:      -9.1      1.771      2.407
REMARK  Name = 
REMARK  7 active torsions:
REMARK  status: ('A' for Active; 'I' for Inactive)
REMARK    1  A    between atoms: C_2  and  C_3
REMARK    2  A    between atoms: C_3  and  N_4
REMARK    3  A    between atoms: N_4  and  C_5
REMARK    4  A    between atoms: C_10  and  N_11
REMARK    5  A    between atoms: N_17  and  C_18
REMARK    6  A    between atoms: C_23  and  C_24
REMARK    7  A    between atoms: C_24  and  C_25
REMARK                            x       y       z     vdW  Elec       q    Type
REMARK                         _______ _______ _______ _____ _____    ______ ____
ROOT
ATOM      1  O   UNL     1       1.637   8.666  19.653  0.00  0.00    +0.000 OA
ATOM      2  C   UNL     1       1.798   9.028  18.493  0.00  0.00    +0.000 C 
ATOM      3  N   UNL     1       1.442  10.272  17.968  0.00  0.00    +0.000 N 
ATOM      4  H   UNL     1       1.394  10.339  16.961  0.00  0.00    +0.000 HD
ENDROOT
BRANCH   3   5
ATOM      5  C   UNL     1       1.054  11.418  18.714  0.00  0.00    +0.000 A 
ATOM      6  C   UNL     1       1.961  12.462  18.958  0.00  0.00    +0.000 A 
ATOM      7  C   UNL     1       1.597  13.596  19.689  0.00  0.00    +0.000 A 
ATOM      8  C   UNL     1       0.311  13.720  20.182  0.00  0.00    +0.000 A 
ATOM      9  C   UNL     1      -0.614  12.710  19.939  0.00  0.00    +0.000 A 
ATOM     10  C   UNL     1      -0.270  11.552  19.204  0.00  0.00    +0.000 A 
BRANCH  10  11
ATOM     11  C   UNL     1      -1.346  10.490  19.073  0.00  0.00    +0.000 C 
BRANCH  11  12
ATOM     12  C   UNL     1      -2.276  10.611  17.879  0.00  0.00    +0.000 A 
ATOM     13  C   UNL     1      -3.424  11.418  17.876  0.00  0.00    +0.000 A 
ATOM     14  C   UNL     1      -4.268  11.460  16.765  0.00  0.00    +0.000 A 
ATOM     15  C   UNL     1      -3.973  10.705  15.634  0.00  0.00    +0.000 A 
ATOM     16  C   UNL     1      -2.821   9.924  15.605  0.00  0.00    +0.000 A 
ATOM     17  C   UNL     1      -1.976   9.881  16.718  0.00  0.00    +0.000 A 
ENDBRANCH  11  12
ENDBRANCH  10  11
ENDBRANCH   3   5
BRANCH   2  18
ATOM     18  C   UNL     1       2.457   8.094  17.467  0.00  0.00    +0.000 C 
BRANCH  18  19
ATOM     19  N   UNL     1       3.569   7.353  18.062  0.00  0.00    +0.000 N 
ATOM     20  H   UNL     1       3.392   7.077  19.020  0.00  0.00    +0.000 HD
BRANCH  19  21
ATOM     21  C   UNL     1       4.108   6.268  17.326  0.00  0.00    +0.000 A 
ATOM     22  C   UNL     1       4.987   6.508  16.250  0.00  0.00    +0.000 A 
ATOM     23  C   UNL     1       5.590   5.465  15.551  0.00  0.00    +0.000 A 
ATOM     24  C   UNL     1       5.321   4.156  15.912  0.00  0.00    +0.000 A 
ATOM     25  C   UNL     1       4.394   3.893  16.923  0.00  0.00    +0.000 A 
ATOM     26  C   UNL     1       3.722   4.921  17.618  0.00  0.00    +0.000 A 
BRANCH  26  27
ATOM     27  N   UNL     1       2.738   4.591  18.548  0.00  0.00    +0.000 N 
ATOM     28  C   UNL     1       3.001   4.526  19.987  0.00  0.00    +0.000 C 
ATOM     29  C   UNL     1       2.810   3.097  20.501  0.00  0.00    +0.000 C 
ATOM     30  C   UNL     1       1.436   2.553  20.115  0.00  0.00    +0.000 C 
ATOM     31  C   UNL     1       1.228   2.659  18.610  0.00  0.00    +0.000 C 
ATOM     32  C   UNL     1       1.440   4.084  18.105  0.00  0.00    +0.000 C 
ENDBRANCH  26  27
ENDBRANCH  19  21
ENDBRANCH  18  19
ENDBRANCH   2  18
TORSDOF 7
ENDMDL
MODEL 3
REMARK VINA RESULT:      -9.1      1.781      3.597
REMARK  Name = 
REMARK  7 active torsions:
REMARK  status: ('A' for Active; 'I' for Inactive)
REMARK    1  A    between atoms: C_2  and  C_3
REMARK    2  A    between atoms: C_3  and  N_4
REMARK    3  A    between atoms: N_4  and  C_5
REMARK    4  A    between atoms: C_10  and  N_11
REMARK    5  A    between atoms: N_17  and  C_18
REMARK    6  A    between atoms: C_23  and  C_24
REMARK    7  A    between atoms: C_24  and  C_25
REMARK                            x       y       z     vdW  Elec       q    Type
REMARK                         _______ _______ _______ _____ _____    ______ ____
ROOT
ATOM      1  O   UNL     1       1.868   8.820  18.715  0.00  0.00    +0.000 OA
ATOM      2  C   UNL     1       1.406   8.886  19.849  0.00  0.00    +0.000 C 
ATOM      3  N   UNL     1       0.947  10.045  20.478  0.00  0.00    +0.000 N 
ATOM      4  H   UNL     1       0.838   9.999  21.481  0.00  0.00    +0.000 HD
ENDROOT
BRANCH   3   5
ATOM      5  C   UNL     1       0.709  11.300  19.854  0.00  0.00    +0.000 A 
ATOM      6  C   UNL     1       1.676  12.318  19.887  0.00  0.00    +0.000 A 
ATOM      7  C   UNL     1       1.459  13.557  19.279  0.00  0.00    +0.000 A 
ATOM      8  C   UNL     1       0.274  13.803  18.611  0.00  0.00    +0.000 A 
ATOM      9  C   UNL     1      -0.694  12.807  18.547  0.00  0.00    +0.000 A 
ATOM     10  C   UNL     1      -0.500  11.546  19.155  0.00  0.00    +0.000 A 
BRANCH  10  11
ATOM     11  C   UNL     1      -1.661  10.571  19.078  0.00  0.00    +0.000 C 
BRANCH  11  12
ATOM     12  C   UNL     1      -2.456  10.565  17.785  0.00  0.00    +0.000 A 
ATOM     13  C   UNL     1      -2.036   9.895  16.625  0.00  0.00    +0.000 A 
ATOM     14  C   UNL     1      -2.786   9.957  15.450  0.00  0.00    +0.000 A 
ATOM     15  C   UNL     1      -3.974  10.680  15.416  0.00  0.00    +0.000 A 
ATOM     16  C   UNL     1      -4.425  11.323  16.565  0.00  0.00    +0.000 A 
ATOM     17  C   UNL     1      -3.674  11.263  17.742  0.00  0.00    +0.000 A 
ENDBRANCH  11  12
ENDBRANCH  10  11
ENDBRANCH   3   5
BRANCH   2  18
ATOM     18  C   UNL     1       1.273   7.623  20.714  0.00  0.00    +0.000 C 
BRANCH  18  19
ATOM     19  N   UNL     1       2.425   6.739  20.540  0.00  0.00    +0.000 N 
ATOM     20  H   UNL     1       2.977   6.640  21.382  0.00  0.00    +0.000 HD
BRANCH  19  21
ATOM     21  C   UNL     1       2.200   5.472  19.944  0.00  0.00    +0.000 A 
ATOM     22  C   UNL     1       1.163   4.642  20.416  0.00  0.00    +0.000 A 
ATOM     23  C   UNL     1       0.868   3.423  19.808  0.00  0.00    +0.000 A 
ATOM     24  C   UNL     1       1.611   3.007  18.717  0.00  0.00    +0.000 A 
ATOM     25  C   UNL     1       2.693   3.775  18.281  0.00  0.00    +0.000 A 
ATOM     26  C   UNL     1       3.056   4.989  18.904  0.00  0.00    +0.000 A 
BRANCH  26  27
ATOM     27  N   UNL     1       4.203   5.659  18.483  0.00  0.00    +0.000 N 
ATOM     28  C   UNL     1       4.209   6.574  17.340  0.00  0.00    +0.000 C 
ATOM     29  C   UNL     1       5.109   6.032  16.227  0.00  0.00    +0.000 C 
ATOM     30  C   UNL     1       6.508   5.719  16.754  0.00  0.00    +0.000 C 
ATOM     31  C   UNL     1       6.426   4.771  17.944  0.00  0.00    +0.000 C 
ATOM     32  C   UNL     1       5.510   5.312  19.039  0.00  0.00    +0.000 C 
ENDBRANCH  26  27
ENDBRANCH  19  21
ENDBRANCH  18  19
ENDBRANCH   2  18
TORSDOF 7
ENDMDL
MODEL 4
REMARK VINA RESULT:      -9.0      0.685      1.164
REMARK  Name = 
REMARK  7 active torsions:
REMARK  status: ('A' for Active; 'I' for Inactive)
REMARK    1  A    between atoms: C_2  and  C_3
REMARK    2  A    between atoms: C_3  and  N_4
REMARK    3  A    between atoms: N_4  and  C_5
REMARK    4  A    between atoms: C_10  and  N_11
REMARK    5  A    between atoms: N_17  and  C_18
REMARK    6  A    between atoms: C_23  and  C_24
REMARK    7  A    between atoms: C_24  and  C_25
REMARK                            x       y       z     vdW  Elec       q    Type
REMARK                         _______ _______ _______ _____ _____    ______ ____
ROOT
ATOM      1  O   UNL     1       2.278   7.285  20.340  0.00  0.00    +0.000 OA
ATOM      2  C   UNL     1       1.958   7.996  19.394  0.00  0.00    +0.000 C 
ATOM      3  N   UNL     1       0.998   9.010  19.421  0.00  0.00    +0.000 N 
ATOM      4  H   UNL     1       0.658   9.332  18.527  0.00  0.00    +0.000 HD
ENDROOT
BRANCH   3   5
ATOM      5  C   UNL     1       0.393   9.561  20.584  0.00  0.00    +0.000 A 
ATOM      6  C   UNL     1       0.480   8.907  21.823  0.00  0.00    +0.000 A 
ATOM      7  C   UNL     1      -0.108   9.434  22.976  0.00  0.00    +0.000 A 
ATOM      8  C   UNL     1      -0.785  10.638  22.919  0.00  0.00    +0.000 A 
ATOM      9  C   UNL     1      -0.872  11.318  21.709  0.00  0.00    +0.000 A 
ATOM     10  C   UNL     1      -0.288  10.804  20.529  0.00  0.00    +0.000 A 
BRANCH  10  11
ATOM     11  C   UNL     1      -0.516  11.603  19.258  0.00  0.00    +0.000 C 
BRANCH  11  12
ATOM     12  C   UNL     1      -1.708  11.199  18.409  0.00  0.00    +0.000 A 
ATOM     13  C   UNL     1      -1.637  10.237  17.390  0.00  0.00    +0.000 A 
ATOM     14  C   UNL     1      -2.755   9.934  16.611  0.00  0.00    +0.000 A 
ATOM     15  C   UNL     1      -3.965  10.579  16.843  0.00  0.00    +0.000 A 
ATOM     16  C   UNL     1      -4.065  11.512  17.872  0.00  0.00    +0.000 A 
ATOM     17  C   UNL     1      -2.945  11.817  18.652  0.00  0.00    +0.000 A 
ENDBRANCH  11  12
ENDBRANCH  10  11
ENDBRANCH   3   5
BRANCH   2  18
ATOM     18  C   UNL     1       2.637   7.830  18.026  0.00  0.00    +0.000 C 
BRANCH  18  19
ATOM     19  N   UNL     1       3.974   7.253  18.165  0.00  0.00    +0.000 N 
ATOM     20  H   UNL     1       4.187   6.976  19.115  0.00  0.00    +0.000 HD
BRANCH  19  21
ATOM     21  C   UNL     1       4.350   6.233  17.256  0.00  0.00    +0.000 A 
ATOM     22  C   UNL     1       5.098   6.552  16.103  0.00  0.00    +0.000 A 
ATOM     23  C   UNL     1       5.545   5.567  15.225  0.00  0.00    +0.000 A 
ATOM     24  C   UNL     1       5.248   4.239  15.481  0.00  0.00    +0.000 A 
ATOM     25  C   UNL     1       4.442   3.907  16.573  0.00  0.00    +0.000 A 
ATOM     26  C   UNL     1       3.926   4.881  17.454  0.00  0.00    +0.000 A 
BRANCH  26  27
ATOM     27  N   UNL     1       3.050   4.494  18.467  0.00  0.00    +0.000 N 
ATOM     28  C   UNL     1       3.505   4.148  19.815  0.00  0.00    +0.000 C 
ATOM     29  C   UNL     1       3.206   2.678  20.118  0.00  0.00    +0.000 C 
ATOM     30  C   UNL     1       1.732   2.356  19.879  0.00  0.00    +0.000 C 
ATOM     31  C   UNL     1       1.327   2.749  18.464  0.00  0.00    +0.000 C 
ATOM     32  C   UNL     1       1.648   4.211  18.166  0.00  0.00    +0.000 C 
ENDBRANCH  26  27
ENDBRANCH  19  21
ENDBRANCH  18  19
ENDBRANCH   2  18
TORSDOF 7
ENDMDL
MODEL 5
REMARK VINA RESULT:      -8.9      1.988      3.582
REMARK  Name = 
REMARK  7 active torsions:
REMARK  status: ('A' for Active; 'I' for Inactive)
REMARK    1  A    between atoms: C_2  and  C_3
REMARK    2  A    between atoms: C_3  and  N_4
REMARK    3  A    between atoms: N_4  and  C_5
REMARK    4  A    between atoms: C_10  and  N_11
REMARK    5  A    between atoms: N_17  and  C_18
REMARK    6  A    between atoms: C_23  and  C_24
REMARK    7  A    between atoms: C_24  and  C_25
REMARK                            x       y       z     vdW  Elec       q    Type
REMARK                         _______ _______ _______ _____ _____    ______ ____
ROOT
ATOM      1  O   UNL     1       1.418   8.761  19.877  0.00  0.00    +0.000 OA
ATOM      2  C   UNL     1       1.620   9.031  18.698  0.00  0.00    +0.000 C 
ATOM      3  N   UNL     1       1.326  10.245  18.075  0.00  0.00    +0.000 N 
ATOM      4  H   UNL     1       1.304  10.240  17.066  0.00  0.00    +0.000 HD
ENDROOT
BRANCH   3   5
ATOM      5  C   UNL     1       0.967  11.457  18.727  0.00  0.00    +0.000 A 
ATOM      6  C   UNL     1       1.903  12.490  18.897  0.00  0.00    +0.000 A 
ATOM      7  C   UNL     1       1.568  13.688  19.535  0.00  0.00    +0.000 A 
ATOM      8  C   UNL     1       0.284  13.886  20.005  0.00  0.00    +0.000 A 
ATOM      9  C   UNL     1      -0.669  12.888  19.834  0.00  0.00    +0.000 A 
ATOM     10  C   UNL     1      -0.355  11.667  19.194  0.00  0.00    +0.000 A 
BRANCH  10  11
ATOM     11  C   UNL     1      -1.461  10.630  19.137  0.00  0.00    +0.000 C 
BRANCH  11  12
ATOM     12  C   UNL     1      -2.311  10.614  17.880  0.00  0.00    +0.000 A 
ATOM     13  C   UNL     1      -1.992   9.855  16.743  0.00  0.00    +0.000 A 
ATOM     14  C   UNL     1      -2.787   9.910  15.597  0.00  0.00    +0.000 A 
ATOM     15  C   UNL     1      -3.921  10.716  15.571  0.00  0.00    +0.000 A 
ATOM     16  C   UNL     1      -4.273  11.450  16.700  0.00  0.00    +0.000 A 
ATOM     17  C   UNL     1      -3.477  11.396  17.848  0.00  0.00    +0.000 A 
ENDBRANCH  11  12
ENDBRANCH  10  11
ENDBRANCH   3   5
BRANCH   2  18
ATOM     18  C   UNL     1       2.264   7.999  17.759  0.00  0.00    +0.000 C 
BRANCH  18  19
ATOM     19  N   UNL     1       3.075   7.038  18.506  0.00  0.00    +0.000 N 
ATOM     20  H   UNL     1       3.083   7.217  19.502  0.00  0.00    +0.000 HD
BRANCH  19  21
ATOM     21  C   UNL     1       2.863   5.659  18.253  0.00  0.00    +0.000 A 
ATOM     22  C   UNL     1       1.760   4.994  18.829  0.00  0.00    +0.000 A 
ATOM     23  C   UNL     1       1.481   3.659  18.545  0.00  0.00    +0.000 A 
ATOM     24  C   UNL     1       2.305   2.958  17.681  0.00  0.00    +0.000 A 
ATOM     25  C   UNL     1       3.447   3.572  17.161  0.00  0.00    +0.000 A 
ATOM     26  C   UNL     1       3.792   4.906  17.467  0.00  0.00    +0.000 A 
BRANCH  26  27
ATOM     27  N   UNL     1       4.994   5.429  16.993  0.00  0.00    +0.000 N 
ATOM     28  C   UNL     1       5.147   5.953  15.634  0.00  0.00    +0.000 C 
ATOM     29  C   UNL     1       6.150   5.108  14.846  0.00  0.00    +0.000 C 
ATOM     30  C   UNL     1       7.475   4.985  15.596  0.00  0.00    +0.000 C 
ATOM     31  C   UNL     1       7.241   4.443  17.000  0.00  0.00    +0.000 C 
ATOM     32  C   UNL     1       6.223   5.282  17.771  0.00  0.00    +0.000 C 
ENDBRANCH  26  27
ENDBRANCH  19  21
ENDBRANCH  18  19
ENDBRANCH   2  18
TORSDOF 7
ENDMDL
MODEL 6
REMARK VINA RESULT:      -8.9      1.113      2.957
REMARK  Name = 
REMARK  7 active torsions:
REMARK  status: ('A' for Active; 'I' for Inactive)
REMARK    1  A    between atoms: C_2  and  C_3
REMARK    2  A    between atoms: C_3  and  N_4
REMARK    3  A    between atoms: N_4  and  C_5
REMARK    4  A    between atoms: C_10  and  N_11
REMARK    5  A    between atoms: N_17  and  C_18
REMARK    6  A    between atoms: C_23  and  C_24
REMARK    7  A    between atoms: C_24  and  C_25
REMARK                            x       y       z     vdW  Elec       q    Type
REMARK                         _______ _______ _______ _____ _____    ______ ____
ROOT
ATOM      1  O   UNL     1       1.556   6.620  20.895  0.00  0.00    +0.000 OA
ATOM      2  C   UNL     1       1.886   7.445  20.050  0.00  0.00    +0.000 C 
ATOM      3  N   UNL     1       1.401   8.750  19.948  0.00  0.00    +0.000 N 
ATOM      4  H   UNL     1       1.560   9.223  19.071  0.00  0.00    +0.000 HD
ENDROOT
BRANCH   3   5
ATOM      5  C   UNL     1       0.629   9.437  20.926  0.00  0.00    +0.000 A 
ATOM      6  C   UNL     1       0.554   8.967  22.247  0.00  0.00    +0.000 A 
ATOM      7  C   UNL     1      -0.199   9.630  23.220  0.00  0.00    +0.000 A 
ATOM      8  C   UNL     1      -0.883  10.787  22.898  0.00  0.00    +0.000 A 
ATOM      9  C   UNL     1      -0.812  11.285  21.602  0.00  0.00    +0.000 A 
ATOM     10  C   UNL     1      -0.059  10.633  20.599  0.00  0.00    +0.000 A 
BRANCH  10  11
ATOM     11  C   UNL     1      -0.122  11.235  19.207  0.00  0.00    +0.000 C 
BRANCH  11  12
ATOM     12  C   UNL     1      -1.377  10.953  18.402  0.00  0.00    +0.000 A 
ATOM     13  C   UNL     1      -1.445   9.976  17.398  0.00  0.00    +0.000 A 
ATOM     14  C   UNL     1      -2.614   9.786  16.658  0.00  0.00    +0.000 A 
ATOM     15  C   UNL     1      -3.739  10.562  16.918  0.00  0.00    +0.000 A 
ATOM     16  C   UNL     1      -3.702  11.514  17.934  0.00  0.00    +0.000 A 
ATOM     17  C   UNL     1      -2.532  11.705  18.673  0.00  0.00    +0.000 A 
ENDBRANCH  11  12
ENDBRANCH  10  11
ENDBRANCH   3   5
BRANCH   2  18
ATOM     18  C   UNL     1       2.932   7.094  18.981  0.00  0.00    +0.000 C 
BRANCH  18  19
ATOM     19  N   UNL     1       2.339   6.310  17.897  0.00  0.00    +0.000 N 
ATOM     20  H   UNL     1       2.575   6.665  16.979  0.00  0.00    +0.000 HD
BRANCH  19  21
ATOM     21  C   UNL     1       2.496   4.902  17.940  0.00  0.00    +0.000 A 
ATOM     22  C   UNL     1       1.485   4.092  18.495  0.00  0.00    +0.000 A 
ATOM     23  C   UNL     1       1.574   2.701  18.488  0.00  0.00    +0.000 A 
ATOM     24  C   UNL     1       2.684   2.091  17.929  0.00  0.00    +0.000 A 
ATOM     25  C   UNL     1       3.735   2.875  17.444  0.00  0.00    +0.000 A 
ATOM     26  C   UNL     1       3.704   4.286  17.482  0.00  0.00    +0.000 A 
BRANCH  26  27
ATOM     27  N   UNL     1       4.824   5.006  17.072  0.00  0.00    +0.000 N 
ATOM     28  C   UNL     1       5.033   5.419  15.682  0.00  0.00    +0.000 C 
ATOM     29  C   UNL     1       6.275   4.738  15.104  0.00  0.00    +0.000 C 
ATOM     30  C   UNL     1       7.495   4.975  15.991  0.00  0.00    +0.000 C 
ATOM     31  C   UNL     1       7.206   4.532  17.420  0.00  0.00    +0.000 C 
ATOM     32  C   UNL     1       5.953   5.202  17.979  0.00  0.00    +0.000 C 
ENDBRANCH  26  27
ENDBRANCH  19  21
ENDBRANCH  18  19
ENDBRANCH   2  18
TORSDOF 7
ENDMDL
MODEL 7
REMARK VINA RESULT:      -8.9      1.821      3.630
REMARK  Name = 
REMARK  7 active torsions:
REMARK  status: ('A' for Active; 'I' for Inactive)
REMARK    1  A    between atoms: C_2  and  C_3
REMARK    2  A    between atoms: C_3  and  N_4
REMARK    3  A    between atoms: N_4  and  C_5
REMARK    4  A    between atoms: C_10  and  N_11
REMARK    5  A    between atoms: N_17  and  C_18
REMARK    6  A    between atoms: C_23  and  C_24
REMARK    7  A    between atoms: C_24  and  C_25
REMARK                            x       y       z     vdW  Elec       q    Type
REMARK                         _______ _______ _______ _____ _____    ______ ____
ROOT
ATOM      1  O   UNL     1       1.394   8.994  20.588  0.00  0.00    +0.000 OA
ATOM      2  C   UNL     1       1.607   8.822  19.394  0.00  0.00    +0.000 C 
ATOM      3  N   UNL     1       1.422   9.769  18.385  0.00  0.00    +0.000 N 
ATOM      4  H   UNL     1       1.388   9.418  17.439  0.00  0.00    +0.000 HD
ENDROOT
BRANCH   3   5
ATOM      5  C   UNL     1       1.187  11.159  18.572  0.00  0.00    +0.000 A 
ATOM      6  C   UNL     1       2.238  12.086  18.496  0.00  0.00    +0.000 A 
ATOM      7  C   UNL     1       2.026  13.455  18.677  0.00  0.00    +0.000 A 
ATOM      8  C   UNL     1       0.752  13.932  18.924  0.00  0.00    +0.000 A 
ATOM      9  C   UNL     1      -0.312  13.038  18.986  0.00  0.00    +0.000 A 
ATOM     10  C   UNL     1      -0.123  11.649  18.809  0.00  0.00    +0.000 A 
BRANCH  10  11
ATOM     11  C   UNL     1      -1.351  10.772  18.975  0.00  0.00    +0.000 C 
BRANCH  11  12
ATOM     12  C   UNL     1      -2.276  10.667  17.776  0.00  0.00    +0.000 A 
ATOM     13  C   UNL     1      -2.017   9.837  16.674  0.00  0.00    +0.000 A 
ATOM     14  C   UNL     1      -2.881   9.810  15.577  0.00  0.00    +0.000 A 
ATOM     15  C   UNL     1      -4.024  10.604  15.568  0.00  0.00    +0.000 A 
ATOM     16  C   UNL     1      -4.316  11.408  16.667  0.00  0.00    +0.000 A 
ATOM     17  C   UNL     1      -3.451  11.436  17.764  0.00  0.00    +0.000 A 
ENDBRANCH  11  12
ENDBRANCH  10  11
ENDBRANCH   3   5
BRANCH   2  18
ATOM     18  C   UNL     1       2.140   7.475  18.881  0.00  0.00    +0.000 C 
BRANCH  18  19
ATOM     19  N   UNL     1       2.713   6.683  19.970  0.00  0.00    +0.000 N 
ATOM     20  H   UNL     1       2.403   6.987  20.884  0.00  0.00    +0.000 HD
BRANCH  19  21
ATOM     21  C   UNL     1       2.642   5.271  19.867  0.00  0.00    +0.000 A 
ATOM     22  C   UNL     1       1.730   4.548  20.662  0.00  0.00    +0.000 A 
ATOM     23  C   UNL     1       1.583   3.168  20.536  0.00  0.00    +0.000 A 
ATOM     24  C   UNL     1       2.353   2.481  19.612  0.00  0.00    +0.000 A 
ATOM     25  C   UNL     1       3.318   3.165  18.870  0.00  0.00    +0.000 A 
ATOM     26  C   UNL     1       3.534   4.553  19.008  0.00  0.00    +0.000 A 
BRANCH  26  27
ATOM     27  N   UNL     1       4.577   5.158  18.309  0.00  0.00    +0.000 N 
ATOM     28  C   UNL     1       4.527   5.395  16.864  0.00  0.00    +0.000 C 
ATOM     29  C   UNL     1       5.612   4.583  16.153  0.00  0.00    +0.000 C 
ATOM     30  C   UNL     1       6.987   4.852  16.760  0.00  0.00    +0.000 C 
ATOM     31  C   UNL     1       6.963   4.593  18.261  0.00  0.00    +0.000 C 
ATOM     32  C   UNL     1       5.865   5.393  18.958  0.00  0.00    +0.000 C 
ENDBRANCH  26  27
ENDBRANCH  19  21
ENDBRANCH  18  19
ENDBRANCH   2  18
TORSDOF 7
ENDMDL
MODEL 8
REMARK VINA RESULT:      -8.9      1.295      3.096
REMARK  Name = 
REMARK  7 active torsions:
REMARK  status: ('A' for Active; 'I' for Inactive)
REMARK    1  A    between atoms: C_2  and  C_3
REMARK    2  A    between atoms: C_3  and  N_4
REMARK    3  A    between atoms: N_4  and  C_5
REMARK    4  A    between atoms: C_10  and  N_11
REMARK    5  A    between atoms: N_17  and  C_18
REMARK    6  A    between atoms: C_23  and  C_24
REMARK    7  A    between atoms: C_24  and  C_25
REMARK                            x       y       z     vdW  Elec       q    Type
REMARK                         _______ _______ _______ _____ _____    ______ ____
ROOT
ATOM      1  O   UNL     1       1.849   8.921  22.103  0.00  0.00    +0.000 OA
ATOM      2  C   UNL     1       1.228   8.706  21.068  0.00  0.00    +0.000 C 
ATOM      3  N   UNL     1       0.016   9.296  20.703  0.00  0.00    +0.000 N 
ATOM      4  H   UNL     1      -0.501   8.842  19.964  0.00  0.00    +0.000 HD
ENDROOT
BRANCH   3   5
ATOM      5  C   UNL     1      -0.596  10.414  21.334  0.00  0.00    +0.000 A 
ATOM      6  C   UNL     1      -0.918  10.385  22.700  0.00  0.00    +0.000 A 
ATOM      7  C   UNL     1      -1.519  11.475  23.336  0.00  0.00    +0.000 A 
ATOM      8  C   UNL     1      -1.800  12.625  22.623  0.00  0.00    +0.000 A 
ATOM      9  C   UNL     1      -1.475  12.688  21.272  0.00  0.00    +0.000 A 
ATOM     10  C   UNL     1      -0.868  11.599  20.605  0.00  0.00    +0.000 A 
BRANCH  10  11
ATOM     11  C   UNL     1      -0.632  11.765  19.115  0.00  0.00    +0.000 C 
BRANCH  11  12
ATOM     12  C   UNL     1      -1.710  11.224  18.194  0.00  0.00    +0.000 A 
ATOM     13  C   UNL     1      -1.507  10.143  17.322  0.00  0.00    +0.000 A 
ATOM     14  C   UNL     1      -2.521   9.713  16.465  0.00  0.00    +0.000 A 
ATOM     15  C   UNL     1      -3.759  10.348  16.472  0.00  0.00    +0.000 A 
ATOM     16  C   UNL     1      -3.991  11.401  17.353  0.00  0.00    +0.000 A 
ATOM     17  C   UNL     1      -2.975  11.833  18.211  0.00  0.00    +0.000 A 
ENDBRANCH  11  12
ENDBRANCH  10  11
ENDBRANCH   3   5
BRANCH   2  18
ATOM     18  C   UNL     1       1.772   7.722  20.021  0.00  0.00    +0.000 C 
BRANCH  18  19
ATOM     19  N   UNL     1       2.328   6.527  20.656  0.00  0.00    +0.000 N 
ATOM     20  H   UNL     1       2.088   6.453  21.637  0.00  0.00    +0.000 HD
BRANCH  19  21
ATOM     21  C   UNL     1       2.134   5.283  20.004  0.00  0.00    +0.000 A 
ATOM     22  C   UNL     1       1.111   4.411  20.431  0.00  0.00    +0.000 A 
ATOM     23  C   UNL     1       0.847   3.214  19.769  0.00  0.00    +0.000 A 
ATOM     24  C   UNL     1       1.607   2.861  18.667  0.00  0.00    +0.000 A 
ATOM     25  C   UNL     1       2.676   3.670  18.274  0.00  0.00    +0.000 A 
ATOM     26  C   UNL     1       3.009   4.863  18.952  0.00  0.00    +0.000 A 
BRANCH  26  27
ATOM     27  N   UNL     1       4.145   5.574  18.571  0.00  0.00    +0.000 N 
ATOM     28  C   UNL     1       4.149   6.514  17.448  0.00  0.00    +0.000 C 
ATOM     29  C   UNL     1       5.087   6.023  16.343  0.00  0.00    +0.000 C 
ATOM     30  C   UNL     1       6.482   5.738  16.894  0.00  0.00    +0.000 C 
ATOM     31  C   UNL     1       6.403   4.761  18.061  0.00  0.00    +0.000 C 
ATOM     32  C   UNL     1       5.449   5.252  19.147  0.00  0.00    +0.000 C 
ENDBRANCH  26  27
ENDBRANCH  19  21
ENDBRANCH  18  19
ENDBRANCH   2  18
TORSDOF 7
ENDMDL
MODEL 9
REMARK VINA RESULT:      -8.8      2.131      2.843
REMARK  Name = 
REMARK  7 active torsions:
REMARK  status: ('A' for Active; 'I' for Inactive)
REMARK    1  A    between atoms: C_2  and  C_3
REMARK    2  A    between atoms: C_3  and  N_4
REMARK    3  A    between atoms: N_4  and  C_5
REMARK    4  A    between atoms: C_10  and  N_11
REMARK    5  A    between atoms: N_17  and  C_18
REMARK    6  A    between atoms: C_23  and  C_24
REMARK    7  A    between atoms: C_24  and  C_25
REMARK                            x       y       z     vdW  Elec       q    Type
REMARK                         _______ _______ _______ _____ _____    ______ ____
ROOT
ATOM      1  O   UNL     1       1.921   9.760  17.326  0.00  0.00    +0.000 OA
ATOM      2  C   UNL     1       1.742   9.513  18.514  0.00  0.00    +0.000 C 
ATOM      3  N   UNL     1       1.404  10.441  19.500  0.00  0.00    +0.000 N 
ATOM      4  H   UNL     1       1.540  10.151  20.457  0.00  0.00    +0.000 HD
ENDROOT
BRANCH   3   5
ATOM      5  C   UNL     1       0.974  11.779  19.281  0.00  0.00    +0.000 A 
ATOM      6  C   UNL     1       1.898  12.836  19.244  0.00  0.00    +0.000 A 
ATOM      7  C   UNL     1       1.494  14.157  19.029  0.00  0.00    +0.000 A 
ATOM      8  C   UNL     1       0.157  14.450  18.833  0.00  0.00    +0.000 A 
ATOM      9  C   UNL     1      -0.777  13.419  18.846  0.00  0.00    +0.000 A 
ATOM     10  C   UNL     1      -0.395  12.076  19.063  0.00  0.00    +0.000 A 
BRANCH  10  11
ATOM     11  C   UNL     1      -1.516  11.056  19.130  0.00  0.00    +0.000 C 
BRANCH  11  12
ATOM     12  C   UNL     1      -2.362  10.895  17.879  0.00  0.00    +0.000 A 
ATOM     13  C   UNL     1      -3.586  11.554  17.687  0.00  0.00    +0.000 A 
ATOM     14  C   UNL     1      -4.344  11.337  16.535  0.00  0.00    +0.000 A 
ATOM     15  C   UNL     1      -3.887  10.467  15.550  0.00  0.00    +0.000 A 
ATOM     16  C   UNL     1      -2.659   9.830  15.707  0.00  0.00    +0.000 A 
ATOM     17  C   UNL     1      -1.900  10.046  16.861  0.00  0.00    +0.000 A 
ENDBRANCH  11  12
ENDBRANCH  10  11
ENDBRANCH   3   5
BRANCH   2  18
ATOM     18  C   UNL     1       1.869   8.075  19.041  0.00  0.00    +0.000 C 
BRANCH  18  19
ATOM     19  N   UNL     1       2.245   7.150  17.971  0.00  0.00    +0.000 N 
ATOM     20  H   UNL     1       2.173   7.563  17.049  0.00  0.00    +0.000 HD
BRANCH  19  21
ATOM     21  C   UNL     1       3.470   6.450  18.105  0.00  0.00    +0.000 A 
ATOM     22  C   UNL     1       4.608   6.867  17.385  0.00  0.00    +0.000 A 
ATOM     23  C   UNL     1       5.845   6.246  17.547  0.00  0.00    +0.000 A 
ATOM     24  C   UNL     1       5.967   5.188  18.431  0.00  0.00    +0.000 A 
ATOM     25  C   UNL     1       4.836   4.706  19.096  0.00  0.00    +0.000 A 
ATOM     26  C   UNL     1       3.556   5.275  18.917  0.00  0.00    +0.000 A 
BRANCH  26  27
ATOM     27  N   UNL     1       2.454   4.687  19.535  0.00  0.00    +0.000 N 
ATOM     28  C   UNL     1       2.147   4.880  20.954  0.00  0.00    +0.000 C 
ATOM     29  C   UNL     1       2.244   3.551  21.706  0.00  0.00    +0.000 C 
ATOM     30  C   UNL     1       1.381   2.479  21.044  0.00  0.00    +0.000 C 
ATOM     31  C   UNL     1       1.747   2.338  19.572  0.00  0.00    +0.000 C 
ATOM     32  C   UNL     1       1.666   3.673  18.836  0.00  0.00    +0.000 C 
ENDBRANCH  26  27
ENDBRANCH  19  21
ENDBRANCH  18  19
ENDBRANCH   2  18
TORSDOF 7
ENDMDL
