MODEL 1
REMARK VINA RESULT:      -9.3      0.000      0.000
REMARK  Name = 
REMARK  6 active torsions:
REMARK  status: ('A' for Active; 'I' for Inactive)
REMARK    1  A    between atoms: C_1  and  C_2
REMARK    2  A    between atoms: C_4  and  S_5
REMARK    3  A    between atoms: S_5  and  N_6
REMARK    4  A    between atoms: C_11  and  C_12
REMARK    5  A    between atoms: C_12  and  N_13
REMARK    6  A    between atoms: C_20  and  C_21
REMARK                            x       y       z     vdW  Elec       q    Type
REMARK                         _______ _______ _______ _____ _____    ______ ____
ROOT
ATOM      1  N   UNL     1       2.136   6.777  20.659  0.00  0.00    +0.000 N 
ATOM      2  C   UNL     1       2.183   5.484  20.202  0.00  0.00    +0.000 A 
ATOM      3  C   UNL     1       1.246   4.449  20.745  0.00  0.00    +0.000 A 
ATOM      4  C   UNL     1       1.327   3.194  20.284  0.00  0.00    +0.000 A 
ATOM      5  C   UNL     1       2.251   2.897  19.267  0.00  0.00    +0.000 A 
ATOM      6  N   UNL     1       2.512   1.792  18.607  0.00  0.00    +0.000 NA
ATOM      7  N   UNL     1       3.547   2.061  17.744  0.00  0.00    +0.000 NA
ATOM      8  C   UNL     1       3.895   3.336  17.878  0.00  0.00    +0.000 A 
ATOM      9  N   UNL     1       3.085   3.912  18.847  0.00  0.00    +0.000 N 
ATOM     10  N   UNL     1       3.105   5.208  19.319  0.00  0.00    +0.000 NA
ATOM     11  H   UNL     1       3.034   7.190  20.881  0.00  0.00    +0.000 HD
ENDROOT
BRANCH   8  12
ATOM     12  C   UNL     1       5.012   3.990  17.193  0.00  0.00    +0.000 A 
ATOM     13  C   UNL     1       6.192   4.351  17.856  0.00  0.00    +0.000 A 
ATOM     14  C   UNL     1       7.274   4.882  17.148  0.00  0.00    +0.000 A 
ATOM     15  C   UNL     1       7.181   5.074  15.772  0.00  0.00    +0.000 A 
ATOM     16  C   UNL     1       5.998   4.766  15.107  0.00  0.00    +0.000 A 
ATOM     17  C   UNL     1       4.915   4.238  15.816  0.00  0.00    +0.000 A 
ENDBRANCH   8  12
BRANCH   1  18
ATOM     18  C   UNL     1       0.968   7.503  21.111  0.00  0.00    +0.000 C 
BRANCH  18  25
ATOM     19  C   UNL     1       0.015   9.928  22.756  0.00  0.00    +0.000 C 
ATOM     20  C   UNL     1       0.522  10.044  21.345  0.00  0.00    +0.000 A 
ATOM     21  C   UNL     1       0.495  11.321  20.752  0.00  0.00    +0.000 A 
ATOM     22  C   UNL     1       0.909  11.502  19.432  0.00  0.00    +0.000 A 
ATOM     23  C   UNL     1       1.380  10.427  18.685  0.00  0.00    +0.000 A 
ATOM     24  C   UNL     1       1.406   9.154  19.262  0.00  0.00    +0.000 A 
ATOM     25  C   UNL     1       0.977   8.935  20.590  0.00  0.00    +0.000 A 
BRANCH  22  26
ATOM     26  S   UNL     1       0.848  13.116  18.723  0.00  0.00    +0.000 S 
ATOM     27  O   UNL     1      -0.381  13.274  17.994  0.00  0.00    +0.000 OA
ATOM     28  O   UNL     1       1.304  14.088  19.703  0.00  0.00    +0.000 OA
BRANCH  26  29
ATOM     29  N   UNL     1       2.067  13.027  17.570  0.00  0.00    +0.000 NA
ATOM     30  H   UNL     1       2.319  13.966  17.261  0.00  0.00    +0.000 HD
ATOM     31  H   UNL     1       2.849  12.484  17.929  0.00  0.00    +0.000 HD
ENDBRANCH  26  29
ENDBRANCH  22  26
ENDBRANCH  18  25
ENDBRANCH   1  18
TORSDOF 5
ENDMDL
MODEL 2
REMARK VINA RESULT:      -9.1      0.759      1.214
REMARK  Name = 
REMARK  6 active torsions:
REMARK  status: ('A' for Active; 'I' for Inactive)
REMARK    1  A    between atoms: C_1  and  C_2
REMARK    2  A    between atoms: C_4  and  S_5
REMARK    3  A    between atoms: S_5  and  N_6
REMARK    4  A    between atoms: C_11  and  C_12
REMARK    5  A    between atoms: C_12  and  N_13
REMARK    6  A    between atoms: C_20  and  C_21
REMARK                            x       y       z     vdW  Elec       q    Type
REMARK                         _______ _______ _______ _____ _____    ______ ____
ROOT
ATOM      1  N   UNL     1       2.017   6.878  20.764  0.00  0.00    +0.000 N 
ATOM      2  C   UNL     1       2.109   5.593  20.295  0.00  0.00    +0.000 A 
ATOM      3  C   UNL     1       1.192   4.525  20.809  0.00  0.00    +0.000 A 
ATOM      4  C   UNL     1       1.318   3.278  20.336  0.00  0.00    +0.000 A 
ATOM      5  C   UNL     1       2.268   3.020  19.332  0.00  0.00    +0.000 A 
ATOM      6  N   UNL     1       2.573   1.930  18.665  0.00  0.00    +0.000 NA
ATOM      7  N   UNL     1       3.614   2.239  17.823  0.00  0.00    +0.000 NA
ATOM      8  C   UNL     1       3.923   3.522  17.978  0.00  0.00    +0.000 A 
ATOM      9  N   UNL     1       3.079   4.063  18.939  0.00  0.00    +0.000 N 
ATOM     10  N   UNL     1       3.054   5.353  19.425  0.00  0.00    +0.000 NA
ATOM     11  H   UNL     1       2.899   7.314  21.008  0.00  0.00    +0.000 HD
ENDROOT
BRANCH   8  12
ATOM     12  C   UNL     1       5.032   4.215  17.321  0.00  0.00    +0.000 A 
ATOM     13  C   UNL     1       4.957   4.667  15.997  0.00  0.00    +0.000 A 
ATOM     14  C   UNL     1       5.998   5.414  15.437  0.00  0.00    +0.000 A 
ATOM     15  C   UNL     1       7.134   5.700  16.190  0.00  0.00    +0.000 A 
ATOM     16  C   UNL     1       7.245   5.216  17.491  0.00  0.00    +0.000 A 
ATOM     17  C   UNL     1       6.205   4.468  18.048  0.00  0.00    +0.000 A 
ENDBRANCH   8  12
BRANCH   1  18
ATOM     18  C   UNL     1       0.821   7.565  21.204  0.00  0.00    +0.000 C 
BRANCH  18  25
ATOM     19  C   UNL     1      -0.202   9.968  22.840  0.00  0.00    +0.000 C 
ATOM     20  C   UNL     1       0.298  10.093  21.427  0.00  0.00    +0.000 A 
ATOM     21  C   UNL     1       0.230  11.365  20.828  0.00  0.00    +0.000 A 
ATOM     22  C   UNL     1       0.636  11.553  19.506  0.00  0.00    +0.000 A 
ATOM     23  C   UNL     1       1.137  10.489  18.763  0.00  0.00    +0.000 A 
ATOM     24  C   UNL     1       1.204   9.220  19.346  0.00  0.00    +0.000 A 
ATOM     25  C   UNL     1       0.785   8.994  20.676  0.00  0.00    +0.000 A 
BRANCH  22  26
ATOM     26  S   UNL     1       0.524  13.161  18.789  0.00  0.00    +0.000 S 
ATOM     27  O   UNL     1       0.072  14.098  19.782  0.00  0.00    +0.000 OA
ATOM     28  O   UNL     1       1.698  13.402  17.966  0.00  0.00    +0.000 OA
BRANCH  26  29
ATOM     29  N   UNL     1      -0.753  12.965  17.715  0.00  0.00    +0.000 NA
ATOM     30  H   UNL     1      -1.298  12.142  17.974  0.00  0.00    +0.000 HD
ATOM     31  H   UNL     1      -1.296  13.824  17.658  0.00  0.00    +0.000 HD
ENDBRANCH  26  29
ENDBRANCH  22  26
ENDBRANCH  18  25
ENDBRANCH   1  18
TORSDOF 5
ENDMDL
MODEL 3
REMARK VINA RESULT:      -9.1      1.460      1.846
REMARK  Name = 
REMARK  6 active torsions:
REMARK  status: ('A' for Active; 'I' for Inactive)
REMARK    1  A    between atoms: C_1  and  C_2
REMARK    2  A    between atoms: C_4  and  S_5
REMARK    3  A    between atoms: S_5  and  N_6
REMARK    4  A    between atoms: C_11  and  C_12
REMARK    5  A    between atoms: C_12  and  N_13
REMARK    6  A    between atoms: C_20  and  C_21
REMARK                            x       y       z     vdW  Elec       q    Type
REMARK                         _______ _______ _______ _____ _____    ______ ____
ROOT
ATOM      1  N   UNL     1       1.707   7.234  21.166  0.00  0.00    +0.000 N 
ATOM      2  C   UNL     1       2.013   6.103  20.451  0.00  0.00    +0.000 A 
ATOM      3  C   UNL     1       1.073   4.937  20.431  0.00  0.00    +0.000 A 
ATOM      4  C   UNL     1       1.408   3.845  19.730  0.00  0.00    +0.000 A 
ATOM      5  C   UNL     1       2.605   3.847  18.992  0.00  0.00    +0.000 A 
ATOM      6  N   UNL     1       3.153   2.956  18.196  0.00  0.00    +0.000 NA
ATOM      7  N   UNL     1       4.353   3.469  17.767  0.00  0.00    +0.000 NA
ATOM      8  C   UNL     1       4.517   4.676  18.297  0.00  0.00    +0.000 A 
ATOM      9  N   UNL     1       3.413   4.960  19.091  0.00  0.00    +0.000 N 
ATOM     10  N   UNL     1       3.168   6.091  19.840  0.00  0.00    +0.000 NA
ATOM     11  H   UNL     1       2.461   7.601  21.736  0.00  0.00    +0.000 HD
ENDROOT
BRANCH   8  12
ATOM     12  C   UNL     1       5.706   5.517  18.149  0.00  0.00    +0.000 A 
ATOM     13  C   UNL     1       5.787   6.544  17.199  0.00  0.00    +0.000 A 
ATOM     14  C   UNL     1       6.899   7.390  17.155  0.00  0.00    +0.000 A 
ATOM     15  C   UNL     1       7.951   7.206  18.049  0.00  0.00    +0.000 A 
ATOM     16  C   UNL     1       7.908   6.160  18.967  0.00  0.00    +0.000 A 
ATOM     17  C   UNL     1       6.797   5.313  19.008  0.00  0.00    +0.000 A 
ENDBRANCH   8  12
BRANCH   1  18
ATOM     18  C   UNL     1       0.391   7.784  21.412  0.00  0.00    +0.000 C 
BRANCH  18  25
ATOM     19  C   UNL     1      -0.698  10.143  23.069  0.00  0.00    +0.000 C 
ATOM     20  C   UNL     1      -0.230  10.288  21.647  0.00  0.00    +0.000 A 
ATOM     21  C   UNL     1      -0.360  11.557  21.051  0.00  0.00    +0.000 A 
ATOM     22  C   UNL     1       0.013  11.762  19.722  0.00  0.00    +0.000 A 
ATOM     23  C   UNL     1       0.543  10.719  18.969  0.00  0.00    +0.000 A 
ATOM     24  C   UNL     1       0.672   9.454  19.549  0.00  0.00    +0.000 A 
ATOM     25  C   UNL     1       0.288   9.211  20.886  0.00  0.00    +0.000 A 
BRANCH  22  26
ATOM     26  S   UNL     1      -0.177  13.364  19.010  0.00  0.00    +0.000 S 
ATOM     27  O   UNL     1      -1.139  14.116  19.770  0.00  0.00    +0.000 OA
ATOM     28  O   UNL     1       1.132  13.895  18.667  0.00  0.00    +0.000 OA
BRANCH  26  29
ATOM     29  N   UNL     1      -0.917  12.999  17.547  0.00  0.00    +0.000 NA
ATOM     30  H   UNL     1      -0.399  12.257  17.074  0.00  0.00    +0.000 HD
ATOM     31  H   UNL     1      -1.902  12.789  17.696  0.00  0.00    +0.000 HD
ENDBRANCH  26  29
ENDBRANCH  22  26
ENDBRANCH  18  25
ENDBRANCH   1  18
TORSDOF 5
ENDMDL
MODEL 4
REMARK VINA RESULT:      -8.9      0.511      1.408
REMARK  Name = 
REMARK  6 active torsions:
REMARK  status: ('A' for Active; 'I' for Inactive)
REMARK    1  A    between atoms: C_1  and  C_2
REMARK    2  A    between atoms: C_4  and  S_5
REMARK    3  A    between atoms: S_5  and  N_6
REMARK    4  A    between atoms: C_11  and  C_12
REMARK    5  A    between atoms: C_12  and  N_13
REMARK    6  A    between atoms: C_20  and  C_21
REMARK                            x       y       z     vdW  Elec       q    Type
REMARK                         _______ _______ _______ _____ _____    ______ ____
ROOT
ATOM      1  N   UNL     1       2.185   6.993  20.480  0.00  0.00    +0.000 N 
ATOM      2  C   UNL     1       2.232   5.674  20.106  0.00  0.00    +0.000 A 
ATOM      3  C   UNL     1       1.289   4.677  20.708  0.00  0.00    +0.000 A 
ATOM      4  C   UNL     1       1.370   3.395  20.328  0.00  0.00    +0.000 A 
ATOM      5  C   UNL     1       2.299   3.033  19.337  0.00  0.00    +0.000 A 
ATOM      6  N   UNL     1       2.562   1.887  18.750  0.00  0.00    +0.000 NA
ATOM      7  N   UNL     1       3.602   2.100  17.877  0.00  0.00    +0.000 NA
ATOM      8  C   UNL     1       3.952   3.380  17.933  0.00  0.00    +0.000 A 
ATOM      9  N   UNL     1       3.137   4.017  18.859  0.00  0.00    +0.000 N 
ATOM     10  N   UNL     1       3.158   5.340  19.247  0.00  0.00    +0.000 NA
ATOM     11  H   UNL     1       3.083   7.417  20.681  0.00  0.00    +0.000 HD
ENDROOT
BRANCH   8  12
ATOM     12  C   UNL     1       5.074   3.987  17.214  0.00  0.00    +0.000 A 
ATOM     13  C   UNL     1       6.262   4.362  17.855  0.00  0.00    +0.000 A 
ATOM     14  C   UNL     1       7.348   4.845  17.119  0.00  0.00    +0.000 A 
ATOM     15  C   UNL     1       7.251   4.976  15.736  0.00  0.00    +0.000 A 
ATOM     16  C   UNL     1       6.060   4.654  15.090  0.00  0.00    +0.000 A 
ATOM     17  C   UNL     1       4.974   4.173  15.827  0.00  0.00    +0.000 A 
ENDBRANCH   8  12
BRANCH   1  18
ATOM     18  C   UNL     1       1.016   7.748  20.879  0.00  0.00    +0.000 C 
BRANCH  18  25
ATOM     19  C   UNL     1       1.622   8.395  17.928  0.00  0.00    +0.000 C 
ATOM     20  C   UNL     1       1.356   9.455  18.960  0.00  0.00    +0.000 A 
ATOM     21  C   UNL     1       1.450  10.798  18.546  0.00  0.00    +0.000 A 
ATOM     22  C   UNL     1       1.258  11.839  19.456  0.00  0.00    +0.000 A 
ATOM     23  C   UNL     1       0.945  11.568  20.784  0.00  0.00    +0.000 A 
ATOM     24  C   UNL     1       0.854  10.238  21.206  0.00  0.00    +0.000 A 
ATOM     25  C   UNL     1       1.060   9.163  20.315  0.00  0.00    +0.000 A 
BRANCH  22  26
ATOM     26  S   UNL     1       1.398  13.507  18.899  0.00  0.00    +0.000 S 
ATOM     27  O   UNL     1       0.115  13.968  18.439  0.00  0.00    +0.000 OA
ATOM     28  O   UNL     1       2.204  14.262  19.843  0.00  0.00    +0.000 OA
BRANCH  26  29
ATOM     29  N   UNL     1       2.351  13.328  17.527  0.00  0.00    +0.000 NA
ATOM     30  H   UNL     1       2.124  14.060  16.852  0.00  0.00    +0.000 HD
ATOM     31  H   UNL     1       3.334  13.292  17.787  0.00  0.00    +0.000 HD
ENDBRANCH  26  29
ENDBRANCH  22  26
ENDBRANCH  18  25
ENDBRANCH   1  18
TORSDOF 5
ENDMDL
MODEL 5
REMARK VINA RESULT:      -8.4      2.003      2.752
REMARK  Name = 
REMARK  6 active torsions:
REMARK  status: ('A' for Active; 'I' for Inactive)
REMARK    1  A    between atoms: C_1  and  C_2
REMARK    2  A    between atoms: C_4  and  S_5
REMARK    3  A    between atoms: S_5  and  N_6
REMARK    4  A    between atoms: C_11  and  C_12
REMARK    5  A    between atoms: C_12  and  N_13
REMARK    6  A    between atoms: C_20  and  C_21
REMARK                            x       y       z     vdW  Elec       q    Type
REMARK                         _______ _______ _______ _____ _____    ______ ____
ROOT
ATOM      1  N   UNL     1       1.541   7.043  21.016  0.00  0.00    +0.000 N 
ATOM      2  C   UNL     1       1.972   5.892  20.406  0.00  0.00    +0.000 A 
ATOM      3  C   UNL     1       1.161   4.636  20.488  0.00  0.00    +0.000 A 
ATOM      4  C   UNL     1       1.617   3.528  19.889  0.00  0.00    +0.000 A 
ATOM      5  C   UNL     1       2.816   3.591  19.156  0.00  0.00    +0.000 A 
ATOM      6  N   UNL     1       3.463   2.696  18.445  0.00  0.00    +0.000 NA
ATOM      7  N   UNL     1       4.608   3.292  17.974  0.00  0.00    +0.000 NA
ATOM      8  C   UNL     1       4.638   4.552  18.394  0.00  0.00    +0.000 A 
ATOM      9  N   UNL     1       3.501   4.787  19.157  0.00  0.00    +0.000 N 
ATOM     10  N   UNL     1       3.129   5.948  19.802  0.00  0.00    +0.000 NA
ATOM     11  H   UNL     1       2.245   7.537  21.553  0.00  0.00    +0.000 HD
ENDROOT
BRANCH   8  12
ATOM     12  C   UNL     1       5.734   5.497  18.174  0.00  0.00    +0.000 A 
ATOM     13  C   UNL     1       5.666   6.517  17.216  0.00  0.00    +0.000 A 
ATOM     14  C   UNL     1       6.691   7.461  17.104  0.00  0.00    +0.000 A 
ATOM     15  C   UNL     1       7.803   7.385  17.938  0.00  0.00    +0.000 A 
ATOM     16  C   UNL     1       7.908   6.349  18.862  0.00  0.00    +0.000 A 
ATOM     17  C   UNL     1       6.885   5.405  18.971  0.00  0.00    +0.000 A 
ENDBRANCH   8  12
BRANCH   1  18
ATOM     18  C   UNL     1       0.172   7.471  21.208  0.00  0.00    +0.000 C 
BRANCH  18  25
ATOM     19  C   UNL     1       1.214   9.384  19.029  0.00  0.00    +0.000 C 
ATOM     20  C   UNL     1       0.577   9.865  20.303  0.00  0.00    +0.000 A 
ATOM     21  C   UNL     1       0.519  11.256  20.512  0.00  0.00    +0.000 A 
ATOM     22  C   UNL     1      -0.020  11.778  21.689  0.00  0.00    +0.000 A 
ATOM     23  C   UNL     1      -0.531  10.933  22.668  0.00  0.00    +0.000 A 
ATOM     24  C   UNL     1      -0.473   9.549  22.473  0.00  0.00    +0.000 A 
ATOM     25  C   UNL     1       0.081   8.989  21.301  0.00  0.00    +0.000 A 
BRANCH  22  26
ATOM     26  S   UNL     1      -0.062  13.527  21.915  0.00  0.00    +0.000 S 
ATOM     27  O   UNL     1       1.279  14.026  22.050  0.00  0.00    +0.000 OA
ATOM     28  O   UNL     1      -1.021  14.107  20.989  0.00  0.00    +0.000 OA
BRANCH  26  29
ATOM     29  N   UNL     1      -0.764  13.655  23.436  0.00  0.00    +0.000 NA
ATOM     30  H   UNL     1      -0.152  14.188  24.055  0.00  0.00    +0.000 HD
ATOM     31  H   UNL     1      -1.705  14.033  23.356  0.00  0.00    +0.000 HD
ENDBRANCH  26  29
ENDBRANCH  22  26
ENDBRANCH  18  25
ENDBRANCH   1  18
TORSDOF 5
ENDMDL
MODEL 6
REMARK VINA RESULT:      -8.3      4.375      8.620
REMARK  Name = 
REMARK  6 active torsions:
REMARK  status: ('A' for Active; 'I' for Inactive)
REMARK    1  A    between atoms: C_1  and  C_2
REMARK    2  A    between atoms: C_4  and  S_5
REMARK    3  A    between atoms: S_5  and  N_6
REMARK    4  A    between atoms: C_11  and  C_12
REMARK    5  A    between atoms: C_12  and  N_13
REMARK    6  A    between atoms: C_20  and  C_21
REMARK                            x       y       z     vdW  Elec       q    Type
REMARK                         _______ _______ _______ _____ _____    ______ ____
ROOT
ATOM      1  N   UNL     1       2.196   6.234  20.767  0.00  0.00    +0.000 N 
ATOM      2  C   UNL     1       2.012   7.322  19.951  0.00  0.00    +0.000 A 
ATOM      3  C   UNL     1       2.710   7.410  18.628  0.00  0.00    +0.000 A 
ATOM      4  C   UNL     1       2.515   8.491  17.862  0.00  0.00    +0.000 A 
ATOM      5  C   UNL     1       1.620   9.485  18.296  0.00  0.00    +0.000 A 
ATOM      6  N   UNL     1       1.208  10.604  17.744  0.00  0.00    +0.000 NA
ATOM      7  N   UNL     1       0.354  11.212  18.632  0.00  0.00    +0.000 NA
ATOM      8  C   UNL     1       0.244  10.447  19.712  0.00  0.00    +0.000 A 
ATOM      9  N   UNL     1       1.041   9.324  19.537  0.00  0.00    +0.000 N 
ATOM     10  N   UNL     1       1.243   8.274  20.408  0.00  0.00    +0.000 NA
ATOM     11  H   UNL     1       2.370   6.450  21.742  0.00  0.00    +0.000 HD
ENDROOT
BRANCH   8  12
ATOM     12  C   UNL     1      -0.509  10.785  20.921  0.00  0.00    +0.000 A 
ATOM     13  C   UNL     1      -0.385  10.057  22.112  0.00  0.00    +0.000 A 
ATOM     14  C   UNL     1      -1.044  10.470  23.274  0.00  0.00    +0.000 A 
ATOM     15  C   UNL     1      -1.848  11.607  23.252  0.00  0.00    +0.000 A 
ATOM     16  C   UNL     1      -2.020  12.313  22.065  0.00  0.00    +0.000 A 
ATOM     17  C   UNL     1      -1.363  11.898  20.904  0.00  0.00    +0.000 A 
ENDBRANCH   8  12
BRANCH   1  18
ATOM     18  C   UNL     1       2.442   4.868  20.359  0.00  0.00    +0.000 C 
BRANCH  18  25
ATOM     19  C   UNL     1       1.925   3.911  17.476  0.00  0.00    +0.000 C 
ATOM     20  C   UNL     1       3.280   4.346  17.964  0.00  0.00    +0.000 A 
ATOM     21  C   UNL     1       4.355   4.246  17.060  0.00  0.00    +0.000 A 
ATOM     22  C   UNL     1       5.649   4.590  17.451  0.00  0.00    +0.000 A 
ATOM     23  C   UNL     1       5.897   5.061  18.737  0.00  0.00    +0.000 A 
ATOM     24  C   UNL     1       4.838   5.159  19.644  0.00  0.00    +0.000 A 
ATOM     25  C   UNL     1       3.520   4.802  19.284  0.00  0.00    +0.000 A 
BRANCH  22  26
ATOM     26  S   UNL     1       6.969   4.440  16.291  0.00  0.00    +0.000 S 
ATOM     27  O   UNL     1       8.187   4.122  16.988  0.00  0.00    +0.000 OA
ATOM     28  O   UNL     1       6.511   3.682  15.139  0.00  0.00    +0.000 OA
BRANCH  26  29
ATOM     29  N   UNL     1       7.135   6.024  15.758  0.00  0.00    +0.000 NA
ATOM     30  H   UNL     1       6.788   6.666  16.472  0.00  0.00    +0.000 HD
ATOM     31  H   UNL     1       8.097   6.199  15.474  0.00  0.00    +0.000 HD
ENDBRANCH  26  29
ENDBRANCH  22  26
ENDBRANCH  18  25
ENDBRANCH   1  18
TORSDOF 5
ENDMDL
MODEL 7
REMARK VINA RESULT:      -8.3      4.541      8.497
REMARK  Name = 
REMARK  6 active torsions:
REMARK  status: ('A' for Active; 'I' for Inactive)
REMARK    1  A    between atoms: C_1  and  C_2
REMARK    2  A    between atoms: C_4  and  S_5
REMARK    3  A    between atoms: S_5  and  N_6
REMARK    4  A    between atoms: C_11  and  C_12
REMARK    5  A    between atoms: C_12  and  N_13
REMARK    6  A    between atoms: C_20  and  C_21
REMARK                            x       y       z     vdW  Elec       q    Type
REMARK                         _______ _______ _______ _____ _____    ______ ____
ROOT
ATOM      1  N   UNL     1       1.846   7.783  19.549  0.00  0.00    +0.000 N 
ATOM      2  C   UNL     1       1.203   8.671  20.374  0.00  0.00    +0.000 A 
ATOM      3  C   UNL     1       0.234   8.186  21.408  0.00  0.00    +0.000 A 
ATOM      4  C   UNL     1      -0.384   9.082  22.189  0.00  0.00    +0.000 A 
ATOM      5  C   UNL     1      -0.066  10.445  22.051  0.00  0.00    +0.000 A 
ATOM      6  N   UNL     1      -0.470  11.516  22.697  0.00  0.00    +0.000 NA
ATOM      7  N   UNL     1       0.141  12.602  22.117  0.00  0.00    +0.000 NA
ATOM      8  C   UNL     1       0.924  12.177  21.132  0.00  0.00    +0.000 A 
ATOM      9  N   UNL     1       0.823  10.794  21.057  0.00  0.00    +0.000 N 
ATOM     10  N   UNL     1       1.448   9.939  20.174  0.00  0.00    +0.000 NA
ATOM     11  H   UNL     1       1.857   8.034  18.568  0.00  0.00    +0.000 HD
ENDROOT
BRANCH   8  12
ATOM     12  C   UNL     1       1.683  13.033  20.219  0.00  0.00    +0.000 A 
ATOM     13  C   UNL     1       2.763  13.817  20.647  0.00  0.00    +0.000 A 
ATOM     14  C   UNL     1       3.525  14.544  19.727  0.00  0.00    +0.000 A 
ATOM     15  C   UNL     1       3.205  14.509  18.373  0.00  0.00    +0.000 A 
ATOM     16  C   UNL     1       2.106  13.773  17.938  0.00  0.00    +0.000 A 
ATOM     17  C   UNL     1       1.343  13.049  18.858  0.00  0.00    +0.000 A 
ENDBRANCH   8  12
BRANCH   1  18
ATOM     18  C   UNL     1       2.255   6.431  19.869  0.00  0.00    +0.000 C 
BRANCH  18  25
ATOM     19  C   UNL     1       3.536   3.633  20.014  0.00  0.00    +0.000 C 
ATOM     20  C   UNL     1       3.945   4.669  19.003  0.00  0.00    +0.000 A 
ATOM     21  C   UNL     1       5.003   4.341  18.134  0.00  0.00    +0.000 A 
ATOM     22  C   UNL     1       5.468   5.266  17.197  0.00  0.00    +0.000 A 
ATOM     23  C   UNL     1       4.877   6.520  17.090  0.00  0.00    +0.000 A 
ATOM     24  C   UNL     1       3.829   6.858  17.952  0.00  0.00    +0.000 A 
ATOM     25  C   UNL     1       3.348   5.951  18.921  0.00  0.00    +0.000 A 
BRANCH  22  26
ATOM     26  S   UNL     1       6.803   4.820  16.135  0.00  0.00    +0.000 S 
ATOM     27  O   UNL     1       6.394   3.742  15.275  0.00  0.00    +0.000 OA
ATOM     28  O   UNL     1       7.435   6.026  15.626  0.00  0.00    +0.000 OA
BRANCH  26  29
ATOM     29  N   UNL     1       7.897   4.158  17.225  0.00  0.00    +0.000 NA
ATOM     30  H   UNL     1       8.762   3.913  16.740  0.00  0.00    +0.000 HD
ATOM     31  H   UNL     1       8.027   4.786  18.015  0.00  0.00    +0.000 HD
ENDBRANCH  26  29
ENDBRANCH  22  26
ENDBRANCH  18  25
ENDBRANCH   1  18
TORSDOF 5
ENDMDL
MODEL 8
REMARK VINA RESULT:      -8.3      1.856      2.530
REMARK  Name = 
REMARK  6 active torsions:
REMARK  status: ('A' for Active; 'I' for Inactive)
REMARK    1  A    between atoms: C_1  and  C_2
REMARK    2  A    between atoms: C_4  and  S_5
REMARK    3  A    between atoms: S_5  and  N_6
REMARK    4  A    between atoms: C_11  and  C_12
REMARK    5  A    between atoms: C_12  and  N_13
REMARK    6  A    between atoms: C_20  and  C_21
REMARK                            x       y       z     vdW  Elec       q    Type
REMARK                         _______ _______ _______ _____ _____    ______ ____
ROOT
ATOM      1  N   UNL     1       2.303   8.655  18.179  0.00  0.00    +0.000 N 
ATOM      2  C   UNL     1       2.487   7.427  18.761  0.00  0.00    +0.000 A 
ATOM      3  C   UNL     1       1.745   7.056  20.009  0.00  0.00    +0.000 A 
ATOM      4  C   UNL     1       1.956   5.852  20.556  0.00  0.00    +0.000 A 
ATOM      5  C   UNL     1       2.826   4.952  19.915  0.00  0.00    +0.000 A 
ATOM      6  N   UNL     1       3.179   3.717  20.192  0.00  0.00    +0.000 NA
ATOM      7  N   UNL     1       4.094   3.327  19.243  0.00  0.00    +0.000 NA
ATOM      8  C   UNL     1       4.277   4.328  18.389  0.00  0.00    +0.000 A 
ATOM      9  N   UNL     1       3.478   5.393  18.784  0.00  0.00    +0.000 N 
ATOM     10  N   UNL     1       3.362   6.637  18.199  0.00  0.00    +0.000 NA
ATOM     11  H   UNL     1       3.153   9.136  17.906  0.00  0.00    +0.000 HD
ENDROOT
BRANCH   8  12
ATOM     12  C   UNL     1       5.236   4.338  17.283  0.00  0.00    +0.000 A 
ATOM     13  C   UNL     1       4.859   4.073  15.960  0.00  0.00    +0.000 A 
ATOM     14  C   UNL     1       5.783   4.190  14.917  0.00  0.00    +0.000 A 
ATOM     15  C   UNL     1       7.099   4.556  15.189  0.00  0.00    +0.000 A 
ATOM     16  C   UNL     1       7.501   4.776  16.504  0.00  0.00    +0.000 A 
ATOM     17  C   UNL     1       6.577   4.656  17.545  0.00  0.00    +0.000 A 
ENDBRANCH   8  12
BRANCH   1  18
ATOM     18  C   UNL     1       1.089   9.443  18.163  0.00  0.00    +0.000 C 
BRANCH  18  25
ATOM     19  C   UNL     1      -0.288   9.708  20.908  0.00  0.00    +0.000 C 
ATOM     20  C   UNL     1       0.571  10.791  20.315  0.00  0.00    +0.000 A 
ATOM     21  C   UNL     1       0.687  11.993  21.039  0.00  0.00    +0.000 A 
ATOM     22  C   UNL     1       1.432  13.060  20.535  0.00  0.00    +0.000 A 
ATOM     23  C   UNL     1       2.093  12.946  19.316  0.00  0.00    +0.000 A 
ATOM     24  C   UNL     1       1.980  11.759  18.586  0.00  0.00    +0.000 A 
ATOM     25  C   UNL     1       1.220  10.668  19.061  0.00  0.00    +0.000 A 
BRANCH  22  26
ATOM     26  S   UNL     1       1.542  14.552  21.469  0.00  0.00    +0.000 S 
ATOM     27  O   UNL     1       1.580  15.677  20.574  0.00  0.00    +0.000 OA
ATOM     28  O   UNL     1       0.625  14.482  22.595  0.00  0.00    +0.000 OA
BRANCH  26  29
ATOM     29  N   UNL     1       3.083  14.427  22.128  0.00  0.00    +0.000 NA
ATOM     30  H   UNL     1       3.738  14.108  21.413  0.00  0.00    +0.000 HD
ATOM     31  H   UNL     1       3.345  15.304  22.572  0.00  0.00    +0.000 HD
ENDBRANCH  26  29
ENDBRANCH  22  26
ENDBRANCH  18  25
ENDBRANCH   1  18
TORSDOF 5
ENDMDL
MODEL 9
REMARK VINA RESULT:      -8.2      1.663      2.410
REMARK  Name = 
REMARK  6 active torsions:
REMARK  status: ('A' for Active; 'I' for Inactive)
REMARK    1  A    between atoms: C_1  and  C_2
REMARK    2  A    between atoms: C_4  and  S_5
REMARK    3  A    between atoms: S_5  and  N_6
REMARK    4  A    between atoms: C_11  and  C_12
REMARK    5  A    between atoms: C_12  and  N_13
REMARK    6  A    between atoms: C_20  and  C_21
REMARK                            x       y       z     vdW  Elec       q    Type
REMARK                         _______ _______ _______ _____ _____    ______ ____
ROOT
ATOM      1  N   UNL     1       1.575   7.188  21.038  0.00  0.00    +0.000 N 
ATOM      2  C   UNL     1       1.959   6.028  20.414  0.00  0.00    +0.000 A 
ATOM      3  C   UNL     1       1.086   4.811  20.465  0.00  0.00    +0.000 A 
ATOM      4  C   UNL     1       1.497   3.692  19.853  0.00  0.00    +0.000 A 
ATOM      5  C   UNL     1       2.707   3.709  19.137  0.00  0.00    +0.000 A 
ATOM      6  N   UNL     1       3.320   2.795  18.419  0.00  0.00    +0.000 NA
ATOM      7  N   UNL     1       4.499   3.343  17.974  0.00  0.00    +0.000 NA
ATOM      8  C   UNL     1       4.584   4.593  18.415  0.00  0.00    +0.000 A 
ATOM      9  N   UNL     1       3.450   4.870  19.167  0.00  0.00    +0.000 N 
ATOM     10  N   UNL     1       3.125   6.037  19.826  0.00  0.00    +0.000 NA
ATOM     11  H   UNL     1       2.295   7.639  21.592  0.00  0.00    +0.000 HD
ENDROOT
BRANCH   8  12
ATOM     12  C   UNL     1       5.727   5.487  18.225  0.00  0.00    +0.000 A 
ATOM     13  C   UNL     1       5.727   6.516  17.274  0.00  0.00    +0.000 A 
ATOM     14  C   UNL     1       6.797   7.411  17.191  0.00  0.00    +0.000 A 
ATOM     15  C   UNL     1       7.887   7.277  18.046  0.00  0.00    +0.000 A 
ATOM     16  C   UNL     1       7.924   6.231  18.965  0.00  0.00    +0.000 A 
ATOM     17  C   UNL     1       6.856   5.335  19.045  0.00  0.00    +0.000 A 
ENDBRANCH   8  12
BRANCH   1  18
ATOM     18  C   UNL     1       0.226   7.679  21.219  0.00  0.00    +0.000 C 
BRANCH  18  25
ATOM     19  C   UNL     1       1.247   9.314  18.815  0.00  0.00    +0.000 C 
ATOM     20  C   UNL     1       0.669   9.948  20.050  0.00  0.00    +0.000 A 
ATOM     21  C   UNL     1       0.660  11.355  20.110  0.00  0.00    +0.000 A 
ATOM     22  C   UNL     1       0.179  12.017  21.241  0.00  0.00    +0.000 A 
ATOM     23  C   UNL     1      -0.322  11.297  22.321  0.00  0.00    +0.000 A 
ATOM     24  C   UNL     1      -0.313   9.900  22.274  0.00  0.00    +0.000 A 
ATOM     25  C   UNL     1       0.183   9.201  21.152  0.00  0.00    +0.000 A 
BRANCH  22  26
ATOM     26  S   UNL     1       0.196  13.780  21.280  0.00  0.00    +0.000 S 
ATOM     27  O   UNL     1      -1.154  14.271  21.353  0.00  0.00    +0.000 OA
ATOM     28  O   UNL     1       1.239  14.230  22.187  0.00  0.00    +0.000 OA
BRANCH  26  29
ATOM     29  N   UNL     1       0.745  14.149  19.736  0.00  0.00    +0.000 NA
ATOM     30  H   UNL     1       1.755  14.006  19.686  0.00  0.00    +0.000 HD
ATOM     31  H   UNL     1       0.216  13.624  19.043  0.00  0.00    +0.000 HD
ENDBRANCH  26  29
ENDBRANCH  22  26
ENDBRANCH  18  25
ENDBRANCH   1  18
TORSDOF 5
ENDMDL
