MODEL 1
REMARK VINA RESULT:      -8.3      0.000      0.000
REMARK  Name = 
REMARK  9 active torsions:
REMARK  status: ('A' for Active; 'I' for Inactive)
REMARK    1  A    between atoms: C_1  and  C_2
REMARK    2  A    between atoms: C_4  and  N_5
REMARK    3  A    between atoms: N_5  and  S_6
REMARK    4  A    between atoms: S_6  and  C_9
REMARK    5  A    between atoms: C_12  and  N_13
REMARK    6  A    between atoms: C_14  and  C_16
REMARK    7  A    between atoms: C_16  and  O_17
REMARK    8  A    between atoms: O_17  and  C_18
REMARK    9  A    between atoms: C_28  and  C_29
REMARK                            x       y       z     vdW  Elec       q    Type
REMARK                         _______ _______ _______ _____ _____    ______ ____
ROOT
ATOM      1  C   UNL     1       5.298   4.925  17.741  0.00  0.00    +0.000 A 
ATOM      2  C   UNL     1       5.573   5.001  19.109  0.00  0.00    +0.000 A 
ATOM      3  C   UNL     1       4.806   4.269  20.018  0.00  0.00    +0.000 A 
ATOM      4  C   UNL     1       3.751   3.473  19.563  0.00  0.00    +0.000 A 
ATOM      5  C   UNL     1       3.471   3.393  18.195  0.00  0.00    +0.000 A 
ATOM      6  C   UNL     1       4.240   4.130  17.280  0.00  0.00    +0.000 A 
ENDROOT
BRANCH   4   7
ATOM      7  N   UNL     1       2.968   2.788  20.499  0.00  0.00    +0.000 N 
ATOM      8  C   UNL     1       1.724   3.182  20.947  0.00  0.00    +0.000 C 
ATOM      9  O   UNL     1       1.103   2.473  21.743  0.00  0.00    +0.000 OA
ATOM     10  H   UNL     1       3.237   1.850  20.771  0.00  0.00    +0.000 HD
BRANCH   8  11
ATOM     11  C   UNL     1       1.156   4.488  20.425  0.00  0.00    +0.000 C 
BRANCH  11  12
ATOM     12  O   UNL     1       1.976   5.539  20.926  0.00  0.00    +0.000 OA
BRANCH  12  13
ATOM     13  C   UNL     1       1.819   6.756  20.325  0.00  0.00    +0.000 A 
ATOM     14  C   UNL     1       2.383   6.874  19.049  0.00  0.00    +0.000 A 
ATOM     15  C   UNL     1       2.281   8.071  18.338  0.00  0.00    +0.000 A 
ATOM     16  C   UNL     1       1.625   9.161  18.907  0.00  0.00    +0.000 A 
ATOM     17  C   UNL     1       1.081   9.040  20.178  0.00  0.00    +0.000 A 
ATOM     18  F   UNL     1       0.476  10.093  20.743  0.00  0.00    +0.000 F 
ATOM     19  C   UNL     1       1.165   7.850  20.889  0.00  0.00    +0.000 A 
ENDBRANCH  12  13
ENDBRANCH  11  12
ENDBRANCH   8  11
ENDBRANCH   4   7
BRANCH   1  20
ATOM     20  S   UNL     1       6.283   5.913  16.627  0.00  0.00    +0.000 S 
ATOM     21  O   UNL     1       7.140   6.743  17.447  0.00  0.00    +0.000 OA
ATOM     22  O   UNL     1       5.400   6.506  15.637  0.00  0.00    +0.000 OA
BRANCH  20  23
ATOM     23  N   UNL     1       7.284   4.835  15.845  0.00  0.00    +0.000 N 
ATOM     24  H   UNL     1       8.083   4.460  16.344  0.00  0.00    +0.000 HD
BRANCH  23  28
ATOM     25  C   UNL     1       5.521   2.558  11.838  0.00  0.00    +0.000 C 
ATOM     26  C   UNL     1       6.317   3.605  12.557  0.00  0.00    +0.000 A 
ATOM     27  C   UNL     1       6.359   3.662  13.934  0.00  0.00    +0.000 A 
ATOM     28  C   UNL     1       7.152   4.653  14.462  0.00  0.00    +0.000 A 
ATOM     29  N   UNL     1       7.823   5.555  13.740  0.00  0.00    +0.000 NA
ATOM     30  C   UNL     1       7.728   5.419  12.410  0.00  0.00    +0.000 A 
ATOM     31  C   UNL     1       8.501   6.369  11.550  0.00  0.00    +0.000 C 
ATOM     32  N   UNL     1       7.000   4.475  11.785  0.00  0.00    +0.000 NA
ENDBRANCH  23  28
ENDBRANCH  20  23
ENDBRANCH   1  20
TORSDOF 7
ENDMDL
MODEL 2
REMARK VINA RESULT:      -8.3      4.466      8.369
REMARK  Name = 
REMARK  9 active torsions:
REMARK  status: ('A' for Active; 'I' for Inactive)
REMARK    1  A    between atoms: C_1  and  C_2
REMARK    2  A    between atoms: C_4  and  N_5
REMARK    3  A    between atoms: N_5  and  S_6
REMARK    4  A    between atoms: S_6  and  C_9
REMARK    5  A    between atoms: C_12  and  N_13
REMARK    6  A    between atoms: C_14  and  C_16
REMARK    7  A    between atoms: C_16  and  O_17
REMARK    8  A    between atoms: O_17  and  C_18
REMARK    9  A    between atoms: C_28  and  C_29
REMARK                            x       y       z     vdW  Elec       q    Type
REMARK                         _______ _______ _______ _____ _____    ______ ____
ROOT
ATOM      1  C   UNL     1       1.515   7.578  20.517  0.00  0.00    +0.000 A 
ATOM      2  C   UNL     1       1.254   6.298  21.012  0.00  0.00    +0.000 A 
ATOM      3  C   UNL     1       1.638   5.174  20.279  0.00  0.00    +0.000 A 
ATOM      4  C   UNL     1       2.266   5.326  19.039  0.00  0.00    +0.000 A 
ATOM      5  C   UNL     1       2.530   6.605  18.538  0.00  0.00    +0.000 A 
ATOM      6  C   UNL     1       2.143   7.737  19.274  0.00  0.00    +0.000 A 
ENDROOT
BRANCH   4   7
ATOM      7  N   UNL     1       2.596   4.183  18.303  0.00  0.00    +0.000 N 
ATOM      8  C   UNL     1       3.752   3.442  18.445  0.00  0.00    +0.000 C 
ATOM      9  O   UNL     1       3.918   2.423  17.771  0.00  0.00    +0.000 OA
ATOM     10  H   UNL     1       1.888   3.751  17.723  0.00  0.00    +0.000 HD
BRANCH   8  11
ATOM     11  C   UNL     1       4.786   3.915  19.451  0.00  0.00    +0.000 C 
BRANCH  11  12
ATOM     12  O   UNL     1       6.049   3.918  18.793  0.00  0.00    +0.000 OA
BRANCH  12  13
ATOM     13  C   UNL     1       6.501   5.139  18.376  0.00  0.00    +0.000 A 
ATOM     14  C   UNL     1       5.848   5.672  17.258  0.00  0.00    +0.000 A 
ATOM     15  C   UNL     1       6.223   6.916  16.746  0.00  0.00    +0.000 A 
ATOM     16  C   UNL     1       7.262   7.626  17.343  0.00  0.00    +0.000 A 
ATOM     17  C   UNL     1       7.913   7.083  18.443  0.00  0.00    +0.000 A 
ATOM     18  F   UNL     1       8.933   7.747  19.003  0.00  0.00    +0.000 F 
ATOM     19  C   UNL     1       7.540   5.854  18.969  0.00  0.00    +0.000 A 
ENDBRANCH  12  13
ENDBRANCH  11  12
ENDBRANCH   8  11
ENDBRANCH   4   7
BRANCH   1  20
ATOM     20  S   UNL     1       0.967   8.981  21.476  0.00  0.00    +0.000 S 
ATOM     21  O   UNL     1       1.999   9.248  22.456  0.00  0.00    +0.000 OA
ATOM     22  O   UNL     1      -0.407   8.747  21.887  0.00  0.00    +0.000 OA
BRANCH  20  23
ATOM     23  N   UNL     1       0.977  10.271  20.422  0.00  0.00    +0.000 N 
ATOM     24  H   UNL     1       1.831  10.806  20.314  0.00  0.00    +0.000 HD
BRANCH  23  28
ATOM     25  C   UNL     1      -3.040  13.137  20.457  0.00  0.00    +0.000 C 
ATOM     26  C   UNL     1      -2.129  12.095  19.884  0.00  0.00    +0.000 A 
ATOM     27  C   UNL     1      -0.960  11.728  20.517  0.00  0.00    +0.000 A 
ATOM     28  C   UNL     1      -0.235  10.739  19.896  0.00  0.00    +0.000 A 
ATOM     29  N   UNL     1      -0.566  10.168  18.735  0.00  0.00    +0.000 NA
ATOM     30  C   UNL     1      -1.720  10.584  18.194  0.00  0.00    +0.000 A 
ATOM     31  C   UNL     1      -2.170   9.942  16.920  0.00  0.00    +0.000 C 
ATOM     32  N   UNL     1      -2.521  11.527  18.724  0.00  0.00    +0.000 NA
ENDBRANCH  23  28
ENDBRANCH  20  23
ENDBRANCH   1  20
TORSDOF 7
ENDMDL
MODEL 3
REMARK VINA RESULT:      -8.2      3.342      5.010
REMARK  Name = 
REMARK  9 active torsions:
REMARK  status: ('A' for Active; 'I' for Inactive)
REMARK    1  A    between atoms: C_1  and  C_2
REMARK    2  A    between atoms: C_4  and  N_5
REMARK    3  A    between atoms: N_5  and  S_6
REMARK    4  A    between atoms: S_6  and  C_9
REMARK    5  A    between atoms: C_12  and  N_13
REMARK    6  A    between atoms: C_14  and  C_16
REMARK    7  A    between atoms: C_16  and  O_17
REMARK    8  A    between atoms: O_17  and  C_18
REMARK    9  A    between atoms: C_28  and  C_29
REMARK                            x       y       z     vdW  Elec       q    Type
REMARK                         _______ _______ _______ _____ _____    ______ ____
ROOT
ATOM      1  C   UNL     1       2.857   4.840  18.873  0.00  0.00    +0.000 A 
ATOM      2  C   UNL     1       2.270   4.624  20.122  0.00  0.00    +0.000 A 
ATOM      3  C   UNL     1       1.785   5.704  20.863  0.00  0.00    +0.000 A 
ATOM      4  C   UNL     1       1.903   7.006  20.364  0.00  0.00    +0.000 A 
ATOM      5  C   UNL     1       2.489   7.228  19.114  0.00  0.00    +0.000 A 
ATOM      6  C   UNL     1       2.979   6.142  18.370  0.00  0.00    +0.000 A 
ENDROOT
BRANCH   4   7
ATOM      7  N   UNL     1       1.453   8.073  21.148  0.00  0.00    +0.000 N 
ATOM      8  C   UNL     1       0.936   9.260  20.669  0.00  0.00    +0.000 C 
ATOM      9  O   UNL     1       0.526  10.116  21.456  0.00  0.00    +0.000 OA
ATOM     10  H   UNL     1       1.340   7.937  22.145  0.00  0.00    +0.000 HD
BRANCH   8  11
ATOM     11  C   UNL     1       0.880   9.460  19.166  0.00  0.00    +0.000 C 
BRANCH  11  12
ATOM     12  O   UNL     1       0.278  10.729  18.928  0.00  0.00    +0.000 OA
BRANCH  12  13
ATOM     13  C   UNL     1      -0.980  10.701  18.392  0.00  0.00    +0.000 A 
ATOM     14  C   UNL     1      -1.928  11.500  19.043  0.00  0.00    +0.000 A 
ATOM     15  C   UNL     1      -3.245  11.553  18.582  0.00  0.00    +0.000 A 
ATOM     16  C   UNL     1      -3.622  10.795  17.475  0.00  0.00    +0.000 A 
ATOM     17  C   UNL     1      -2.678   9.994  16.845  0.00  0.00    +0.000 A 
ATOM     18  F   UNL     1      -3.042   9.240  15.800  0.00  0.00    +0.000 F 
ATOM     19  C   UNL     1      -1.363   9.945  17.287  0.00  0.00    +0.000 A 
ENDBRANCH  12  13
ENDBRANCH  11  12
ENDBRANCH   8  11
ENDBRANCH   4   7
BRANCH   1  20
ATOM     20  S   UNL     1       3.496   3.428  17.987  0.00  0.00    +0.000 S 
ATOM     21  O   UNL     1       3.249   3.668  16.580  0.00  0.00    +0.000 OA
ATOM     22  O   UNL     1       3.008   2.222  18.633  0.00  0.00    +0.000 OA
BRANCH  20  23
ATOM     23  N   UNL     1       5.149   3.488  18.189  0.00  0.00    +0.000 N 
ATOM     24  H   UNL     1       5.565   2.973  18.957  0.00  0.00    +0.000 HD
BRANCH  23  28
ATOM     25  C   UNL     1       7.776   7.638  17.715  0.00  0.00    +0.000 C 
ATOM     26  C   UNL     1       7.156   6.367  17.218  0.00  0.00    +0.000 A 
ATOM     27  C   UNL     1       6.437   5.539  18.054  0.00  0.00    +0.000 A 
ATOM     28  C   UNL     1       5.898   4.422  17.461  0.00  0.00    +0.000 A 
ATOM     29  N   UNL     1       6.064   4.086  16.179  0.00  0.00    +0.000 NA
ATOM     30  C   UNL     1       6.774   4.953  15.441  0.00  0.00    +0.000 A 
ATOM     31  C   UNL     1       6.949   4.656  13.985  0.00  0.00    +0.000 C 
ATOM     32  N   UNL     1       7.328   6.086  15.910  0.00  0.00    +0.000 NA
ENDBRANCH  23  28
ENDBRANCH  20  23
ENDBRANCH   1  20
TORSDOF 7
ENDMDL
MODEL 4
REMARK VINA RESULT:      -8.1      3.975      5.824
REMARK  Name = 
REMARK  9 active torsions:
REMARK  status: ('A' for Active; 'I' for Inactive)
REMARK    1  A    between atoms: C_1  and  C_2
REMARK    2  A    between atoms: C_4  and  N_5
REMARK    3  A    between atoms: N_5  and  S_6
REMARK    4  A    between atoms: S_6  and  C_9
REMARK    5  A    between atoms: C_12  and  N_13
REMARK    6  A    between atoms: C_14  and  C_16
REMARK    7  A    between atoms: C_16  and  O_17
REMARK    8  A    between atoms: O_17  and  C_18
REMARK    9  A    between atoms: C_28  and  C_29
REMARK                            x       y       z     vdW  Elec       q    Type
REMARK                         _______ _______ _______ _____ _____    ______ ____
ROOT
ATOM      1  C   UNL     1       2.443   5.825  19.168  0.00  0.00    +0.000 A 
ATOM      2  C   UNL     1       2.608   6.928  18.326  0.00  0.00    +0.000 A 
ATOM      3  C   UNL     1       2.232   8.200  18.760  0.00  0.00    +0.000 A 
ATOM      4  C   UNL     1       1.672   8.371  20.031  0.00  0.00    +0.000 A 
ATOM      5  C   UNL     1       1.505   7.271  20.878  0.00  0.00    +0.000 A 
ATOM      6  C   UNL     1       1.882   5.990  20.442  0.00  0.00    +0.000 A 
ENDROOT
BRANCH   4   7
ATOM      7  N   UNL     1       1.260   9.650  20.422  0.00  0.00    +0.000 N 
ATOM      8  C   UNL     1       0.303  10.415  19.785  0.00  0.00    +0.000 C 
ATOM      9  O   UNL     1      -0.014  11.513  20.246  0.00  0.00    +0.000 OA
ATOM     10  H   UNL     1       1.552  10.006  21.323  0.00  0.00    +0.000 HD
BRANCH   8  11
ATOM     11  C   UNL     1      -0.337   9.857  18.527  0.00  0.00    +0.000 C 
BRANCH  11  12
ATOM     12  O   UNL     1      -1.749   9.938  18.698  0.00  0.00    +0.000 OA
BRANCH  12  13
ATOM     13  C   UNL     1      -2.468  10.246  17.577  0.00  0.00    +0.000 A 
ATOM     14  C   UNL     1      -3.645  10.971  17.798  0.00  0.00    +0.000 A 
ATOM     15  C   UNL     1      -4.458  11.345  16.726  0.00  0.00    +0.000 A 
ATOM     16  C   UNL     1      -4.104  10.982  15.428  0.00  0.00    +0.000 A 
ATOM     17  C   UNL     1      -2.942  10.250  15.220  0.00  0.00    +0.000 A 
ATOM     18  F   UNL     1      -2.612   9.872  13.978  0.00  0.00    +0.000 F 
ATOM     19  C   UNL     1      -2.119   9.885  16.277  0.00  0.00    +0.000 A 
ENDBRANCH  12  13
ENDBRANCH  11  12
ENDBRANCH   8  11
ENDBRANCH   4   7
BRANCH   1  20
ATOM     20  S   UNL     1       2.904   4.215  18.548  0.00  0.00    +0.000 S 
ATOM     21  O   UNL     1       2.708   4.245  17.114  0.00  0.00    +0.000 OA
ATOM     22  O   UNL     1       2.255   3.206  19.367  0.00  0.00    +0.000 OA
BRANCH  20  23
ATOM     23  N   UNL     1       4.548   4.098  18.794  0.00  0.00    +0.000 N 
ATOM     24  H   UNL     1       4.884   3.700  19.663  0.00  0.00    +0.000 HD
BRANCH  23  28
ATOM     25  C   UNL     1       7.716   7.687  17.597  0.00  0.00    +0.000 C 
ATOM     26  C   UNL     1       6.934   6.434  17.342  0.00  0.00    +0.000 A 
ATOM     27  C   UNL     1       6.102   5.893  18.299  0.00  0.00    +0.000 A 
ATOM     28  C   UNL     1       5.422   4.760  17.921  0.00  0.00    +0.000 A 
ATOM     29  N   UNL     1       5.553   4.153  16.739  0.00  0.00    +0.000 NA
ATOM     30  C   UNL     1       6.380   4.752  15.869  0.00  0.00    +0.000 A 
ATOM     31  C   UNL     1       6.526   4.147  14.509  0.00  0.00    +0.000 C 
ATOM     32  N   UNL     1       7.078   5.875  16.123  0.00  0.00    +0.000 NA
ENDBRANCH  23  28
ENDBRANCH  20  23
ENDBRANCH   1  20
TORSDOF 7
ENDMDL
MODEL 5
REMARK VINA RESULT:      -8.0      3.889      5.894
REMARK  Name = 
REMARK  9 active torsions:
REMARK  status: ('A' for Active; 'I' for Inactive)
REMARK    1  A    between atoms: C_1  and  C_2
REMARK    2  A    between atoms: C_4  and  N_5
REMARK    3  A    between atoms: N_5  and  S_6
REMARK    4  A    between atoms: S_6  and  C_9
REMARK    5  A    between atoms: C_12  and  N_13
REMARK    6  A    between atoms: C_14  and  C_16
REMARK    7  A    between atoms: C_16  and  O_17
REMARK    8  A    between atoms: O_17  and  C_18
REMARK    9  A    between atoms: C_28  and  C_29
REMARK                            x       y       z     vdW  Elec       q    Type
REMARK                         _______ _______ _______ _____ _____    ______ ____
ROOT
ATOM      1  C   UNL     1       2.065   5.218  19.217  0.00  0.00    +0.000 A 
ATOM      2  C   UNL     1       2.312   5.978  18.072  0.00  0.00    +0.000 A 
ATOM      3  C   UNL     1       2.322   7.372  18.147  0.00  0.00    +0.000 A 
ATOM      4  C   UNL     1       2.066   8.011  19.365  0.00  0.00    +0.000 A 
ATOM      5  C   UNL     1       1.817   7.254  20.515  0.00  0.00    +0.000 A 
ATOM      6  C   UNL     1       1.806   5.852  20.440  0.00  0.00    +0.000 A 
ENDROOT
BRANCH   4   7
ATOM      7  N   UNL     1       2.034   9.409  19.402  0.00  0.00    +0.000 N 
ATOM      8  C   UNL     1       0.949  10.196  19.075  0.00  0.00    +0.000 C 
ATOM      9  O   UNL     1       1.021  11.422  19.189  0.00  0.00    +0.000 OA
ATOM     10  H   UNL     1       2.797   9.906  19.846  0.00  0.00    +0.000 HD
BRANCH   8  11
ATOM     11  C   UNL     1      -0.314   9.509  18.592  0.00  0.00    +0.000 C 
BRANCH  11  12
ATOM     12  O   UNL     1      -1.407  10.375  18.881  0.00  0.00    +0.000 OA
BRANCH  12  13
ATOM     13  C   UNL     1      -2.302  10.566  17.865  0.00  0.00    +0.000 A 
ATOM     14  C   UNL     1      -2.029   9.863  16.685  0.00  0.00    +0.000 A 
ATOM     15  C   UNL     1      -2.877   9.978  15.581  0.00  0.00    +0.000 A 
ATOM     16  C   UNL     1      -3.994  10.808  15.649  0.00  0.00    +0.000 A 
ATOM     17  C   UNL     1      -4.248  11.512  16.818  0.00  0.00    +0.000 A 
ATOM     18  F   UNL     1      -5.303  12.335  16.879  0.00  0.00    +0.000 F 
ATOM     19  C   UNL     1      -3.420  11.395  17.926  0.00  0.00    +0.000 A 
ENDBRANCH  12  13
ENDBRANCH  11  12
ENDBRANCH   8  11
ENDBRANCH   4   7
BRANCH   1  20
ATOM     20  S   UNL     1       2.024   3.440  19.056  0.00  0.00    +0.000 S 
ATOM     21  O   UNL     1       1.619   3.150  17.697  0.00  0.00    +0.000 OA
ATOM     22  O   UNL     1       1.288   2.894  20.184  0.00  0.00    +0.000 OA
BRANCH  20  23
ATOM     23  N   UNL     1       3.609   2.946  19.188  0.00  0.00    +0.000 N 
ATOM     24  H   UNL     1       3.864   2.318  19.943  0.00  0.00    +0.000 HD
BRANCH  23  28
ATOM     25  C   UNL     1       5.816   4.130  14.936  0.00  0.00    +0.000 C 
ATOM     26  C   UNL     1       5.641   4.168  16.424  0.00  0.00    +0.000 A 
ATOM     27  C   UNL     1       4.620   3.485  17.050  0.00  0.00    +0.000 A 
ATOM     28  C   UNL     1       4.595   3.582  18.421  0.00  0.00    +0.000 A 
ATOM     29  N   UNL     1       5.447   4.309  19.148  0.00  0.00    +0.000 NA
ATOM     30  C   UNL     1       6.410   4.935  18.455  0.00  0.00    +0.000 A 
ATOM     31  C   UNL     1       7.426   5.723  19.220  0.00  0.00    +0.000 C 
ATOM     32  N   UNL     1       6.544   4.893  17.116  0.00  0.00    +0.000 NA
ENDBRANCH  23  28
ENDBRANCH  20  23
ENDBRANCH   1  20
TORSDOF 7
ENDMDL
MODEL 6
REMARK VINA RESULT:      -8.0      3.381      4.890
REMARK  Name = 
REMARK  9 active torsions:
REMARK  status: ('A' for Active; 'I' for Inactive)
REMARK    1  A    between atoms: C_1  and  C_2
REMARK    2  A    between atoms: C_4  and  N_5
REMARK    3  A    between atoms: N_5  and  S_6
REMARK    4  A    between atoms: S_6  and  C_9
REMARK    5  A    between atoms: C_12  and  N_13
REMARK    6  A    between atoms: C_14  and  C_16
REMARK    7  A    between atoms: C_16  and  O_17
REMARK    8  A    between atoms: O_17  and  C_18
REMARK    9  A    between atoms: C_28  and  C_29
REMARK                            x       y       z     vdW  Elec       q    Type
REMARK                         _______ _______ _______ _____ _____    ______ ____
ROOT
ATOM      1  C   UNL     1       2.643   4.725  18.842  0.00  0.00    +0.000 A 
ATOM      2  C   UNL     1       2.949   6.010  18.388  0.00  0.00    +0.000 A 
ATOM      3  C   UNL     1       2.617   7.123  19.164  0.00  0.00    +0.000 A 
ATOM      4  C   UNL     1       1.961   6.954  20.388  0.00  0.00    +0.000 A 
ATOM      5  C   UNL     1       1.653   5.670  20.848  0.00  0.00    +0.000 A 
ATOM      6  C   UNL     1       1.985   4.550  20.067  0.00  0.00    +0.000 A 
ENDROOT
BRANCH   4   7
ATOM      7  N   UNL     1       1.597   8.088  21.121  0.00  0.00    +0.000 N 
ATOM      8  C   UNL     1       0.973   9.209  20.611  0.00  0.00    +0.000 C 
ATOM      9  O   UNL     1       0.657  10.134  21.363  0.00  0.00    +0.000 OA
ATOM     10  H   UNL     1       1.641   8.054  22.133  0.00  0.00    +0.000 HD
BRANCH   8  11
ATOM     11  C   UNL     1       0.685   9.251  19.122  0.00  0.00    +0.000 C 
BRANCH  11  12
ATOM     12  O   UNL     1       0.196  10.555  18.821  0.00  0.00    +0.000 OA
BRANCH  12  13
ATOM     13  C   UNL     1      -1.067  10.614  18.303  0.00  0.00    +0.000 A 
ATOM     14  C   UNL     1      -1.957  11.456  18.981  0.00  0.00    +0.000 A 
ATOM     15  C   UNL     1      -3.274  11.598  18.539  0.00  0.00    +0.000 A 
ATOM     16  C   UNL     1      -3.711  10.885  17.425  0.00  0.00    +0.000 A 
ATOM     17  C   UNL     1      -2.826  10.041  16.767  0.00  0.00    +0.000 A 
ATOM     18  F   UNL     1      -3.248   9.330  15.714  0.00  0.00    +0.000 F 
ATOM     19  C   UNL     1      -1.510   9.903  17.190  0.00  0.00    +0.000 A 
ENDBRANCH  12  13
ENDBRANCH  11  12
ENDBRANCH   8  11
ENDBRANCH   4   7
BRANCH   1  20
ATOM     20  S   UNL     1       3.053   3.340  17.793  0.00  0.00    +0.000 S 
ATOM     21  O   UNL     1       2.756   3.739  16.434  0.00  0.00    +0.000 OA
ATOM     22  O   UNL     1       2.461   2.142  18.363  0.00  0.00    +0.000 OA
BRANCH  20  23
ATOM     23  N   UNL     1       4.710   3.189  17.885  0.00  0.00    +0.000 N 
ATOM     24  H   UNL     1       5.110   2.648  18.643  0.00  0.00    +0.000 HD
BRANCH  23  28
ATOM     25  C   UNL     1       6.822   4.434  13.602  0.00  0.00    +0.000 C 
ATOM     26  C   UNL     1       6.512   4.611  15.058  0.00  0.00    +0.000 A 
ATOM     27  C   UNL     1       5.695   3.731  15.735  0.00  0.00    +0.000 A 
ATOM     28  C   UNL     1       5.520   3.995  17.073  0.00  0.00    +0.000 A 
ATOM     29  N   UNL     1       6.044   5.041  17.717  0.00  0.00    +0.000 NA
ATOM     30  C   UNL     1       6.829   5.840  16.979  0.00  0.00    +0.000 A 
ATOM     31  C   UNL     1       7.487   6.999  17.659  0.00  0.00    +0.000 C 
ATOM     32  N   UNL     1       7.088   5.666  15.670  0.00  0.00    +0.000 NA
ENDBRANCH  23  28
ENDBRANCH  20  23
ENDBRANCH   1  20
TORSDOF 7
ENDMDL
MODEL 7
REMARK VINA RESULT:      -8.0      3.889      5.638
REMARK  Name = 
REMARK  9 active torsions:
REMARK  status: ('A' for Active; 'I' for Inactive)
REMARK    1  A    between atoms: C_1  and  C_2
REMARK    2  A    between atoms: C_4  and  N_5
REMARK    3  A    between atoms: N_5  and  S_6
REMARK    4  A    between atoms: S_6  and  C_9
REMARK    5  A    between atoms: C_12  and  N_13
REMARK    6  A    between atoms: C_14  and  C_16
REMARK    7  A    between atoms: C_16  and  O_17
REMARK    8  A    between atoms: O_17  and  C_18
REMARK    9  A    between atoms: C_28  and  C_29
REMARK                            x       y       z     vdW  Elec       q    Type
REMARK                         _______ _______ _______ _____ _____    ______ ____
ROOT
ATOM      1  C   UNL     1       2.518   5.757  18.976  0.00  0.00    +0.000 A 
ATOM      2  C   UNL     1       2.079   5.978  20.284  0.00  0.00    +0.000 A 
ATOM      3  C   UNL     1       1.708   7.262  20.689  0.00  0.00    +0.000 A 
ATOM      4  C   UNL     1       1.792   8.332  19.792  0.00  0.00    +0.000 A 
ATOM      5  C   UNL     1       2.231   8.117  18.482  0.00  0.00    +0.000 A 
ATOM      6  C   UNL     1       2.606   6.826  18.074  0.00  0.00    +0.000 A 
ENDROOT
BRANCH   4   7
ATOM      7  N   UNL     1       1.461   9.616  20.238  0.00  0.00    +0.000 N 
ATOM      8  C   UNL     1       0.259  10.257  20.017  0.00  0.00    +0.000 C 
ATOM      9  O   UNL     1       0.059  11.375  20.498  0.00  0.00    +0.000 OA
ATOM     10  H   UNL     1       2.066  10.075  20.907  0.00  0.00    +0.000 HD
BRANCH   8  11
ATOM     11  C   UNL     1      -0.791   9.543  19.186  0.00  0.00    +0.000 C 
BRANCH  11  12
ATOM     12  O   UNL     1      -0.855  10.202  17.925  0.00  0.00    +0.000 OA
BRANCH  12  13
ATOM     13  C   UNL     1      -2.097  10.618  17.532  0.00  0.00    +0.000 A 
ATOM     14  C   UNL     1      -2.438  10.322  16.207  0.00  0.00    +0.000 A 
ATOM     15  C   UNL     1      -3.683  10.695  15.697  0.00  0.00    +0.000 A 
ATOM     16  C   UNL     1      -4.587  11.379  16.507  0.00  0.00    +0.000 A 
ATOM     17  C   UNL     1      -4.234  11.681  17.816  0.00  0.00    +0.000 A 
ATOM     18  F   UNL     1      -5.086  12.365  18.590  0.00  0.00    +0.000 F 
ATOM     19  C   UNL     1      -3.004  11.302  18.338  0.00  0.00    +0.000 A 
ENDBRANCH  12  13
ENDBRANCH  11  12
ENDBRANCH   8  11
ENDBRANCH   4   7
BRANCH   1  20
ATOM     20  S   UNL     1       3.018   4.104  18.522  0.00  0.00    +0.000 S 
ATOM     21  O   UNL     1       2.822   3.983  17.093  0.00  0.00    +0.000 OA
ATOM     22  O   UNL     1       2.393   3.168  19.441  0.00  0.00    +0.000 OA
BRANCH  20  23
ATOM     23  N   UNL     1       4.664   4.053  18.776  0.00  0.00    +0.000 N 
ATOM     24  H   UNL     1       5.012   3.665  19.646  0.00  0.00    +0.000 HD
BRANCH  23  28
ATOM     25  C   UNL     1       7.726   7.747  17.625  0.00  0.00    +0.000 C 
ATOM     26  C   UNL     1       6.978   6.478  17.352  0.00  0.00    +0.000 A 
ATOM     27  C   UNL     1       6.166   5.898  18.304  0.00  0.00    +0.000 A 
ATOM     28  C   UNL     1       5.515   4.753  17.911  0.00  0.00    +0.000 A 
ATOM     29  N   UNL     1       5.656   4.170  16.717  0.00  0.00    +0.000 NA
ATOM     30  C   UNL     1       6.461   4.806  15.854  0.00  0.00    +0.000 A 
ATOM     31  C   UNL     1       6.617   4.229  14.483  0.00  0.00    +0.000 C 
ATOM     32  N   UNL     1       7.130   5.943  16.123  0.00  0.00    +0.000 NA
ENDBRANCH  23  28
ENDBRANCH  20  23
ENDBRANCH   1  20
TORSDOF 7
ENDMDL
MODEL 8
REMARK VINA RESULT:      -7.9      3.350      4.792
REMARK  Name = 
REMARK  9 active torsions:
REMARK  status: ('A' for Active; 'I' for Inactive)
REMARK    1  A    between atoms: C_1  and  C_2
REMARK    2  A    between atoms: C_4  and  N_5
REMARK    3  A    between atoms: N_5  and  S_6
REMARK    4  A    between atoms: S_6  and  C_9
REMARK    5  A    between atoms: C_12  and  N_13
REMARK    6  A    between atoms: C_14  and  C_16
REMARK    7  A    between atoms: C_16  and  O_17
REMARK    8  A    between atoms: O_17  and  C_18
REMARK    9  A    between atoms: C_28  and  C_29
REMARK                            x       y       z     vdW  Elec       q    Type
REMARK                         _______ _______ _______ _____ _____    ______ ____
ROOT
ATOM      1  C   UNL     1       2.766   4.853  18.967  0.00  0.00    +0.000 A 
ATOM      2  C   UNL     1       3.089   6.142  18.535  0.00  0.00    +0.000 A 
ATOM      3  C   UNL     1       2.677   7.251  19.277  0.00  0.00    +0.000 A 
ATOM      4  C   UNL     1       1.926   7.075  20.443  0.00  0.00    +0.000 A 
ATOM      5  C   UNL     1       1.599   5.787  20.880  0.00  0.00    +0.000 A 
ATOM      6  C   UNL     1       2.011   4.671  20.134  0.00  0.00    +0.000 A 
ENDROOT
BRANCH   4   7
ATOM      7  N   UNL     1       1.485   8.205  21.141  0.00  0.00    +0.000 N 
ATOM      8  C   UNL     1       0.886   9.314  20.578  0.00  0.00    +0.000 C 
ATOM      9  O   UNL     1       0.495  10.235  21.298  0.00  0.00    +0.000 OA
ATOM     10  H   UNL     1       1.447   8.174  22.152  0.00  0.00    +0.000 HD
BRANCH   8  11
ATOM     11  C   UNL     1       0.718   9.348  19.070  0.00  0.00    +0.000 C 
BRANCH  11  12
ATOM     12  O   UNL     1       0.239  10.644  18.725  0.00  0.00    +0.000 OA
BRANCH  12  13
ATOM     13  C   UNL     1      -1.085  10.722  18.395  0.00  0.00    +0.000 A 
ATOM     14  C   UNL     1      -1.506   9.844  17.389  0.00  0.00    +0.000 A 
ATOM     15  C   UNL     1      -2.839   9.832  16.972  0.00  0.00    +0.000 A 
ATOM     16  C   UNL     1      -3.753  10.709  17.551  0.00  0.00    +0.000 A 
ATOM     17  C   UNL     1      -3.324  11.586  18.538  0.00  0.00    +0.000 A 
ATOM     18  F   UNL     1      -4.191  12.453  19.077  0.00  0.00    +0.000 F 
ATOM     19  C   UNL     1      -2.004  11.597  18.970  0.00  0.00    +0.000 A 
ENDBRANCH  12  13
ENDBRANCH  11  12
ENDBRANCH   8  11
ENDBRANCH   4   7
BRANCH   1  20
ATOM     20  S   UNL     1       3.282   3.473  17.960  0.00  0.00    +0.000 S 
ATOM     21  O   UNL     1       2.980   3.818  16.587  0.00  0.00    +0.000 OA
ATOM     22  O   UNL     1       2.761   2.253  18.552  0.00  0.00    +0.000 OA
BRANCH  20  23
ATOM     23  N   UNL     1       4.944   3.434  18.078  0.00  0.00    +0.000 N 
ATOM     24  H   UNL     1       5.365   2.989  18.886  0.00  0.00    +0.000 HD
BRANCH  23  28
ATOM     25  C   UNL     1       6.943   4.475  13.688  0.00  0.00    +0.000 C 
ATOM     26  C   UNL     1       6.652   4.732  15.135  0.00  0.00    +0.000 A 
ATOM     27  C   UNL     1       5.875   3.871  15.881  0.00  0.00    +0.000 A 
ATOM     28  C   UNL     1       5.714   4.212  17.203  0.00  0.00    +0.000 A 
ATOM     29  N   UNL     1       6.215   5.312  17.771  0.00  0.00    +0.000 NA
ATOM     30  C   UNL     1       6.962   6.087  16.972  0.00  0.00    +0.000 A 
ATOM     31  C   UNL     1       7.593   7.306  17.566  0.00  0.00    +0.000 C 
ATOM     32  N   UNL     1       7.204   5.840  15.671  0.00  0.00    +0.000 NA
ENDBRANCH  23  28
ENDBRANCH  20  23
ENDBRANCH   1  20
TORSDOF 7
ENDMDL
MODEL 9
REMARK VINA RESULT:      -7.9      3.531      5.504
REMARK  Name = 
REMARK  9 active torsions:
REMARK  status: ('A' for Active; 'I' for Inactive)
REMARK    1  A    between atoms: C_1  and  C_2
REMARK    2  A    between atoms: C_4  and  N_5
REMARK    3  A    between atoms: N_5  and  S_6
REMARK    4  A    between atoms: S_6  and  C_9
REMARK    5  A    between atoms: C_12  and  N_13
REMARK    6  A    between atoms: C_14  and  C_16
REMARK    7  A    between atoms: C_16  and  O_17
REMARK    8  A    between atoms: O_17  and  C_18
REMARK    9  A    between atoms: C_28  and  C_29
REMARK                            x       y       z     vdW  Elec       q    Type
REMARK                         _______ _______ _______ _____ _____    ______ ____
ROOT
ATOM      1  C   UNL     1       1.972   4.988  19.115  0.00  0.00    +0.000 A 
ATOM      2  C   UNL     1       2.369   6.162  18.470  0.00  0.00    +0.000 A 
ATOM      3  C   UNL     1       2.342   7.378  19.155  0.00  0.00    +0.000 A 
ATOM      4  C   UNL     1       1.900   7.427  20.482  0.00  0.00    +0.000 A 
ATOM      5  C   UNL     1       1.503   6.255  21.132  0.00  0.00    +0.000 A 
ATOM      6  C   UNL     1       1.528   5.031  20.444  0.00  0.00    +0.000 A 
ENDROOT
BRANCH   4   7
ATOM      7  N   UNL     1       1.838   8.666  21.129  0.00  0.00    +0.000 N 
ATOM      8  C   UNL     1       0.918   9.661  20.869  0.00  0.00    +0.000 C 
ATOM      9  O   UNL     1       0.929  10.699  21.536  0.00  0.00    +0.000 OA
ATOM     10  H   UNL     1       2.397   8.815  21.960  0.00  0.00    +0.000 HD
BRANCH   8  11
ATOM     11  C   UNL     1      -0.095   9.429  19.764  0.00  0.00    +0.000 C 
BRANCH  11  12
ATOM     12  O   UNL     1      -0.422  10.702  19.213  0.00  0.00    +0.000 OA
BRANCH  12  13
ATOM     13  C   UNL     1      -1.563  10.751  18.462  0.00  0.00    +0.000 A 
ATOM     14  C   UNL     1      -1.569   9.935  17.324  0.00  0.00    +0.000 A 
ATOM     15  C   UNL     1      -2.684   9.900  16.484  0.00  0.00    +0.000 A 
ATOM     16  C   UNL     1      -3.793  10.694  16.772  0.00  0.00    +0.000 A 
ATOM     17  C   UNL     1      -3.772  11.511  17.894  0.00  0.00    +0.000 A 
ATOM     18  F   UNL     1      -4.822  12.298  18.159  0.00  0.00    +0.000 F 
ATOM     19  C   UNL     1      -2.675  11.542  18.744  0.00  0.00    +0.000 A 
ENDBRANCH  12  13
ENDBRANCH  11  12
ENDBRANCH   8  11
ENDBRANCH   4   7
BRANCH   1  20
ATOM     20  S   UNL     1       1.988   3.466  18.181  0.00  0.00    +0.000 S 
ATOM     21  O   UNL     1       1.879   3.830  16.784  0.00  0.00    +0.000 OA
ATOM     22  O   UNL     1       1.040   2.547  18.786  0.00  0.00    +0.000 OA
BRANCH  20  23
ATOM     23  N   UNL     1       3.517   2.837  18.383  0.00  0.00    +0.000 N 
ATOM     24  H   UNL     1       3.634   2.018  18.969  0.00  0.00    +0.000 HD
BRANCH  23  28
ATOM     25  C   UNL     1       7.435   5.753  19.092  0.00  0.00    +0.000 C 
ATOM     26  C   UNL     1       6.491   4.935  18.263  0.00  0.00    +0.000 A 
ATOM     27  C   UNL     1       5.431   4.260  18.829  0.00  0.00    +0.000 A 
ATOM     28  C   UNL     1       4.627   3.574  17.949  0.00  0.00    +0.000 A 
ATOM     29  N   UNL     1       4.837   3.493  16.632  0.00  0.00    +0.000 NA
ATOM     30  C   UNL     1       5.889   4.185  16.170  0.00  0.00    +0.000 A 
ATOM     31  C   UNL     1       6.143   4.175  14.696  0.00  0.00    +0.000 C 
ATOM     32  N   UNL     1       6.728   4.908  16.936  0.00  0.00    +0.000 NA
ENDBRANCH  23  28
ENDBRANCH  20  23
ENDBRANCH   1  20
TORSDOF 7
ENDMDL
