MODEL 1
REMARK VINA RESULT:      -8.6      0.000      0.000
REMARK  Name = 
REMARK  6 active torsions:
REMARK  status: ('A' for Active; 'I' for Inactive)
REMARK    1  A    between atoms: C_2  and  C_3
REMARK    2  A    between atoms: C_3  and  C_4
REMARK    3  A    between atoms: C_6  and  C_7
REMARK    4  A    between atoms: N_21  and  C_22
REMARK    5  A    between atoms: C_22  and  C_23
REMARK    6  A    between atoms: C_23  and  C_24
REMARK                            x       y       z     vdW  Elec       q    Type
REMARK                         _______ _______ _______ _____ _____    ______ ____
ROOT
ATOM      1  C   UNL     1       2.974   3.343  19.805  0.00  0.00    +0.000 C 
ATOM      2  S   UNL     1       1.548   4.429  20.003  0.00  0.00    +0.000 S 
ATOM      3  C   UNL     1       2.595   5.843  19.958  0.00  0.00    +0.000 C 
ATOM      4  N   UNL     1       3.862   5.609  19.884  0.00  0.00    +0.000 NA
ATOM      5  C   UNL     1       4.170   4.273  19.808  0.00  0.00    +0.000 C 
ATOM      6  O   UNL     1       5.316   3.837  19.760  0.00  0.00    +0.000 OA
ENDROOT
BRANCH   3   7
ATOM      7  C   UNL     1       1.954   7.183  20.025  0.00  0.00    +0.000 A 
ATOM      8  C   UNL     1       1.341   7.568  21.162  0.00  0.00    +0.000 A 
ATOM      9  C   UNL     1       0.706   8.865  21.275  0.00  0.00    +0.000 A 
ATOM     10  C   UNL     1       0.014   9.248  22.425  0.00  0.00    +0.000 A 
ATOM     11  C   UNL     1      -0.577  10.511  22.493  0.00  0.00    +0.000 A 
ATOM     12  C   UNL     1      -0.473  11.393  21.414  0.00  0.00    +0.000 A 
ATOM     13  C   UNL     1       0.216  11.012  20.263  0.00  0.00    +0.000 A 
ATOM     14  C   UNL     1       0.794   9.748  20.209  0.00  0.00    +0.000 A 
ATOM     15  O   UNL     1       1.465   9.377  19.031  0.00  0.00    +0.000 OA
ATOM     16  C   UNL     1       2.015   8.105  18.860  0.00  0.00    +0.000 A 
ATOM     17  O   UNL     1       2.503   7.784  17.785  0.00  0.00    +0.000 OA
ENDBRANCH   3   7
BRANCH   1  18
ATOM     18  C   UNL     1       2.944   2.441  18.583  0.00  0.00    +0.000 C 
BRANCH  18  20
ATOM     19  O   UNL     1       2.334   3.490  16.497  0.00  0.00    +0.000 OA
ATOM     20  C   UNL     1       3.224   3.133  17.260  0.00  0.00    +0.000 C 
ATOM     21  N   UNL     1       4.561   3.257  16.962  0.00  0.00    +0.000 N 
ATOM     22  H   UNL     1       5.225   3.231  17.727  0.00  0.00    +0.000 HD
BRANCH  21  23
ATOM     23  C   UNL     1       4.993   3.844  15.703  0.00  0.00    +0.000 C 
BRANCH  23  24
ATOM     24  C   UNL     1       6.505   4.055  15.678  0.00  0.00    +0.000 C 
BRANCH  24  25
ATOM     25  C   UNL     1       6.979   5.055  16.701  0.00  0.00    +0.000 A 
ATOM     26  C   UNL     1       7.679   4.626  17.838  0.00  0.00    +0.000 A 
ATOM     27  C   UNL     1       8.157   5.554  18.765  0.00  0.00    +0.000 A 
ATOM     28  C   UNL     1       7.933   6.916  18.568  0.00  0.00    +0.000 A 
ATOM     29  C   UNL     1       7.216   7.349  17.455  0.00  0.00    +0.000 A 
ATOM     30  C   UNL     1       6.735   6.423  16.528  0.00  0.00    +0.000 A 
ENDBRANCH  24  25
ENDBRANCH  23  24
ENDBRANCH  21  23
ENDBRANCH  18  20
ENDBRANCH   1  18
TORSDOF 6
ENDMDL
MODEL 2
REMARK VINA RESULT:      -8.5      3.167      4.581
REMARK  Name = 
REMARK  6 active torsions:
REMARK  status: ('A' for Active; 'I' for Inactive)
REMARK    1  A    between atoms: C_2  and  C_3
REMARK    2  A    between atoms: C_3  and  C_4
REMARK    3  A    between atoms: C_6  and  C_7
REMARK    4  A    between atoms: N_21  and  C_22
REMARK    5  A    between atoms: C_22  and  C_23
REMARK    6  A    between atoms: C_23  and  C_24
REMARK                            x       y       z     vdW  Elec       q    Type
REMARK                         _______ _______ _______ _____ _____    ______ ____
ROOT
ATOM      1  C   UNL     1       5.219   5.618  16.115  0.00  0.00    +0.000 C 
ATOM      2  S   UNL     1       4.435   7.109  16.760  0.00  0.00    +0.000 S 
ATOM      3  C   UNL     1       3.547   6.154  17.941  0.00  0.00    +0.000 C 
ATOM      4  N   UNL     1       3.706   4.875  17.872  0.00  0.00    +0.000 NA
ATOM      5  C   UNL     1       4.592   4.483  16.899  0.00  0.00    +0.000 C 
ATOM      6  O   UNL     1       4.861   3.312  16.651  0.00  0.00    +0.000 OA
ENDROOT
BRANCH   3   7
ATOM      7  C   UNL     1       2.678   6.878  18.906  0.00  0.00    +0.000 A 
ATOM      8  C   UNL     1       2.241   8.117  18.603  0.00  0.00    +0.000 A 
ATOM      9  C   UNL     1       1.390   8.859  19.510  0.00  0.00    +0.000 A 
ATOM     10  C   UNL     1       0.984  10.166  19.235  0.00  0.00    +0.000 A 
ATOM     11  C   UNL     1       0.157  10.842  20.135  0.00  0.00    +0.000 A 
ATOM     12  C   UNL     1      -0.267  10.211  21.306  0.00  0.00    +0.000 A 
ATOM     13  C   UNL     1       0.139   8.906  21.585  0.00  0.00    +0.000 A 
ATOM     14  C   UNL     1       0.967   8.249  20.682  0.00  0.00    +0.000 A 
ATOM     15  O   UNL     1       1.381   6.942  20.993  0.00  0.00    +0.000 OA
ATOM     16  C   UNL     1       2.267   6.232  20.181  0.00  0.00    +0.000 A 
ATOM     17  O   UNL     1       2.684   5.137  20.534  0.00  0.00    +0.000 OA
ENDBRANCH   3   7
BRANCH   1  18
ATOM     18  C   UNL     1       6.737   5.597  16.179  0.00  0.00    +0.000 C 
BRANCH  18  20
ATOM     19  O   UNL     1       7.411   5.730  18.493  0.00  0.00    +0.000 OA
ATOM     20  C   UNL     1       7.342   6.275  17.397  0.00  0.00    +0.000 C 
ATOM     21  N   UNL     1       7.738   7.574  17.180  0.00  0.00    +0.000 N 
ATOM     22  H   UNL     1       7.940   7.859  16.229  0.00  0.00    +0.000 HD
BRANCH  21  23
ATOM     23  C   UNL     1       8.283   8.379  18.263  0.00  0.00    +0.000 C 
BRANCH  23  24
ATOM     24  C   UNL     1       8.310   9.860  17.894  0.00  0.00    +0.000 C 
BRANCH  24  25
ATOM     25  C   UNL     1       9.391  10.627  18.611  0.00  0.00    +0.000 A 
ATOM     26  C   UNL     1      10.472  11.162  17.896  0.00  0.00    +0.000 A 
ATOM     27  C   UNL     1      11.451  11.910  18.551  0.00  0.00    +0.000 A 
ATOM     28  C   UNL     1      11.363  12.125  19.925  0.00  0.00    +0.000 A 
ATOM     29  C   UNL     1      10.307  11.575  20.649  0.00  0.00    +0.000 A 
ATOM     30  C   UNL     1       9.328  10.824  19.996  0.00  0.00    +0.000 A 
ENDBRANCH  24  25
ENDBRANCH  23  24
ENDBRANCH  21  23
ENDBRANCH  18  20
ENDBRANCH   1  18
TORSDOF 6
ENDMDL
MODEL 3
REMARK VINA RESULT:      -8.4      1.792      2.819
REMARK  Name = 
REMARK  6 active torsions:
REMARK  status: ('A' for Active; 'I' for Inactive)
REMARK    1  A    between atoms: C_2  and  C_3
REMARK    2  A    between atoms: C_3  and  C_4
REMARK    3  A    between atoms: C_6  and  C_7
REMARK    4  A    between atoms: N_21  and  C_22
REMARK    5  A    between atoms: C_22  and  C_23
REMARK    6  A    between atoms: C_23  and  C_24
REMARK                            x       y       z     vdW  Elec       q    Type
REMARK                         _______ _______ _______ _____ _____    ______ ____
ROOT
ATOM      1  C   UNL     1       2.256   2.817  19.762  0.00  0.00    +0.000 C 
ATOM      2  S   UNL     1       1.636   4.278  18.905  0.00  0.00    +0.000 S 
ATOM      3  C   UNL     1       1.930   5.263  20.334  0.00  0.00    +0.000 C 
ATOM      4  N   UNL     1       2.361   4.636  21.377  0.00  0.00    +0.000 NA
ATOM      5  C   UNL     1       2.560   3.294  21.167  0.00  0.00    +0.000 C 
ATOM      6  O   UNL     1       2.939   2.515  22.037  0.00  0.00    +0.000 OA
ENDROOT
BRANCH   3   7
ATOM      7  C   UNL     1       1.646   6.720  20.241  0.00  0.00    +0.000 A 
ATOM      8  C   UNL     1       0.867   7.304  21.173  0.00  0.00    +0.000 A 
ATOM      9  C   UNL     1       0.567   8.720  21.125  0.00  0.00    +0.000 A 
ATOM     10  C   UNL     1      -0.290   9.323  22.048  0.00  0.00    +0.000 A 
ATOM     11  C   UNL     1      -0.545  10.693  21.969  0.00  0.00    +0.000 A 
ATOM     12  C   UNL     1       0.059  11.462  20.971  0.00  0.00    +0.000 A 
ATOM     13  C   UNL     1       0.915  10.863  20.047  0.00  0.00    +0.000 A 
ATOM     14  C   UNL     1       1.154   9.495  20.136  0.00  0.00    +0.000 A 
ATOM     15  O   UNL     1       2.002   8.909  19.180  0.00  0.00    +0.000 OA
ATOM     16  C   UNL     1       2.244   7.534  19.149  0.00  0.00    +0.000 A 
ATOM     17  O   UNL     1       2.906   7.045  18.244  0.00  0.00    +0.000 OA
ENDBRANCH   3   7
BRANCH   1  18
ATOM     18  C   UNL     1       3.447   2.134  19.111  0.00  0.00    +0.000 C 
BRANCH  18  20
ATOM     19  O   UNL     1       5.160   3.788  19.506  0.00  0.00    +0.000 OA
ATOM     20  C   UNL     1       4.583   3.059  18.707  0.00  0.00    +0.000 C 
ATOM     21  N   UNL     1       4.856   3.060  17.359  0.00  0.00    +0.000 N 
ATOM     22  H   UNL     1       4.579   2.251  16.816  0.00  0.00    +0.000 HD
BRANCH  21  23
ATOM     23  C   UNL     1       5.876   3.938  16.806  0.00  0.00    +0.000 C 
BRANCH  23  24
ATOM     24  C   UNL     1       5.316   4.794  15.672  0.00  0.00    +0.000 C 
BRANCH  24  25
ATOM     25  C   UNL     1       5.993   4.540  14.350  0.00  0.00    +0.000 A 
ATOM     26  C   UNL     1       5.423   3.659  13.420  0.00  0.00    +0.000 A 
ATOM     27  C   UNL     1       6.025   3.456  12.178  0.00  0.00    +0.000 A 
ATOM     28  C   UNL     1       7.205   4.125  11.857  0.00  0.00    +0.000 A 
ATOM     29  C   UNL     1       7.793   4.982  12.784  0.00  0.00    +0.000 A 
ATOM     30  C   UNL     1       7.194   5.185  14.028  0.00  0.00    +0.000 A 
ENDBRANCH  24  25
ENDBRANCH  23  24
ENDBRANCH  21  23
ENDBRANCH  18  20
ENDBRANCH   1  18
TORSDOF 6
ENDMDL
MODEL 4
REMARK VINA RESULT:      -8.2      0.939      1.291
REMARK  Name = 
REMARK  6 active torsions:
REMARK  status: ('A' for Active; 'I' for Inactive)
REMARK    1  A    between atoms: C_2  and  C_3
REMARK    2  A    between atoms: C_3  and  C_4
REMARK    3  A    between atoms: C_6  and  C_7
REMARK    4  A    between atoms: N_21  and  C_22
REMARK    5  A    between atoms: C_22  and  C_23
REMARK    6  A    between atoms: C_23  and  C_24
REMARK                            x       y       z     vdW  Elec       q    Type
REMARK                         _______ _______ _______ _____ _____    ______ ____
ROOT
ATOM      1  C   UNL     1       2.084   2.600  19.695  0.00  0.00    +0.000 C 
ATOM      2  S   UNL     1       1.125   4.030  19.159  0.00  0.00    +0.000 S 
ATOM      3  C   UNL     1       2.011   5.066  20.272  0.00  0.00    +0.000 C 
ATOM      4  N   UNL     1       2.872   4.477  21.032  0.00  0.00    +0.000 NA
ATOM      5  C   UNL     1       2.977   3.127  20.800  0.00  0.00    +0.000 C 
ATOM      6  O   UNL     1       3.716   2.380  21.433  0.00  0.00    +0.000 OA
ENDROOT
BRANCH   3   7
ATOM      7  C   UNL     1       1.695   6.519  20.268  0.00  0.00    +0.000 A 
ATOM      8  C   UNL     1       0.954   7.038  21.267  0.00  0.00    +0.000 A 
ATOM      9  C   UNL     1       0.624   8.448  21.306  0.00  0.00    +0.000 A 
ATOM     10  C   UNL     1      -0.195   8.985  22.301  0.00  0.00    +0.000 A 
ATOM     11  C   UNL     1      -0.481  10.351  22.305  0.00  0.00    +0.000 A 
ATOM     12  C   UNL     1       0.054  11.182  21.318  0.00  0.00    +0.000 A 
ATOM     13  C   UNL     1       0.871  10.649  20.321  0.00  0.00    +0.000 A 
ATOM     14  C   UNL     1       1.142   9.284  20.328  0.00  0.00    +0.000 A 
ATOM     15  O   UNL     1       1.950   8.765  19.302  0.00  0.00    +0.000 OA
ATOM     16  C   UNL     1       2.217   7.399  19.189  0.00  0.00    +0.000 A 
ATOM     17  O   UNL     1       2.841   6.971  18.227  0.00  0.00    +0.000 OA
ENDBRANCH   3   7
BRANCH   1  18
ATOM     18  C   UNL     1       2.868   1.892  18.603  0.00  0.00    +0.000 C 
BRANCH  18  20
ATOM     19  O   UNL     1       2.392   2.893  16.459  0.00  0.00    +0.000 OA
ATOM     20  C   UNL     1       3.185   2.739  17.382  0.00  0.00    +0.000 C 
ATOM     21  N   UNL     1       4.460   3.254  17.368  0.00  0.00    +0.000 N 
ATOM     22  H   UNL     1       4.943   3.354  18.252  0.00  0.00    +0.000 HD
BRANCH  21  23
ATOM     23  C   UNL     1       4.936   4.036  16.238  0.00  0.00    +0.000 C 
BRANCH  23  24
ATOM     24  C   UNL     1       6.462   4.076  16.193  0.00  0.00    +0.000 C 
BRANCH  24  25
ATOM     25  C   UNL     1       7.049   5.181  17.032  0.00  0.00    +0.000 A 
ATOM     26  C   UNL     1       7.068   6.499  16.553  0.00  0.00    +0.000 A 
ATOM     27  C   UNL     1       7.571   7.532  17.345  0.00  0.00    +0.000 A 
ATOM     28  C   UNL     1       8.065   7.256  18.619  0.00  0.00    +0.000 A 
ATOM     29  C   UNL     1       8.074   5.947  19.094  0.00  0.00    +0.000 A 
ATOM     30  C   UNL     1       7.574   4.912  18.302  0.00  0.00    +0.000 A 
ENDBRANCH  24  25
ENDBRANCH  23  24
ENDBRANCH  21  23
ENDBRANCH  18  20
ENDBRANCH   1  18
TORSDOF 6
ENDMDL
MODEL 5
REMARK VINA RESULT:      -8.2      2.948      4.013
REMARK  Name = 
REMARK  6 active torsions:
REMARK  status: ('A' for Active; 'I' for Inactive)
REMARK    1  A    between atoms: C_2  and  C_3
REMARK    2  A    between atoms: C_3  and  C_4
REMARK    3  A    between atoms: C_6  and  C_7
REMARK    4  A    between atoms: N_21  and  C_22
REMARK    5  A    between atoms: C_22  and  C_23
REMARK    6  A    between atoms: C_23  and  C_24
REMARK                            x       y       z     vdW  Elec       q    Type
REMARK                         _______ _______ _______ _____ _____    ______ ____
ROOT
ATOM      1  C   UNL     1       4.574   5.498  17.678  0.00  0.00    +0.000 C 
ATOM      2  S   UNL     1       4.004   7.208  17.630  0.00  0.00    +0.000 S 
ATOM      3  C   UNL     1       2.820   6.868  18.887  0.00  0.00    +0.000 C 
ATOM      4  N   UNL     1       2.750   5.641  19.284  0.00  0.00    +0.000 NA
ATOM      5  C   UNL     1       3.660   4.814  18.674  0.00  0.00    +0.000 C 
ATOM      6  O   UNL     1       3.739   3.608  18.888  0.00  0.00    +0.000 OA
ENDROOT
BRANCH   3   7
ATOM      7  C   UNL     1       1.988   7.998  19.379  0.00  0.00    +0.000 A 
ATOM      8  C   UNL     1       1.579   8.008  20.664  0.00  0.00    +0.000 A 
ATOM      9  C   UNL     1       0.771   9.089  21.189  0.00  0.00    +0.000 A 
ATOM     10  C   UNL     1       0.288   9.079  22.499  0.00  0.00    +0.000 A 
ATOM     11  C   UNL     1      -0.482  10.146  22.965  0.00  0.00    +0.000 A 
ATOM     12  C   UNL     1      -0.766  11.225  22.125  0.00  0.00    +0.000 A 
ATOM     13  C   UNL     1      -0.287  11.238  20.815  0.00  0.00    +0.000 A 
ATOM     14  C   UNL     1       0.474  10.164  20.364  0.00  0.00    +0.000 A 
ATOM     15  O   UNL     1       0.927  10.188  19.034  0.00  0.00    +0.000 OA
ATOM     16  C   UNL     1       1.637   9.124  18.474  0.00  0.00    +0.000 A 
ATOM     17  O   UNL     1       1.929   9.135  17.286  0.00  0.00    +0.000 OA
ENDBRANCH   3   7
BRANCH   1  18
ATOM     18  C   UNL     1       6.044   5.308  18.014  0.00  0.00    +0.000 C 
BRANCH  18  20
ATOM     19  O   UNL     1       7.332   6.160  16.159  0.00  0.00    +0.000 OA
ATOM     20  C   UNL     1       6.994   6.277  17.332  0.00  0.00    +0.000 C 
ATOM     21  N   UNL     1       7.497   7.251  18.163  0.00  0.00    +0.000 N 
ATOM     22  H   UNL     1       6.973   7.483  18.998  0.00  0.00    +0.000 HD
BRANCH  21  23
ATOM     23  C   UNL     1       8.467   8.220  17.675  0.00  0.00    +0.000 C 
BRANCH  23  24
ATOM     24  C   UNL     1       8.062   9.645  18.045  0.00  0.00    +0.000 C 
BRANCH  24  25
ATOM     25  C   UNL     1       9.196  10.447  18.631  0.00  0.00    +0.000 A 
ATOM     26  C   UNL     1      10.158  11.028  17.793  0.00  0.00    +0.000 A 
ATOM     27  C   UNL     1      11.184  11.808  18.330  0.00  0.00    +0.000 A 
ATOM     28  C   UNL     1      11.261  12.008  19.707  0.00  0.00    +0.000 A 
ATOM     29  C   UNL     1      10.324  11.414  20.550  0.00  0.00    +0.000 A 
ATOM     30  C   UNL     1       9.299  10.632  20.015  0.00  0.00    +0.000 A 
ENDBRANCH  24  25
ENDBRANCH  23  24
ENDBRANCH  21  23
ENDBRANCH  18  20
ENDBRANCH   1  18
TORSDOF 6
ENDMDL
MODEL 6
REMARK VINA RESULT:      -8.2      2.297      8.725
REMARK  Name = 
REMARK  6 active torsions:
REMARK  status: ('A' for Active; 'I' for Inactive)
REMARK    1  A    between atoms: C_2  and  C_3
REMARK    2  A    between atoms: C_3  and  C_4
REMARK    3  A    between atoms: C_6  and  C_7
REMARK    4  A    between atoms: N_21  and  C_22
REMARK    5  A    between atoms: C_22  and  C_23
REMARK    6  A    between atoms: C_23  and  C_24
REMARK                            x       y       z     vdW  Elec       q    Type
REMARK                         _______ _______ _______ _____ _____    ______ ____
ROOT
ATOM      1  C   UNL     1       3.821   4.870  19.942  0.00  0.00    +0.000 C 
ATOM      2  S   UNL     1       4.726   5.834  18.715  0.00  0.00    +0.000 S 
ATOM      3  C   UNL     1       5.068   4.374  17.794  0.00  0.00    +0.000 C 
ATOM      4  N   UNL     1       4.658   3.266  18.314  0.00  0.00    +0.000 NA
ATOM      5  C   UNL     1       3.976   3.432  19.493  0.00  0.00    +0.000 C 
ATOM      6  O   UNL     1       3.529   2.504  20.161  0.00  0.00    +0.000 OA
ENDROOT
BRANCH   3   7
ATOM      7  C   UNL     1       5.809   4.521  16.513  0.00  0.00    +0.000 A 
ATOM      8  C   UNL     1       5.295   3.988  15.387  0.00  0.00    +0.000 A 
ATOM      9  C   UNL     1       5.979   4.109  14.115  0.00  0.00    +0.000 A 
ATOM     10  C   UNL     1       5.489   3.506  12.955  0.00  0.00    +0.000 A 
ATOM     11  C   UNL     1       6.177   3.655  11.750  0.00  0.00    +0.000 A 
ATOM     12  C   UNL     1       7.351   4.409  11.702  0.00  0.00    +0.000 A 
ATOM     13  C   UNL     1       7.845   5.011  12.859  0.00  0.00    +0.000 A 
ATOM     14  C   UNL     1       7.151   4.848  14.054  0.00  0.00    +0.000 A 
ATOM     15  O   UNL     1       7.678   5.445  15.212  0.00  0.00    +0.000 OA
ATOM     16  C   UNL     1       7.088   5.277  16.466  0.00  0.00    +0.000 A 
ATOM     17  O   UNL     1       7.629   5.728  17.467  0.00  0.00    +0.000 OA
ENDBRANCH   3   7
BRANCH   1  18
ATOM     18  C   UNL     1       2.367   5.263  20.140  0.00  0.00    +0.000 C 
BRANCH  18  20
ATOM     19  O   UNL     1       2.294   7.371  18.966  0.00  0.00    +0.000 OA
ATOM     20  C   UNL     1       2.072   6.747  19.998  0.00  0.00    +0.000 C 
ATOM     21  N   UNL     1       1.605   7.341  21.147  0.00  0.00    +0.000 N 
ATOM     22  H   UNL     1       1.164   6.752  21.843  0.00  0.00    +0.000 HD
BRANCH  21  23
ATOM     23  C   UNL     1       1.333   8.769  21.191  0.00  0.00    +0.000 C 
BRANCH  23  24
ATOM     24  C   UNL     1       0.348   9.113  22.305  0.00  0.00    +0.000 C 
BRANCH  24  25
ATOM     25  C   UNL     1      -0.232  10.498  22.175  0.00  0.00    +0.000 A 
ATOM     26  C   UNL     1      -1.198  10.949  23.086  0.00  0.00    +0.000 A 
ATOM     27  C   UNL     1      -1.704  12.246  22.993  0.00  0.00    +0.000 A 
ATOM     28  C   UNL     1      -1.256  13.101  21.987  0.00  0.00    +0.000 A 
ATOM     29  C   UNL     1      -0.316  12.653  21.063  0.00  0.00    +0.000 A 
ATOM     30  C   UNL     1       0.190  11.355  21.151  0.00  0.00    +0.000 A 
ENDBRANCH  24  25
ENDBRANCH  23  24
ENDBRANCH  21  23
ENDBRANCH  18  20
ENDBRANCH   1  18
TORSDOF 6
ENDMDL
MODEL 7
REMARK VINA RESULT:      -8.0      2.695      8.495
REMARK  Name = 
REMARK  6 active torsions:
REMARK  status: ('A' for Active; 'I' for Inactive)
REMARK    1  A    between atoms: C_2  and  C_3
REMARK    2  A    between atoms: C_3  and  C_4
REMARK    3  A    between atoms: C_6  and  C_7
REMARK    4  A    between atoms: N_21  and  C_22
REMARK    5  A    between atoms: C_22  and  C_23
REMARK    6  A    between atoms: C_23  and  C_24
REMARK                            x       y       z     vdW  Elec       q    Type
REMARK                         _______ _______ _______ _____ _____    ______ ____
ROOT
ATOM      1  C   UNL     1       3.502   5.188  19.891  0.00  0.00    +0.000 C 
ATOM      2  S   UNL     1       4.410   6.116  18.640  0.00  0.00    +0.000 S 
ATOM      3  C   UNL     1       4.869   4.619  17.836  0.00  0.00    +0.000 C 
ATOM      4  N   UNL     1       4.494   3.527  18.413  0.00  0.00    +0.000 NA
ATOM      5  C   UNL     1       3.751   3.733  19.549  0.00  0.00    +0.000 C 
ATOM      6  O   UNL     1       3.324   2.829  20.260  0.00  0.00    +0.000 OA
ENDROOT
BRANCH   3   7
ATOM      7  C   UNL     1       5.658   4.721  16.580  0.00  0.00    +0.000 A 
ATOM      8  C   UNL     1       5.235   4.070  15.478  0.00  0.00    +0.000 A 
ATOM      9  C   UNL     1       5.969   4.143  14.231  0.00  0.00    +0.000 A 
ATOM     10  C   UNL     1       5.575   3.422  13.102  0.00  0.00    +0.000 A 
ATOM     11  C   UNL     1       6.308   3.529  11.918  0.00  0.00    +0.000 A 
ATOM     12  C   UNL     1       7.431   4.357  11.862  0.00  0.00    +0.000 A 
ATOM     13  C   UNL     1       7.829   5.077  12.988  0.00  0.00    +0.000 A 
ATOM     14  C   UNL     1       7.091   4.956  14.161  0.00  0.00    +0.000 A 
ATOM     15  O   UNL     1       7.522   5.673  15.291  0.00  0.00    +0.000 OA
ATOM     16  C   UNL     1       6.886   5.559  16.528  0.00  0.00    +0.000 A 
ATOM     17  O   UNL     1       7.348   6.120  17.512  0.00  0.00    +0.000 OA
ENDBRANCH   3   7
BRANCH   1  18
ATOM     18  C   UNL     1       2.022   5.513  20.000  0.00  0.00    +0.000 C 
BRANCH  18  20
ATOM     19  O   UNL     1       1.428   7.301  21.509  0.00  0.00    +0.000 OA
ATOM     20  C   UNL     1       1.700   6.952  20.366  0.00  0.00    +0.000 C 
ATOM     21  N   UNL     1       1.670   7.812  19.293  0.00  0.00    +0.000 N 
ATOM     22  H   UNL     1       2.183   7.553  18.459  0.00  0.00    +0.000 HD
BRANCH  21  23
ATOM     23  C   UNL     1       1.318   9.213  19.470  0.00  0.00    +0.000 C 
BRANCH  23  24
ATOM     24  C   UNL     1       0.906   9.853  18.146  0.00  0.00    +0.000 C 
BRANCH  24  25
ATOM     25  C   UNL     1      -0.470  10.464  18.190  0.00  0.00    +0.000 A 
ATOM     26  C   UNL     1      -1.554   9.812  17.584  0.00  0.00    +0.000 A 
ATOM     27  C   UNL     1      -2.837  10.354  17.660  0.00  0.00    +0.000 A 
ATOM     28  C   UNL     1      -3.049  11.555  18.336  0.00  0.00    +0.000 A 
ATOM     29  C   UNL     1      -1.975  12.224  18.918  0.00  0.00    +0.000 A 
ATOM     30  C   UNL     1      -0.689  11.685  18.841  0.00  0.00    +0.000 A 
ENDBRANCH  24  25
ENDBRANCH  23  24
ENDBRANCH  21  23
ENDBRANCH  18  20
ENDBRANCH   1  18
TORSDOF 6
ENDMDL
MODEL 8
REMARK VINA RESULT:      -7.9      2.395      8.665
REMARK  Name = 
REMARK  6 active torsions:
REMARK  status: ('A' for Active; 'I' for Inactive)
REMARK    1  A    between atoms: C_2  and  C_3
REMARK    2  A    between atoms: C_3  and  C_4
REMARK    3  A    between atoms: C_6  and  C_7
REMARK    4  A    between atoms: N_21  and  C_22
REMARK    5  A    between atoms: C_22  and  C_23
REMARK    6  A    between atoms: C_23  and  C_24
REMARK                            x       y       z     vdW  Elec       q    Type
REMARK                         _______ _______ _______ _____ _____    ______ ____
ROOT
ATOM      1  C   UNL     1       3.608   5.555  19.753  0.00  0.00    +0.000 C 
ATOM      2  S   UNL     1       4.539   6.371  18.441  0.00  0.00    +0.000 S 
ATOM      3  C   UNL     1       4.918   4.813  17.716  0.00  0.00    +0.000 C 
ATOM      4  N   UNL     1       4.502   3.772  18.357  0.00  0.00    +0.000 NA
ATOM      5  C   UNL     1       3.787   4.074  19.489  0.00  0.00    +0.000 C 
ATOM      6  O   UNL     1       3.330   3.231  20.254  0.00  0.00    +0.000 OA
ENDROOT
BRANCH   3   7
ATOM      7  C   UNL     1       5.692   4.809  16.446  0.00  0.00    +0.000 A 
ATOM      8  C   UNL     1       5.187   4.184  15.364  0.00  0.00    +0.000 A 
ATOM      9  C   UNL     1       5.903   4.157  14.105  0.00  0.00    +0.000 A 
ATOM     10  C   UNL     1       5.419   3.459  12.997  0.00  0.00    +0.000 A 
ATOM     11  C   UNL     1       6.139   3.467  11.801  0.00  0.00    +0.000 A 
ATOM     12  C   UNL     1       7.339   4.176  11.711  0.00  0.00    +0.000 A 
ATOM     13  C   UNL     1       7.826   4.873  12.816  0.00  0.00    +0.000 A 
ATOM     14  C   UNL     1       7.100   4.850  14.002  0.00  0.00    +0.000 A 
ATOM     15  O   UNL     1       7.620   5.542  15.109  0.00  0.00    +0.000 OA
ATOM     16  C   UNL     1       6.997   5.518  16.358  0.00  0.00    +0.000 A 
ATOM     17  O   UNL     1       7.529   6.048  17.324  0.00  0.00    +0.000 OA
ENDBRANCH   3   7
BRANCH   1  18
ATOM     18  C   UNL     1       2.146   5.953  19.862  0.00  0.00    +0.000 C 
BRANCH  18  20
ATOM     19  O   UNL     1       1.837   7.770  21.421  0.00  0.00    +0.000 OA
ATOM     20  C   UNL     1       1.896   7.400  20.254  0.00  0.00    +0.000 C 
ATOM     21  N   UNL     1       1.671   8.240  19.188  0.00  0.00    +0.000 N 
ATOM     22  H   UNL     1       2.024   7.965  18.280  0.00  0.00    +0.000 HD
BRANCH  21  23
ATOM     23  C   UNL     1       1.357   9.645  19.401  0.00  0.00    +0.000 C 
BRANCH  23  24
ATOM     24  C   UNL     1      -0.150   9.886  19.382  0.00  0.00    +0.000 C 
BRANCH  24  25
ATOM     25  C   UNL     1      -0.652  10.586  20.619  0.00  0.00    +0.000 A 
ATOM     26  C   UNL     1      -0.468  10.008  21.883  0.00  0.00    +0.000 A 
ATOM     27  C   UNL     1      -0.892  10.675  23.033  0.00  0.00    +0.000 A 
ATOM     28  C   UNL     1      -1.509  11.921  22.930  0.00  0.00    +0.000 A 
ATOM     29  C   UNL     1      -1.719  12.491  21.677  0.00  0.00    +0.000 A 
ATOM     30  C   UNL     1      -1.298  11.825  20.525  0.00  0.00    +0.000 A 
ENDBRANCH  24  25
ENDBRANCH  23  24
ENDBRANCH  21  23
ENDBRANCH  18  20
ENDBRANCH   1  18
TORSDOF 6
ENDMDL
MODEL 9
REMARK VINA RESULT:      -7.9      2.965      4.028
REMARK  Name = 
REMARK  6 active torsions:
REMARK  status: ('A' for Active; 'I' for Inactive)
REMARK    1  A    between atoms: C_2  and  C_3
REMARK    2  A    between atoms: C_3  and  C_4
REMARK    3  A    between atoms: C_6  and  C_7
REMARK    4  A    between atoms: N_21  and  C_22
REMARK    5  A    between atoms: C_22  and  C_23
REMARK    6  A    between atoms: C_23  and  C_24
REMARK                            x       y       z     vdW  Elec       q    Type
REMARK                         _______ _______ _______ _____ _____    ______ ____
ROOT
ATOM      1  C   UNL     1       4.794   5.193  17.648  0.00  0.00    +0.000 C 
ATOM      2  S   UNL     1       4.087   6.842  17.460  0.00  0.00    +0.000 S 
ATOM      3  C   UNL     1       3.068   6.586  18.872  0.00  0.00    +0.000 C 
ATOM      4  N   UNL     1       3.137   5.419  19.418  0.00  0.00    +0.000 NA
ATOM      5  C   UNL     1       4.043   4.583  18.814  0.00  0.00    +0.000 C 
ATOM      6  O   UNL     1       4.239   3.422  19.161  0.00  0.00    +0.000 OA
ENDROOT
BRANCH   3   7
ATOM      7  C   UNL     1       2.203   7.712  19.315  0.00  0.00    +0.000 A 
ATOM      8  C   UNL     1       1.765   7.749  20.589  0.00  0.00    +0.000 A 
ATOM      9  C   UNL     1       0.923   8.827  21.066  0.00  0.00    +0.000 A 
ATOM     10  C   UNL     1       0.411   8.841  22.365  0.00  0.00    +0.000 A 
ATOM     11  C   UNL     1      -0.390   9.905  22.785  0.00  0.00    +0.000 A 
ATOM     12  C   UNL     1      -0.675  10.955  21.909  0.00  0.00    +0.000 A 
ATOM     13  C   UNL     1      -0.166  10.943  20.611  0.00  0.00    +0.000 A 
ATOM     14  C   UNL     1       0.625   9.873  20.206  0.00  0.00    +0.000 A 
ATOM     15  O   UNL     1       1.109   9.871  18.886  0.00  0.00    +0.000 OA
ATOM     16  C   UNL     1       1.852   8.807  18.371  0.00  0.00    +0.000 A 
ATOM     17  O   UNL     1       2.171   8.792  17.190  0.00  0.00    +0.000 OA
ENDBRANCH   3   7
BRANCH   1  18
ATOM     18  C   UNL     1       6.301   5.146  17.839  0.00  0.00    +0.000 C 
BRANCH  18  20
ATOM     19  O   UNL     1       7.430   6.362  16.087  0.00  0.00    +0.000 OA
ATOM     20  C   UNL     1       7.064   6.322  17.256  0.00  0.00    +0.000 C 
ATOM     21  N   UNL     1       7.372   7.303  18.171  0.00  0.00    +0.000 N 
ATOM     22  H   UNL     1       6.806   7.369  19.008  0.00  0.00    +0.000 HD
BRANCH  21  23
ATOM     23  C   UNL     1       8.153   8.467  17.781  0.00  0.00    +0.000 C 
BRANCH  23  24
ATOM     24  C   UNL     1       8.934   9.033  18.965  0.00  0.00    +0.000 C 
BRANCH  24  25
ATOM     25  C   UNL     1       9.169  10.517  18.862  0.00  0.00    +0.000 A 
ATOM     26  C   UNL     1       9.938  11.181  19.829  0.00  0.00    +0.000 A 
ATOM     27  C   UNL     1      10.193  12.548  19.712  0.00  0.00    +0.000 A 
ATOM     28  C   UNL     1       9.679  13.265  18.633  0.00  0.00    +0.000 A 
ATOM     29  C   UNL     1       8.893  12.619  17.681  0.00  0.00    +0.000 A 
ATOM     30  C   UNL     1       8.633  11.253  17.798  0.00  0.00    +0.000 A 
ENDBRANCH  24  25
ENDBRANCH  23  24
ENDBRANCH  21  23
ENDBRANCH  18  20
ENDBRANCH   1  18
TORSDOF 6
ENDMDL
