MODEL 1
REMARK VINA RESULT:      -8.1      0.000      0.000
REMARK  Name = 
REMARK  6 active torsions:
REMARK  status: ('A' for Active; 'I' for Inactive)
REMARK    1  A    between atoms: C_2  and  C_3
REMARK    2  A    between atoms: C_3  and  O_4
REMARK    3  A    between atoms: O_4  and  C_5
REMARK    4  A    between atoms: C_5  and  C_7
REMARK    5  A    between atoms: N_16  and  C_17
REMARK    6  A    between atoms: C_22  and  C_23
REMARK                            x       y       z     vdW  Elec       q    Type
REMARK                         _______ _______ _______ _____ _____    ______ ____
ROOT
ATOM      1  O   UNL     1       0.694   4.612  20.119  0.00  0.00    +0.000 OA
ATOM      2  C   UNL     1       1.774   4.874  20.640  0.00  0.00    +0.000 C 
ATOM      3  N   UNL     1       2.318   6.141  20.802  0.00  0.00    +0.000 N 
ATOM      4  H   UNL     1       3.273   6.170  21.162  0.00  0.00    +0.000 HD
ENDROOT
BRANCH   3   5
ATOM      5  C   UNL     1       1.703   7.382  20.503  0.00  0.00    +0.000 A 
ATOM      6  C   UNL     1       0.895   8.037  21.442  0.00  0.00    +0.000 A 
ATOM      7  C   UNL     1       0.299   9.269  21.159  0.00  0.00    +0.000 A 
ATOM      8  C   UNL     1       0.506   9.877  19.931  0.00  0.00    +0.000 A 
ATOM      9  C   UNL     1       1.314   9.249  18.986  0.00  0.00    +0.000 A 
ATOM     10  C   UNL     1       1.920   8.000  19.254  0.00  0.00    +0.000 A 
BRANCH  10  11
ATOM     11  C   UNL     1       2.731   7.387  18.140  0.00  0.00    +0.000 C 
ATOM     12  F   UNL     1       2.827   8.158  17.020  0.00  0.00    +0.000 F 
ATOM     13  F   UNL     1       4.017   7.131  18.518  0.00  0.00    +0.000 F 
ATOM     14  F   UNL     1       2.227   6.192  17.723  0.00  0.00    +0.000 F 
ENDBRANCH  10  11
ENDBRANCH   3   5
BRANCH   2  15
ATOM     15  C   UNL     1       2.672   3.750  21.167  0.00  0.00    +0.000 C 
BRANCH  15  16
ATOM     16  O   UNL     1       2.963   2.778  20.168  0.00  0.00    +0.000 OA
BRANCH  16  17
ATOM     17  C   UNL     1       4.272   2.706  19.788  0.00  0.00    +0.000 C 
ATOM     18  O   UNL     1       5.121   2.090  20.431  0.00  0.00    +0.000 OA
BRANCH  17  19
ATOM     19  C   UNL     1       4.557   3.429  18.541  0.00  0.00    +0.000 A 
ATOM     20  N   UNL     1       3.878   3.204  17.396  0.00  0.00    +0.000 NA
ATOM     21  N   UNL     1       4.442   4.035  16.507  0.00  0.00    +0.000 N 
ATOM     22  C   UNL     1       5.455   4.800  17.014  0.00  0.00    +0.000 A 
ATOM     23  C   UNL     1       6.274   5.766  16.421  0.00  0.00    +0.000 A 
ATOM     24  C   UNL     1       7.234   6.373  17.237  0.00  0.00    +0.000 A 
ATOM     25  C   UNL     1       7.362   6.027  18.581  0.00  0.00    +0.000 A 
ATOM     26  C   UNL     1       6.532   5.056  19.154  0.00  0.00    +0.000 A 
ATOM     27  C   UNL     1       5.557   4.431  18.351  0.00  0.00    +0.000 A 
ATOM     28  H   UNL     1       4.091   4.031  15.556  0.00  0.00    +0.000 HD
ENDBRANCH  17  19
ENDBRANCH  16  17
ENDBRANCH  15  16
ENDBRANCH   2  15
TORSDOF 6
ENDMDL
MODEL 2
REMARK VINA RESULT:      -7.7      2.290      5.231
REMARK  Name = 
REMARK  6 active torsions:
REMARK  status: ('A' for Active; 'I' for Inactive)
REMARK    1  A    between atoms: C_2  and  C_3
REMARK    2  A    between atoms: C_3  and  O_4
REMARK    3  A    between atoms: O_4  and  C_5
REMARK    4  A    between atoms: C_5  and  C_7
REMARK    5  A    between atoms: N_16  and  C_17
REMARK    6  A    between atoms: C_22  and  C_23
REMARK                            x       y       z     vdW  Elec       q    Type
REMARK                         _______ _______ _______ _____ _____    ______ ____
ROOT
ATOM      1  O   UNL     1       4.906   2.525  20.062  0.00  0.00    +0.000 OA
ATOM      2  C   UNL     1       4.469   2.548  18.915  0.00  0.00    +0.000 C 
ATOM      3  N   UNL     1       4.799   3.469  17.931  0.00  0.00    +0.000 N 
ATOM      4  H   UNL     1       4.263   3.403  17.065  0.00  0.00    +0.000 HD
ENDROOT
BRANCH   3   5
ATOM      5  C   UNL     1       5.776   4.492  18.009  0.00  0.00    +0.000 A 
ATOM      6  C   UNL     1       6.176   5.021  19.245  0.00  0.00    +0.000 A 
ATOM      7  C   UNL     1       7.150   6.019  19.330  0.00  0.00    +0.000 A 
ATOM      8  C   UNL     1       7.751   6.506  18.179  0.00  0.00    +0.000 A 
ATOM      9  C   UNL     1       7.376   5.988  16.942  0.00  0.00    +0.000 A 
ATOM     10  C   UNL     1       6.389   4.982  16.837  0.00  0.00    +0.000 A 
BRANCH  10  11
ATOM     11  C   UNL     1       6.023   4.532  15.446  0.00  0.00    +0.000 C 
ATOM     12  F   UNL     1       6.795   5.068  14.457  0.00  0.00    +0.000 F 
ATOM     13  F   UNL     1       6.126   3.180  15.295  0.00  0.00    +0.000 F 
ATOM     14  F   UNL     1       4.738   4.841  15.117  0.00  0.00    +0.000 F 
ENDBRANCH  10  11
ENDBRANCH   3   5
BRANCH   2  15
ATOM     15  C   UNL     1       3.441   1.507  18.458  0.00  0.00    +0.000 C 
BRANCH  15  16
ATOM     16  O   UNL     1       2.359   2.095  17.741  0.00  0.00    +0.000 OA
BRANCH  16  17
ATOM     17  C   UNL     1       1.266   2.414  18.494  0.00  0.00    +0.000 C 
ATOM     18  O   UNL     1       0.200   1.807  18.414  0.00  0.00    +0.000 OA
BRANCH  17  19
ATOM     19  C   UNL     1       1.498   3.542  19.407  0.00  0.00    +0.000 A 
ATOM     20  N   UNL     1       1.388   3.430  20.748  0.00  0.00    +0.000 NA
ATOM     21  N   UNL     1       1.656   4.662  21.207  0.00  0.00    +0.000 N 
ATOM     22  C   UNL     1       1.943   5.576  20.233  0.00  0.00    +0.000 A 
ATOM     23  C   UNL     1       2.268   6.935  20.301  0.00  0.00    +0.000 A 
ATOM     24  C   UNL     1       2.506   7.594  19.091  0.00  0.00    +0.000 A 
ATOM     25  C   UNL     1       2.424   6.919  17.874  0.00  0.00    +0.000 A 
ATOM     26  C   UNL     1       2.097   5.560  17.828  0.00  0.00    +0.000 A 
ATOM     27  C   UNL     1       1.852   4.875  19.035  0.00  0.00    +0.000 A 
ATOM     28  H   UNL     1       1.623   4.819  22.208  0.00  0.00    +0.000 HD
ENDBRANCH  17  19
ENDBRANCH  16  17
ENDBRANCH  15  16
ENDBRANCH   2  15
TORSDOF 6
ENDMDL
MODEL 3
REMARK VINA RESULT:      -7.7      1.841      2.443
REMARK  Name = 
REMARK  6 active torsions:
REMARK  status: ('A' for Active; 'I' for Inactive)
REMARK    1  A    between atoms: C_2  and  C_3
REMARK    2  A    between atoms: C_3  and  O_4
REMARK    3  A    between atoms: O_4  and  C_5
REMARK    4  A    between atoms: C_5  and  C_7
REMARK    5  A    between atoms: N_16  and  C_17
REMARK    6  A    between atoms: C_22  and  C_23
REMARK                            x       y       z     vdW  Elec       q    Type
REMARK                         _______ _______ _______ _____ _____    ______ ____
ROOT
ATOM      1  O   UNL     1       0.986   4.606  19.608  0.00  0.00    +0.000 OA
ATOM      2  C   UNL     1       1.858   4.951  20.401  0.00  0.00    +0.000 C 
ATOM      3  N   UNL     1       2.538   6.161  20.395  0.00  0.00    +0.000 N 
ATOM      4  H   UNL     1       3.306   6.241  21.063  0.00  0.00    +0.000 HD
ENDROOT
BRANCH   3   5
ATOM      5  C   UNL     1       2.296   7.275  19.554  0.00  0.00    +0.000 A 
ATOM      6  C   UNL     1       2.862   7.355  18.273  0.00  0.00    +0.000 A 
ATOM      7  C   UNL     1       2.614   8.444  17.433  0.00  0.00    +0.000 A 
ATOM      8  C   UNL     1       1.788   9.475  17.854  0.00  0.00    +0.000 A 
ATOM      9  C   UNL     1       1.207   9.411  19.118  0.00  0.00    +0.000 A 
ATOM     10  C   UNL     1       1.451   8.320  19.983  0.00  0.00    +0.000 A 
BRANCH  10  11
ATOM     11  C   UNL     1       0.813   8.379  21.348  0.00  0.00    +0.000 C 
ATOM     12  F   UNL     1       0.087   9.510  21.584  0.00  0.00    +0.000 F 
ATOM     13  F   UNL     1      -0.047   7.343  21.563  0.00  0.00    +0.000 F 
ATOM     14  F   UNL     1       1.727   8.312  22.356  0.00  0.00    +0.000 F 
ENDBRANCH  10  11
ENDBRANCH   3   5
BRANCH   2  15
ATOM     15  C   UNL     1       2.308   4.002  21.517  0.00  0.00    +0.000 C 
BRANCH  15  16
ATOM     16  O   UNL     1       2.600   2.695  21.029  0.00  0.00    +0.000 OA
BRANCH  16  17
ATOM     17  C   UNL     1       3.839   2.545  20.474  0.00  0.00    +0.000 C 
ATOM     18  O   UNL     1       4.791   2.067  21.089  0.00  0.00    +0.000 OA
BRANCH  17  19
ATOM     19  C   UNL     1       3.912   3.001  19.079  0.00  0.00    +0.000 A 
ATOM     20  N   UNL     1       3.169   2.454  18.093  0.00  0.00    +0.000 NA
ATOM     21  N   UNL     1       3.535   3.125  16.991  0.00  0.00    +0.000 N 
ATOM     22  C   UNL     1       4.477   4.092  17.207  0.00  0.00    +0.000 A 
ATOM     23  C   UNL     1       5.103   4.989  16.335  0.00  0.00    +0.000 A 
ATOM     24  C   UNL     1       6.042   5.864  16.890  0.00  0.00    +0.000 A 
ATOM     25  C   UNL     1       6.335   5.840  18.252  0.00  0.00    +0.000 A 
ATOM     26  C   UNL     1       5.697   4.933  19.107  0.00  0.00    +0.000 A 
ATOM     27  C   UNL     1       4.747   4.042  18.570  0.00  0.00    +0.000 A 
ATOM     28  H   UNL     1       3.104   2.873  16.110  0.00  0.00    +0.000 HD
ENDBRANCH  17  19
ENDBRANCH  16  17
ENDBRANCH  15  16
ENDBRANCH   2  15
TORSDOF 6
ENDMDL
MODEL 4
REMARK VINA RESULT:      -7.7      3.236      5.248
REMARK  Name = 
REMARK  6 active torsions:
REMARK  status: ('A' for Active; 'I' for Inactive)
REMARK    1  A    between atoms: C_2  and  C_3
REMARK    2  A    between atoms: C_3  and  O_4
REMARK    3  A    between atoms: O_4  and  C_5
REMARK    4  A    between atoms: C_5  and  C_7
REMARK    5  A    between atoms: N_16  and  C_17
REMARK    6  A    between atoms: C_22  and  C_23
REMARK                            x       y       z     vdW  Elec       q    Type
REMARK                         _______ _______ _______ _____ _____    ______ ____
ROOT
ATOM      1  O   UNL     1       5.628   5.425  19.745  0.00  0.00    +0.000 OA
ATOM      2  C   UNL     1       5.673   4.516  18.921  0.00  0.00    +0.000 C 
ATOM      3  N   UNL     1       4.771   3.467  18.811  0.00  0.00    +0.000 N 
ATOM      4  H   UNL     1       5.017   2.741  18.136  0.00  0.00    +0.000 HD
ENDROOT
BRANCH   3   5
ATOM      5  C   UNL     1       3.571   3.289  19.541  0.00  0.00    +0.000 A 
ATOM      6  C   UNL     1       3.574   2.688  20.809  0.00  0.00    +0.000 A 
ATOM      7  C   UNL     1       2.396   2.524  21.541  0.00  0.00    +0.000 A 
ATOM      8  C   UNL     1       1.187   2.965  21.025  0.00  0.00    +0.000 A 
ATOM      9  C   UNL     1       1.162   3.574  19.773  0.00  0.00    +0.000 A 
ATOM     10  C   UNL     1       2.343   3.743  19.016  0.00  0.00    +0.000 A 
BRANCH  10  11
ATOM     11  C   UNL     1       2.192   4.367  17.652  0.00  0.00    +0.000 C 
ATOM     12  F   UNL     1       2.829   3.697  16.649  0.00  0.00    +0.000 F 
ATOM     13  F   UNL     1       0.887   4.450  17.263  0.00  0.00    +0.000 F 
ATOM     14  F   UNL     1       2.670   5.642  17.604  0.00  0.00    +0.000 F 
ENDBRANCH  10  11
ENDBRANCH   3   5
BRANCH   2  15
ATOM     15  C   UNL     1       6.814   4.452  17.900  0.00  0.00    +0.000 C 
BRANCH  15  16
ATOM     16  O   UNL     1       7.055   5.713  17.281  0.00  0.00    +0.000 OA
BRANCH  16  17
ATOM     17  C   UNL     1       6.287   5.978  16.183  0.00  0.00    +0.000 C 
ATOM     18  O   UNL     1       5.209   6.567  16.250  0.00  0.00    +0.000 OA
BRANCH  17  19
ATOM     19  C   UNL     1       6.880   5.499  14.927  0.00  0.00    +0.000 A 
ATOM     20  N   UNL     1       8.121   5.848  14.527  0.00  0.00    +0.000 NA
ATOM     21  N   UNL     1       8.276   5.228  13.347  0.00  0.00    +0.000 N 
ATOM     22  C   UNL     1       7.199   4.483  12.957  0.00  0.00    +0.000 A 
ATOM     23  C   UNL     1       6.973   3.704  11.817  0.00  0.00    +0.000 A 
ATOM     24  C   UNL     1       5.736   3.059  11.722  0.00  0.00    +0.000 A 
ATOM     25  C   UNL     1       4.775   3.190  12.724  0.00  0.00    +0.000 A 
ATOM     26  C   UNL     1       5.021   3.975  13.856  0.00  0.00    +0.000 A 
ATOM     27  C   UNL     1       6.262   4.634  13.973  0.00  0.00    +0.000 A 
ATOM     28  H   UNL     1       9.149   5.357  12.849  0.00  0.00    +0.000 HD
ENDBRANCH  17  19
ENDBRANCH  16  17
ENDBRANCH  15  16
ENDBRANCH   2  15
TORSDOF 6
ENDMDL
MODEL 5
REMARK VINA RESULT:      -7.5      1.308      1.931
REMARK  Name = 
REMARK  6 active torsions:
REMARK  status: ('A' for Active; 'I' for Inactive)
REMARK    1  A    between atoms: C_2  and  C_3
REMARK    2  A    between atoms: C_3  and  O_4
REMARK    3  A    between atoms: O_4  and  C_5
REMARK    4  A    between atoms: C_5  and  C_7
REMARK    5  A    between atoms: N_16  and  C_17
REMARK    6  A    between atoms: C_22  and  C_23
REMARK                            x       y       z     vdW  Elec       q    Type
REMARK                         _______ _______ _______ _____ _____    ______ ____
ROOT
ATOM      1  O   UNL     1       0.743   4.348  19.717  0.00  0.00    +0.000 OA
ATOM      2  C   UNL     1       1.771   4.526  20.364  0.00  0.00    +0.000 C 
ATOM      3  N   UNL     1       2.355   5.752  20.652  0.00  0.00    +0.000 N 
ATOM      4  H   UNL     1       3.265   5.712  21.113  0.00  0.00    +0.000 HD
ENDROOT
BRANCH   3   5
ATOM      5  C   UNL     1       1.837   7.038  20.359  0.00  0.00    +0.000 A 
ATOM      6  C   UNL     1       1.001   7.708  21.263  0.00  0.00    +0.000 A 
ATOM      7  C   UNL     1       0.500   8.983  20.987  0.00  0.00    +0.000 A 
ATOM      8  C   UNL     1       0.831   9.619  19.800  0.00  0.00    +0.000 A 
ATOM      9  C   UNL     1       1.668   8.977  18.892  0.00  0.00    +0.000 A 
ATOM     10  C   UNL     1       2.180   7.685  19.153  0.00  0.00    +0.000 A 
BRANCH  10  11
ATOM     11  C   UNL     1       3.033   7.062  18.077  0.00  0.00    +0.000 C 
ATOM     12  F   UNL     1       2.564   5.874  17.601  0.00  0.00    +0.000 F 
ATOM     13  F   UNL     1       3.158   7.869  16.985  0.00  0.00    +0.000 F 
ATOM     14  F   UNL     1       4.305   6.814  18.497  0.00  0.00    +0.000 F 
ENDBRANCH  10  11
ENDBRANCH   3   5
BRANCH   2  15
ATOM     15  C   UNL     1       2.552   3.331  20.921  0.00  0.00    +0.000 C 
BRANCH  15  16
ATOM     16  O   UNL     1       3.900   3.305  20.460  0.00  0.00    +0.000 OA
BRANCH  16  17
ATOM     17  C   UNL     1       4.052   3.142  19.112  0.00  0.00    +0.000 C 
ATOM     18  O   UNL     1       3.287   2.460  18.433  0.00  0.00    +0.000 OA
BRANCH  17  19
ATOM     19  C   UNL     1       5.207   3.866  18.565  0.00  0.00    +0.000 A 
ATOM     20  N   UNL     1       6.184   4.378  19.344  0.00  0.00    +0.000 NA
ATOM     21  N   UNL     1       7.026   4.963  18.479  0.00  0.00    +0.000 N 
ATOM     22  C   UNL     1       6.653   4.854  17.168  0.00  0.00    +0.000 A 
ATOM     23  C   UNL     1       7.250   5.318  15.992  0.00  0.00    +0.000 A 
ATOM     24  C   UNL     1       6.595   5.032  14.790  0.00  0.00    +0.000 A 
ATOM     25  C   UNL     1       5.401   4.313  14.773  0.00  0.00    +0.000 A 
ATOM     26  C   UNL     1       4.820   3.859  15.962  0.00  0.00    +0.000 A 
ATOM     27  C   UNL     1       5.463   4.135  17.185  0.00  0.00    +0.000 A 
ATOM     28  H   UNL     1       7.846   5.429  18.848  0.00  0.00    +0.000 HD
ENDBRANCH  17  19
ENDBRANCH  16  17
ENDBRANCH  15  16
ENDBRANCH   2  15
TORSDOF 6
ENDMDL
MODEL 6
REMARK VINA RESULT:      -7.4      1.643      2.139
REMARK  Name = 
REMARK  6 active torsions:
REMARK  status: ('A' for Active; 'I' for Inactive)
REMARK    1  A    between atoms: C_2  and  C_3
REMARK    2  A    between atoms: C_3  and  O_4
REMARK    3  A    between atoms: O_4  and  C_5
REMARK    4  A    between atoms: C_5  and  C_7
REMARK    5  A    between atoms: N_16  and  C_17
REMARK    6  A    between atoms: C_22  and  C_23
REMARK                            x       y       z     vdW  Elec       q    Type
REMARK                         _______ _______ _______ _____ _____    ______ ____
ROOT
ATOM      1  O   UNL     1       0.710   5.248  20.470  0.00  0.00    +0.000 OA
ATOM      2  C   UNL     1       1.884   5.610  20.472  0.00  0.00    +0.000 C 
ATOM      3  N   UNL     1       2.335   6.922  20.471  0.00  0.00    +0.000 N 
ATOM      4  H   UNL     1       3.343   7.044  20.367  0.00  0.00    +0.000 HD
ENDROOT
BRANCH   3   5
ATOM      5  C   UNL     1       1.551   8.097  20.578  0.00  0.00    +0.000 A 
ATOM      6  C   UNL     1       0.936   8.453  21.788  0.00  0.00    +0.000 A 
ATOM      7  C   UNL     1       0.175   9.619  21.904  0.00  0.00    +0.000 A 
ATOM      8  C   UNL     1       0.019  10.461  20.813  0.00  0.00    +0.000 A 
ATOM      9  C   UNL     1       0.629  10.133  19.605  0.00  0.00    +0.000 A 
ATOM     10  C   UNL     1       1.397   8.954  19.468  0.00  0.00    +0.000 A 
BRANCH  10  11
ATOM     11  C   UNL     1       1.968   8.671  18.102  0.00  0.00    +0.000 C 
ATOM     12  F   UNL     1       1.954   9.737  17.251  0.00  0.00    +0.000 F 
ATOM     13  F   UNL     1       3.270   8.268  18.159  0.00  0.00    +0.000 F 
ATOM     14  F   UNL     1       1.304   7.674  17.453  0.00  0.00    +0.000 F 
ENDBRANCH  10  11
ENDBRANCH   3   5
BRANCH   2  15
ATOM     15  C   UNL     1       3.013   4.575  20.450  0.00  0.00    +0.000 C 
BRANCH  15  16
ATOM     16  O   UNL     1       3.900   4.767  19.351  0.00  0.00    +0.000 OA
BRANCH  16  17
ATOM     17  C   UNL     1       4.881   3.825  19.223  0.00  0.00    +0.000 C 
ATOM     18  O   UNL     1       4.852   2.747  19.814  0.00  0.00    +0.000 OA
BRANCH  17  19
ATOM     19  C   UNL     1       5.959   4.227  18.309  0.00  0.00    +0.000 A 
ATOM     20  N   UNL     1       7.183   4.596  18.742  0.00  0.00    +0.000 NA
ATOM     21  N   UNL     1       7.854   4.898  17.621  0.00  0.00    +0.000 N 
ATOM     22  C   UNL     1       7.132   4.739  16.471  0.00  0.00    +0.000 A 
ATOM     23  C   UNL     1       7.467   4.945  15.129  0.00  0.00    +0.000 A 
ATOM     24  C   UNL     1       6.474   4.685  14.179  0.00  0.00    +0.000 A 
ATOM     25  C   UNL     1       5.209   4.239  14.560  0.00  0.00    +0.000 A 
ATOM     26  C   UNL     1       4.895   4.040  15.909  0.00  0.00    +0.000 A 
ATOM     27  C   UNL     1       5.880   4.296  16.884  0.00  0.00    +0.000 A 
ATOM     28  H   UNL     1       8.813   5.214  17.706  0.00  0.00    +0.000 HD
ENDBRANCH  17  19
ENDBRANCH  16  17
ENDBRANCH  15  16
ENDBRANCH   2  15
TORSDOF 6
ENDMDL
MODEL 7
REMARK VINA RESULT:      -7.2      2.959      4.438
REMARK  Name = 
REMARK  6 active torsions:
REMARK  status: ('A' for Active; 'I' for Inactive)
REMARK    1  A    between atoms: C_2  and  C_3
REMARK    2  A    between atoms: C_3  and  O_4
REMARK    3  A    between atoms: O_4  and  C_5
REMARK    4  A    between atoms: C_5  and  C_7
REMARK    5  A    between atoms: N_16  and  C_17
REMARK    6  A    between atoms: C_22  and  C_23
REMARK                            x       y       z     vdW  Elec       q    Type
REMARK                         _______ _______ _______ _____ _____    ______ ____
ROOT
ATOM      1  O   UNL     1       2.280   7.011  19.907  0.00  0.00    +0.000 OA
ATOM      2  C   UNL     1       2.163   7.933  19.104  0.00  0.00    +0.000 C 
ATOM      3  N   UNL     1       1.422   9.091  19.289  0.00  0.00    +0.000 N 
ATOM      4  H   UNL     1       1.349   9.705  18.477  0.00  0.00    +0.000 HD
ENDROOT
BRANCH   3   5
ATOM      5  C   UNL     1       0.744   9.495  20.466  0.00  0.00    +0.000 A 
ATOM      6  C   UNL     1       1.116   9.000  21.725  0.00  0.00    +0.000 A 
ATOM      7  C   UNL     1       0.463   9.407  22.891  0.00  0.00    +0.000 A 
ATOM      8  C   UNL     1      -0.573  10.326  22.824  0.00  0.00    +0.000 A 
ATOM      9  C   UNL     1      -0.952  10.839  21.587  0.00  0.00    +0.000 A 
ATOM     10  C   UNL     1      -0.306  10.434  20.396  0.00  0.00    +0.000 A 
BRANCH  10  11
ATOM     11  C   UNL     1      -0.832  11.013  19.107  0.00  0.00    +0.000 C 
ATOM     12  F   UNL     1      -1.240  10.085  18.195  0.00  0.00    +0.000 F 
ATOM     13  F   UNL     1      -1.909  11.826  19.307  0.00  0.00    +0.000 F 
ATOM     14  F   UNL     1       0.092  11.780  18.463  0.00  0.00    +0.000 F 
ENDBRANCH  10  11
ENDBRANCH   3   5
BRANCH   2  15
ATOM     15  C   UNL     1       2.854   7.860  17.738  0.00  0.00    +0.000 C 
BRANCH  15  16
ATOM     16  O   UNL     1       4.221   7.475  17.844  0.00  0.00    +0.000 OA
BRANCH  16  17
ATOM     17  C   UNL     1       4.591   6.419  17.061  0.00  0.00    +0.000 C 
ATOM     18  O   UNL     1       4.853   6.535  15.865  0.00  0.00    +0.000 OA
BRANCH  17  19
ATOM     19  C   UNL     1       4.649   5.145  17.790  0.00  0.00    +0.000 A 
ATOM     20  N   UNL     1       5.794   4.653  18.309  0.00  0.00    +0.000 NA
ATOM     21  N   UNL     1       5.431   3.488  18.868  0.00  0.00    +0.000 N 
ATOM     22  C   UNL     1       4.102   3.195  18.746  0.00  0.00    +0.000 A 
ATOM     23  C   UNL     1       3.349   2.100  19.184  0.00  0.00    +0.000 A 
ATOM     24  C   UNL     1       1.983   2.108  18.887  0.00  0.00    +0.000 A 
ATOM     25  C   UNL     1       1.402   3.165  18.187  0.00  0.00    +0.000 A 
ATOM     26  C   UNL     1       2.174   4.250  17.757  0.00  0.00    +0.000 A 
ATOM     27  C   UNL     1       3.554   4.263  18.045  0.00  0.00    +0.000 A 
ATOM     28  H   UNL     1       6.146   2.929  19.320  0.00  0.00    +0.000 HD
ENDBRANCH  17  19
ENDBRANCH  16  17
ENDBRANCH  15  16
ENDBRANCH   2  15
TORSDOF 6
ENDMDL
MODEL 8
REMARK VINA RESULT:      -7.2      2.231      2.891
REMARK  Name = 
REMARK  6 active torsions:
REMARK  status: ('A' for Active; 'I' for Inactive)
REMARK    1  A    between atoms: C_2  and  C_3
REMARK    2  A    between atoms: C_3  and  O_4
REMARK    3  A    between atoms: O_4  and  C_5
REMARK    4  A    between atoms: C_5  and  C_7
REMARK    5  A    between atoms: N_16  and  C_17
REMARK    6  A    between atoms: C_22  and  C_23
REMARK                            x       y       z     vdW  Elec       q    Type
REMARK                         _______ _______ _______ _____ _____    ______ ____
ROOT
ATOM      1  O   UNL     1       1.740   5.134  18.264  0.00  0.00    +0.000 OA
ATOM      2  C   UNL     1       2.174   5.356  19.391  0.00  0.00    +0.000 C 
ATOM      3  N   UNL     1       2.393   6.606  19.952  0.00  0.00    +0.000 N 
ATOM      4  H   UNL     1       2.857   6.609  20.861  0.00  0.00    +0.000 HD
ENDROOT
BRANCH   3   5
ATOM      5  C   UNL     1       2.065   7.866  19.392  0.00  0.00    +0.000 A 
ATOM      6  C   UNL     1       2.569   8.259  18.143  0.00  0.00    +0.000 A 
ATOM      7  C   UNL     1       2.236   9.493  17.578  0.00  0.00    +0.000 A 
ATOM      8  C   UNL     1       1.384  10.358  18.247  0.00  0.00    +0.000 A 
ATOM      9  C   UNL     1       0.863   9.984  19.483  0.00  0.00    +0.000 A 
ATOM     10  C   UNL     1       1.194   8.742  20.072  0.00  0.00    +0.000 A 
BRANCH  10  11
ATOM     11  C   UNL     1       0.615   8.462  21.435  0.00  0.00    +0.000 C 
ATOM     12  F   UNL     1       1.487   8.643  22.468  0.00  0.00    +0.000 F 
ATOM     13  F   UNL     1      -0.454   9.261  21.717  0.00  0.00    +0.000 F 
ATOM     14  F   UNL     1       0.160   7.183  21.558  0.00  0.00    +0.000 F 
ENDBRANCH  10  11
ENDBRANCH   3   5
BRANCH   2  15
ATOM     15  C   UNL     1       2.553   4.195  20.317  0.00  0.00    +0.000 C 
BRANCH  15  16
ATOM     16  O   UNL     1       3.146   3.111  19.609  0.00  0.00    +0.000 OA
BRANCH  16  17
ATOM     17  C   UNL     1       4.489   2.955  19.803  0.00  0.00    +0.000 C 
ATOM     18  O   UNL     1       4.966   2.027  20.454  0.00  0.00    +0.000 OA
BRANCH  17  19
ATOM     19  C   UNL     1       5.296   3.995  19.151  0.00  0.00    +0.000 A 
ATOM     20  N   UNL     1       6.131   4.806  19.835  0.00  0.00    +0.000 NA
ATOM     21  N   UNL     1       6.656   5.610  18.897  0.00  0.00    +0.000 N 
ATOM     22  C   UNL     1       6.211   5.361  17.629  0.00  0.00    +0.000 A 
ATOM     23  C   UNL     1       6.512   5.965  16.404  0.00  0.00    +0.000 A 
ATOM     24  C   UNL     1       5.868   5.461  15.270  0.00  0.00    +0.000 A 
ATOM     25  C   UNL     1       4.967   4.401  15.363  0.00  0.00    +0.000 A 
ATOM     26  C   UNL     1       4.679   3.811  16.600  0.00  0.00    +0.000 A 
ATOM     27  C   UNL     1       5.317   4.303  17.756  0.00  0.00    +0.000 A 
ATOM     28  H   UNL     1       7.317   6.320  19.189  0.00  0.00    +0.000 HD
ENDBRANCH  17  19
ENDBRANCH  16  17
ENDBRANCH  15  16
ENDBRANCH   2  15
TORSDOF 6
ENDMDL
MODEL 9
REMARK VINA RESULT:      -7.1      3.381      5.191
REMARK  Name = 
REMARK  6 active torsions:
REMARK  status: ('A' for Active; 'I' for Inactive)
REMARK    1  A    between atoms: C_2  and  C_3
REMARK    2  A    between atoms: C_3  and  O_4
REMARK    3  A    between atoms: O_4  and  C_5
REMARK    4  A    between atoms: C_5  and  C_7
REMARK    5  A    between atoms: N_16  and  C_17
REMARK    6  A    between atoms: C_22  and  C_23
REMARK                            x       y       z     vdW  Elec       q    Type
REMARK                         _______ _______ _______ _____ _____    ______ ____
ROOT
ATOM      1  O   UNL     1       1.895  11.213  18.452  0.00  0.00    +0.000 OA
ATOM      2  C   UNL     1       1.269  10.169  18.610  0.00  0.00    +0.000 C 
ATOM      3  N   UNL     1       0.268   9.948  19.546  0.00  0.00    +0.000 N 
ATOM      4  H   UNL     1      -0.075   8.989  19.611  0.00  0.00    +0.000 HD
ENDROOT
BRANCH   3   5
ATOM      5  C   UNL     1      -0.307  10.899  20.426  0.00  0.00    +0.000 A 
ATOM      6  C   UNL     1      -0.840  12.104  19.945  0.00  0.00    +0.000 A 
ATOM      7  C   UNL     1      -1.423  13.038  20.806  0.00  0.00    +0.000 A 
ATOM      8  C   UNL     1      -1.492  12.783  22.167  0.00  0.00    +0.000 A 
ATOM      9  C   UNL     1      -0.978  11.589  22.665  0.00  0.00    +0.000 A 
ATOM     10  C   UNL     1      -0.380  10.635  21.809  0.00  0.00    +0.000 A 
BRANCH  10  11
ATOM     11  C   UNL     1       0.190   9.401  22.462  0.00  0.00    +0.000 C 
ATOM     12  F   UNL     1      -0.020   9.325  23.807  0.00  0.00    +0.000 F 
ATOM     13  F   UNL     1      -0.335   8.253  21.945  0.00  0.00    +0.000 F 
ATOM     14  F   UNL     1       1.538   9.296  22.294  0.00  0.00    +0.000 F 
ENDBRANCH  10  11
ENDBRANCH   3   5
BRANCH   2  15
ATOM     15  C   UNL     1       1.580   8.942  17.746  0.00  0.00    +0.000 C 
BRANCH  15  16
ATOM     16  O   UNL     1       2.756   8.263  18.177  0.00  0.00    +0.000 OA
BRANCH  16  17
ATOM     17  C   UNL     1       2.543   7.205  19.014  0.00  0.00    +0.000 C 
ATOM     18  O   UNL     1       2.138   7.338  20.168  0.00  0.00    +0.000 OA
BRANCH  17  19
ATOM     19  C   UNL     1       2.838   5.905  18.396  0.00  0.00    +0.000 A 
ATOM     20  N   UNL     1       3.763   5.752  17.424  0.00  0.00    +0.000 NA
ATOM     21  N   UNL     1       3.716   4.445  17.124  0.00  0.00    +0.000 N 
ATOM     22  C   UNL     1       2.811   3.731  17.858  0.00  0.00    +0.000 A 
ATOM     23  C   UNL     1       2.471   2.374  17.845  0.00  0.00    +0.000 A 
ATOM     24  C   UNL     1       1.480   1.959  18.741  0.00  0.00    +0.000 A 
ATOM     25  C   UNL     1       0.865   2.862  19.607  0.00  0.00    +0.000 A 
ATOM     26  C   UNL     1       1.220   4.216  19.602  0.00  0.00    +0.000 A 
ATOM     27  C   UNL     1       2.216   4.657  18.707  0.00  0.00    +0.000 A 
ATOM     28  H   UNL     1       4.332   4.097  16.399  0.00  0.00    +0.000 HD
ENDBRANCH  17  19
ENDBRANCH  16  17
ENDBRANCH  15  16
ENDBRANCH   2  15
TORSDOF 6
ENDMDL
