MODEL 1
REMARK VINA RESULT:      -7.6      0.000      0.000
REMARK  Name = 
REMARK  5 active torsions:
REMARK  status: ('A' for Active; 'I' for Inactive)
REMARK    1  A    between atoms: C_2  and  C_3
REMARK    2  A    between atoms: C_5  and  C_6
REMARK    3  A    between atoms: C_11  and  C_12
REMARK    4  A    between atoms: C_20  and  C_21
REMARK    5  A    between atoms: C_21  and  O_22
REMARK                            x       y       z     vdW  Elec       q    Type
REMARK                         _______ _______ _______ _____ _____    ______ ____
ROOT
ATOM      1  C   UNL     1       2.319   8.098  18.396  0.00  0.00    +0.000 A 
ATOM      2  C   UNL     1       2.014   8.703  19.646  0.00  0.00    +0.000 A 
ATOM      3  C   UNL     1       0.911   9.488  19.384  0.00  0.00    +0.000 A 
ATOM      4  O   UNL     1       0.525   9.276  18.094  0.00  0.00    +0.000 OA
ATOM      5  N   UNL     1       1.336   8.329  17.515  0.00  0.00    +0.000 NA
ENDROOT
BRANCH   1   7
ATOM      6  O   UNL     1       4.187   7.679  17.067  0.00  0.00    +0.000 OA
ATOM      7  C   UNL     1       3.537   7.361  18.064  0.00  0.00    +0.000 C 
ATOM      8  N   UNL     1       3.836   6.182  18.806  0.00  0.00    +0.000 N 
ATOM      9  C   UNL     1       4.739   5.230  18.111  0.00  0.00    +0.000 C 
ATOM     10  C   UNL     1       3.758   4.296  17.379  0.00  0.00    +0.000 C 
ATOM     11  C   UNL     1       2.700   4.201  18.447  0.00  0.00    +0.000 A 
ATOM     12  C   UNL     1       1.725   3.243  18.660  0.00  0.00    +0.000 A 
ATOM     13  C   UNL     1       0.829   3.437  19.716  0.00  0.00    +0.000 A 
ATOM     14  C   UNL     1       0.924   4.565  20.545  0.00  0.00    +0.000 A 
ATOM     15  C   UNL     1       1.913   5.526  20.328  0.00  0.00    +0.000 A 
ATOM     16  C   UNL     1       2.771   5.347  19.257  0.00  0.00    +0.000 A 
BRANCH  10  17
ATOM     17  C   UNL     1       4.362   3.009  16.864  0.00  0.00    +0.000 C 
BRANCH  17  18
ATOM     18  O   UNL     1       5.639   3.260  16.289  0.00  0.00    +0.000 OA
ATOM     19  H   UNL     1       6.120   2.413  16.240  0.00  0.00    +0.000 HD
ENDBRANCH  17  18
ENDBRANCH  10  17
ENDBRANCH   1   7
BRANCH   3  20
ATOM     20  C   UNL     1       0.210  10.544  20.101  0.00  0.00    +0.000 A 
ATOM     21  C   UNL     1       0.027  11.770  19.424  0.00  0.00    +0.000 A 
ATOM     22  C   UNL     1      -0.715  12.813  19.977  0.00  0.00    +0.000 A 
ATOM     23  C   UNL     1      -1.308  12.647  21.220  0.00  0.00    +0.000 A 
ATOM     24  C   UNL     1      -1.119  11.455  21.917  0.00  0.00    +0.000 A 
ATOM     25  C   UNL     1      -0.343  10.397  21.390  0.00  0.00    +0.000 A 
BRANCH  25  26
ATOM     26  C   UNL     1      -0.165   9.194  22.293  0.00  0.00    +0.000 C 
ATOM     27  F   UNL     1       1.107   8.852  22.615  0.00  0.00    +0.000 F 
ATOM     28  F   UNL     1      -0.779   9.389  23.500  0.00  0.00    +0.000 F 
ATOM     29  F   UNL     1      -0.743   8.075  21.773  0.00  0.00    +0.000 F 
ENDBRANCH  25  26
ENDBRANCH   3  20
TORSDOF 5
ENDMDL
MODEL 2
REMARK VINA RESULT:      -7.4      4.504      7.065
REMARK  Name = 
REMARK  5 active torsions:
REMARK  status: ('A' for Active; 'I' for Inactive)
REMARK    1  A    between atoms: C_2  and  C_3
REMARK    2  A    between atoms: C_5  and  C_6
REMARK    3  A    between atoms: C_11  and  C_12
REMARK    4  A    between atoms: C_20  and  C_21
REMARK    5  A    between atoms: C_21  and  O_22
REMARK                            x       y       z     vdW  Elec       q    Type
REMARK                         _______ _______ _______ _____ _____    ______ ____
ROOT
ATOM      1  C   UNL     1      -1.977  13.429  20.066  0.00  0.00    +0.000 A 
ATOM      2  C   UNL     1      -3.154  12.634  20.130  0.00  0.00    +0.000 A 
ATOM      3  C   UNL     1      -3.908  13.222  21.124  0.00  0.00    +0.000 A 
ATOM      4  O   UNL     1      -3.269  14.352  21.542  0.00  0.00    +0.000 OA
ATOM      5  N   UNL     1      -2.122  14.537  20.806  0.00  0.00    +0.000 NA
ENDROOT
BRANCH   1   7
ATOM      6  O   UNL     1      -0.688  13.283  18.129  0.00  0.00    +0.000 OA
ATOM      7  C   UNL     1      -0.747  13.102  19.346  0.00  0.00    +0.000 C 
ATOM      8  N   UNL     1       0.285  12.417  20.051  0.00  0.00    +0.000 N 
ATOM      9  C   UNL     1       1.231  11.671  19.183  0.00  0.00    +0.000 C 
ATOM     10  C   UNL     1       0.603  10.268  19.113  0.00  0.00    +0.000 C 
ATOM     11  C   UNL     1       0.130  10.163  20.539  0.00  0.00    +0.000 A 
ATOM     12  C   UNL     1      -0.167   9.050  21.306  0.00  0.00    +0.000 A 
ATOM     13  C   UNL     1      -0.642   9.251  22.606  0.00  0.00    +0.000 A 
ATOM     14  C   UNL     1      -0.801  10.546  23.122  0.00  0.00    +0.000 A 
ATOM     15  C   UNL     1      -0.495  11.665  22.346  0.00  0.00    +0.000 A 
ATOM     16  C   UNL     1      -0.064  11.459  21.048  0.00  0.00    +0.000 A 
BRANCH  10  17
ATOM     17  C   UNL     1       1.516   9.182  18.588  0.00  0.00    +0.000 C 
BRANCH  17  18
ATOM     18  O   UNL     1       2.023   9.542  17.308  0.00  0.00    +0.000 OA
ATOM     19  H   UNL     1       2.916   9.161  17.219  0.00  0.00    +0.000 HD
ENDBRANCH  17  18
ENDBRANCH  10  17
ENDBRANCH   1   7
BRANCH   3  20
ATOM     20  C   UNL     1      -5.090  12.834  21.880  0.00  0.00    +0.000 A 
ATOM     21  C   UNL     1      -5.010  12.920  23.288  0.00  0.00    +0.000 A 
ATOM     22  C   UNL     1      -6.112  12.668  24.105  0.00  0.00    +0.000 A 
ATOM     23  C   UNL     1      -7.330  12.337  23.528  0.00  0.00    +0.000 A 
ATOM     24  C   UNL     1      -7.424  12.222  22.142  0.00  0.00    +0.000 A 
ATOM     25  C   UNL     1      -6.312  12.440  21.297  0.00  0.00    +0.000 A 
BRANCH  25  26
ATOM     26  C   UNL     1      -6.548  12.205  19.820  0.00  0.00    +0.000 C 
ATOM     27  F   UNL     1      -7.821  11.936  19.437  0.00  0.00    +0.000 F 
ATOM     28  F   UNL     1      -6.199  13.303  19.084  0.00  0.00    +0.000 F 
ATOM     29  F   UNL     1      -5.779  11.189  19.336  0.00  0.00    +0.000 F 
ENDBRANCH  25  26
ENDBRANCH   3  20
TORSDOF 5
ENDMDL
MODEL 3
REMARK VINA RESULT:      -7.3      1.818      2.297
REMARK  Name = 
REMARK  5 active torsions:
REMARK  status: ('A' for Active; 'I' for Inactive)
REMARK    1  A    between atoms: C_2  and  C_3
REMARK    2  A    between atoms: C_5  and  C_6
REMARK    3  A    between atoms: C_11  and  C_12
REMARK    4  A    between atoms: C_20  and  C_21
REMARK    5  A    between atoms: C_21  and  O_22
REMARK                            x       y       z     vdW  Elec       q    Type
REMARK                         _______ _______ _______ _____ _____    ______ ____
ROOT
ATOM      1  C   UNL     1       2.328   7.938  18.763  0.00  0.00    +0.000 A 
ATOM      2  C   UNL     1       1.997   8.278  20.104  0.00  0.00    +0.000 A 
ATOM      3  C   UNL     1       0.935   9.150  19.981  0.00  0.00    +0.000 A 
ATOM      4  O   UNL     1       0.592   9.233  18.665  0.00  0.00    +0.000 OA
ATOM      5  N   UNL     1       1.390   8.394  17.922  0.00  0.00    +0.000 NA
ENDROOT
BRANCH   1   7
ATOM      6  O   UNL     1       4.159   7.658  17.348  0.00  0.00    +0.000 OA
ATOM      7  C   UNL     1       3.530   7.235  18.319  0.00  0.00    +0.000 C 
ATOM      8  N   UNL     1       3.835   5.977  18.916  0.00  0.00    +0.000 N 
ATOM      9  C   UNL     1       4.711   5.103  18.095  0.00  0.00    +0.000 C 
ATOM     10  C   UNL     1       3.703   4.265  17.288  0.00  0.00    +0.000 C 
ATOM     11  C   UNL     1       2.671   4.058  18.366  0.00  0.00    +0.000 A 
ATOM     12  C   UNL     1       1.692   3.089  18.495  0.00  0.00    +0.000 A 
ATOM     13  C   UNL     1       0.825   3.169  19.588  0.00  0.00    +0.000 A 
ATOM     14  C   UNL     1       0.952   4.196  20.536  0.00  0.00    +0.000 A 
ATOM     15  C   UNL     1       1.945   5.168  20.403  0.00  0.00    +0.000 A 
ATOM     16  C   UNL     1       2.773   5.105  19.297  0.00  0.00    +0.000 A 
BRANCH  10  17
ATOM     17  C   UNL     1       4.281   3.040  16.616  0.00  0.00    +0.000 C 
BRANCH  17  18
ATOM     18  O   UNL     1       5.655   3.248  16.310  0.00  0.00    +0.000 OA
ATOM     19  H   UNL     1       6.081   2.375  16.228  0.00  0.00    +0.000 HD
ENDBRANCH  17  18
ENDBRANCH  10  17
ENDBRANCH   1   7
BRANCH   3  20
ATOM     20  C   UNL     1       0.246  10.060  20.885  0.00  0.00    +0.000 A 
ATOM     21  C   UNL     1      -0.366   9.493  22.026  0.00  0.00    +0.000 A 
ATOM     22  C   UNL     1      -0.966  10.281  23.007  0.00  0.00    +0.000 A 
ATOM     23  C   UNL     1      -0.955  11.662  22.877  0.00  0.00    +0.000 A 
ATOM     24  C   UNL     1      -0.380  12.240  21.747  0.00  0.00    +0.000 A 
ATOM     25  C   UNL     1       0.205  11.460  20.724  0.00  0.00    +0.000 A 
BRANCH  25  26
ATOM     26  C   UNL     1       0.723  12.224  19.523  0.00  0.00    +0.000 C 
ATOM     27  F   UNL     1       1.974  11.921  19.097  0.00  0.00    +0.000 F 
ATOM     28  F   UNL     1      -0.069  12.015  18.428  0.00  0.00    +0.000 F 
ATOM     29  F   UNL     1       0.703  13.572  19.728  0.00  0.00    +0.000 F 
ENDBRANCH  25  26
ENDBRANCH   3  20
TORSDOF 5
ENDMDL
MODEL 4
REMARK VINA RESULT:      -7.2      2.408      7.211
REMARK  Name = 
REMARK  5 active torsions:
REMARK  status: ('A' for Active; 'I' for Inactive)
REMARK    1  A    between atoms: C_2  and  C_3
REMARK    2  A    between atoms: C_5  and  C_6
REMARK    3  A    between atoms: C_11  and  C_12
REMARK    4  A    between atoms: C_20  and  C_21
REMARK    5  A    between atoms: C_21  and  O_22
REMARK                            x       y       z     vdW  Elec       q    Type
REMARK                         _______ _______ _______ _____ _____    ______ ____
ROOT
ATOM      1  C   UNL     1       1.990   7.972  18.758  0.00  0.00    +0.000 A 
ATOM      2  C   UNL     1       1.573   6.733  18.198  0.00  0.00    +0.000 A 
ATOM      3  C   UNL     1       2.387   5.796  18.800  0.00  0.00    +0.000 A 
ATOM      4  O   UNL     1       3.157   6.426  19.732  0.00  0.00    +0.000 OA
ATOM      5  N   UNL     1       2.830   7.761  19.781  0.00  0.00    +0.000 NA
ENDROOT
BRANCH   1   7
ATOM      6  O   UNL     1       2.381   9.924  17.546  0.00  0.00    +0.000 OA
ATOM      7  C   UNL     1       1.618   9.305  18.289  0.00  0.00    +0.000 C 
ATOM      8  N   UNL     1       0.461   9.919  18.851  0.00  0.00    +0.000 N 
ATOM      9  C   UNL     1       0.439  11.400  18.746  0.00  0.00    +0.000 C 
ATOM     10  C   UNL     1       1.090  11.849  20.066  0.00  0.00    +0.000 C 
ATOM     11  C   UNL     1       0.478  10.820  20.979  0.00  0.00    +0.000 A 
ATOM     12  C   UNL     1       0.291  10.836  22.350  0.00  0.00    +0.000 A 
ATOM     13  C   UNL     1      -0.265   9.704  22.954  0.00  0.00    +0.000 A 
ATOM     14  C   UNL     1      -0.635   8.588  22.188  0.00  0.00    +0.000 A 
ATOM     15  C   UNL     1      -0.449   8.579  20.805  0.00  0.00    +0.000 A 
ATOM     16  C   UNL     1       0.139   9.687  20.221  0.00  0.00    +0.000 A 
BRANCH  10  17
ATOM     17  C   UNL     1       0.896  13.309  20.413  0.00  0.00    +0.000 C 
BRANCH  17  18
ATOM     18  O   UNL     1       1.856  13.716  21.381  0.00  0.00    +0.000 OA
ATOM     19  H   UNL     1       1.377  14.114  22.131  0.00  0.00    +0.000 HD
ENDBRANCH  17  18
ENDBRANCH  10  17
ENDBRANCH   1   7
BRANCH   3  20
ATOM     20  C   UNL     1       2.687   4.392  18.558  0.00  0.00    +0.000 A 
ATOM     21  C   UNL     1       3.431   4.085  17.397  0.00  0.00    +0.000 A 
ATOM     22  C   UNL     1       3.859   2.787  17.119  0.00  0.00    +0.000 A 
ATOM     23  C   UNL     1       3.565   1.764  18.009  0.00  0.00    +0.000 A 
ATOM     24  C   UNL     1       2.810   2.041  19.147  0.00  0.00    +0.000 A 
ATOM     25  C   UNL     1       2.338   3.342  19.432  0.00  0.00    +0.000 A 
BRANCH  25  26
ATOM     26  C   UNL     1       1.468   3.475  20.665  0.00  0.00    +0.000 C 
ATOM     27  F   UNL     1       1.104   2.326  21.285  0.00  0.00    +0.000 F 
ATOM     28  F   UNL     1       2.100   4.200  21.638  0.00  0.00    +0.000 F 
ATOM     29  F   UNL     1       0.314   4.153  20.405  0.00  0.00    +0.000 F 
ENDBRANCH  25  26
ENDBRANCH   3  20
TORSDOF 5
ENDMDL
MODEL 5
REMARK VINA RESULT:      -7.1      4.225      6.796
REMARK  Name = 
REMARK  5 active torsions:
REMARK  status: ('A' for Active; 'I' for Inactive)
REMARK    1  A    between atoms: C_2  and  C_3
REMARK    2  A    between atoms: C_5  and  C_6
REMARK    3  A    between atoms: C_11  and  C_12
REMARK    4  A    between atoms: C_20  and  C_21
REMARK    5  A    between atoms: C_21  and  O_22
REMARK                            x       y       z     vdW  Elec       q    Type
REMARK                         _______ _______ _______ _____ _____    ______ ____
ROOT
ATOM      1  C   UNL     1      -1.999  13.527  20.191  0.00  0.00    +0.000 A 
ATOM      2  C   UNL     1      -3.267  12.885  20.153  0.00  0.00    +0.000 A 
ATOM      3  C   UNL     1      -3.935  13.385  21.251  0.00  0.00    +0.000 A 
ATOM      4  O   UNL     1      -3.156  14.340  21.834  0.00  0.00    +0.000 OA
ATOM      5  N   UNL     1      -1.999  14.504  21.109  0.00  0.00    +0.000 NA
ENDROOT
BRANCH   1   7
ATOM      6  O   UNL     1      -0.832  13.375  18.178  0.00  0.00    +0.000 OA
ATOM      7  C   UNL     1      -0.825  13.176  19.394  0.00  0.00    +0.000 C 
ATOM      8  N   UNL     1       0.226  12.449  20.026  0.00  0.00    +0.000 N 
ATOM      9  C   UNL     1       1.097  11.691  19.092  0.00  0.00    +0.000 C 
ATOM     10  C   UNL     1       0.424  10.308  19.039  0.00  0.00    +0.000 C 
ATOM     11  C   UNL     1       0.033  10.193  20.489  0.00  0.00    +0.000 A 
ATOM     12  C   UNL     1      -0.251   9.077  21.255  0.00  0.00    +0.000 A 
ATOM     13  C   UNL     1      -0.642   9.270  22.584  0.00  0.00    +0.000 A 
ATOM     14  C   UNL     1      -0.731  10.560  23.128  0.00  0.00    +0.000 A 
ATOM     15  C   UNL     1      -0.438  11.683  22.352  0.00  0.00    +0.000 A 
ATOM     16  C   UNL     1      -0.091  11.486  21.028  0.00  0.00    +0.000 A 
BRANCH  10  17
ATOM     17  C   UNL     1       1.270   9.205  18.444  0.00  0.00    +0.000 C 
BRANCH  17  18
ATOM     18  O   UNL     1       2.010   9.698  17.332  0.00  0.00    +0.000 OA
ATOM     19  H   UNL     1       1.709   9.223  16.536  0.00  0.00    +0.000 HD
ENDBRANCH  17  18
ENDBRANCH  10  17
ENDBRANCH   1   7
BRANCH   3  20
ATOM     20  C   UNL     1      -5.153  13.024  21.963  0.00  0.00    +0.000 A 
ATOM     21  C   UNL     1      -6.337  12.920  21.199  0.00  0.00    +0.000 A 
ATOM     22  C   UNL     1      -7.538  12.485  21.760  0.00  0.00    +0.000 A 
ATOM     23  C   UNL     1      -7.578  12.128  23.100  0.00  0.00    +0.000 A 
ATOM     24  C   UNL     1      -6.427  12.248  23.876  0.00  0.00    +0.000 A 
ATOM     25  C   UNL     1      -5.208  12.717  23.338  0.00  0.00    +0.000 A 
BRANCH  25  26
ATOM     26  C   UNL     1      -4.064  12.865  24.320  0.00  0.00    +0.000 C 
ATOM     27  F   UNL     1      -3.613  14.123  24.551  0.00  0.00    +0.000 F 
ATOM     28  F   UNL     1      -4.414  12.398  25.557  0.00  0.00    +0.000 F 
ATOM     29  F   UNL     1      -2.977  12.129  23.952  0.00  0.00    +0.000 F 
ENDBRANCH  25  26
ENDBRANCH   3  20
TORSDOF 5
ENDMDL
MODEL 6
REMARK VINA RESULT:      -7.1      3.327      7.741
REMARK  Name = 
REMARK  5 active torsions:
REMARK  status: ('A' for Active; 'I' for Inactive)
REMARK    1  A    between atoms: C_2  and  C_3
REMARK    2  A    between atoms: C_5  and  C_6
REMARK    3  A    between atoms: C_11  and  C_12
REMARK    4  A    between atoms: C_20  and  C_21
REMARK    5  A    between atoms: C_21  and  O_22
REMARK                            x       y       z     vdW  Elec       q    Type
REMARK                         _______ _______ _______ _____ _____    ______ ____
ROOT
ATOM      1  C   UNL     1       0.774   8.635  21.110  0.00  0.00    +0.000 A 
ATOM      2  C   UNL     1       1.864   7.932  20.531  0.00  0.00    +0.000 A 
ATOM      3  C   UNL     1       1.474   6.609  20.566  0.00  0.00    +0.000 A 
ATOM      4  O   UNL     1       0.195   6.547  21.034  0.00  0.00    +0.000 OA
ATOM      5  N   UNL     1      -0.277   7.818  21.268  0.00  0.00    +0.000 NA
ENDROOT
BRANCH   1   7
ATOM      6  O   UNL     1       0.774  10.310  22.731  0.00  0.00    +0.000 OA
ATOM      7  C   UNL     1       0.770  10.035  21.531  0.00  0.00    +0.000 C 
ATOM      8  N   UNL     1       0.581  11.038  20.536  0.00  0.00    +0.000 N 
ATOM      9  C   UNL     1       0.071  12.332  21.056  0.00  0.00    +0.000 C 
ATOM     10  C   UNL     1      -1.454  12.180  20.926  0.00  0.00    +0.000 C 
ATOM     11  C   UNL     1      -1.495  11.452  19.608  0.00  0.00    +0.000 A 
ATOM     12  C   UNL     1      -2.515  11.333  18.680  0.00  0.00    +0.000 A 
ATOM     13  C   UNL     1      -2.290  10.540  17.550  0.00  0.00    +0.000 A 
ATOM     14  C   UNL     1      -1.060   9.894  17.356  0.00  0.00    +0.000 A 
ATOM     15  C   UNL     1      -0.033  10.021  18.293  0.00  0.00    +0.000 A 
ATOM     16  C   UNL     1      -0.277  10.774  19.427  0.00  0.00    +0.000 A 
BRANCH  10  17
ATOM     17  C   UNL     1      -2.240  13.466  21.049  0.00  0.00    +0.000 C 
BRANCH  17  18
ATOM     18  O   UNL     1      -1.830  14.390  20.048  0.00  0.00    +0.000 OA
ATOM     19  H   UNL     1      -2.133  15.278  20.316  0.00  0.00    +0.000 HD
ENDBRANCH  17  18
ENDBRANCH  10  17
ENDBRANCH   1   7
BRANCH   3  20
ATOM     20  C   UNL     1       2.149   5.335  20.367  0.00  0.00    +0.000 A 
ATOM     21  C   UNL     1       2.065   4.392  21.416  0.00  0.00    +0.000 A 
ATOM     22  C   UNL     1       2.589   3.105  21.293  0.00  0.00    +0.000 A 
ATOM     23  C   UNL     1       3.199   2.725  20.107  0.00  0.00    +0.000 A 
ATOM     24  C   UNL     1       3.315   3.648  19.069  0.00  0.00    +0.000 A 
ATOM     25  C   UNL     1       2.821   4.967  19.183  0.00  0.00    +0.000 A 
BRANCH  25  26
ATOM     26  C   UNL     1       3.086   5.878  18.002  0.00  0.00    +0.000 C 
ATOM     27  F   UNL     1       2.029   6.572  17.513  0.00  0.00    +0.000 F 
ATOM     28  F   UNL     1       4.006   6.839  18.319  0.00  0.00    +0.000 F 
ATOM     29  F   UNL     1       3.623   5.202  16.947  0.00  0.00    +0.000 F 
ENDBRANCH  25  26
ENDBRANCH   3  20
TORSDOF 5
ENDMDL
MODEL 7
REMARK VINA RESULT:      -7.0      2.725      7.434
REMARK  Name = 
REMARK  5 active torsions:
REMARK  status: ('A' for Active; 'I' for Inactive)
REMARK    1  A    between atoms: C_2  and  C_3
REMARK    2  A    between atoms: C_5  and  C_6
REMARK    3  A    between atoms: C_11  and  C_12
REMARK    4  A    between atoms: C_20  and  C_21
REMARK    5  A    between atoms: C_21  and  O_22
REMARK                            x       y       z     vdW  Elec       q    Type
REMARK                         _______ _______ _______ _____ _____    ______ ____
ROOT
ATOM      1  C   UNL     1       1.917   9.002  18.569  0.00  0.00    +0.000 A 
ATOM      2  C   UNL     1       2.216   8.120  17.495  0.00  0.00    +0.000 A 
ATOM      3  C   UNL     1       2.843   7.050  18.098  0.00  0.00    +0.000 A 
ATOM      4  O   UNL     1       2.818   7.238  19.448  0.00  0.00    +0.000 OA
ATOM      5  N   UNL     1       2.145   8.400  19.744  0.00  0.00    +0.000 NA
ENDROOT
BRANCH   1   7
ATOM      6  O   UNL     1       2.205  11.225  17.929  0.00  0.00    +0.000 OA
ATOM      7  C   UNL     1       1.468  10.388  18.453  0.00  0.00    +0.000 C 
ATOM      8  N   UNL     1       0.261  10.764  19.111  0.00  0.00    +0.000 N 
ATOM      9  C   UNL     1       0.144  12.216  19.398  0.00  0.00    +0.000 C 
ATOM     10  C   UNL     1       0.734  12.336  20.814  0.00  0.00    +0.000 C 
ATOM     11  C   UNL     1       0.171  11.068  21.400  0.00  0.00    +0.000 A 
ATOM     12  C   UNL     1      -0.047  10.709  22.719  0.00  0.00    +0.000 A 
ATOM     13  C   UNL     1      -0.541   9.428  22.981  0.00  0.00    +0.000 A 
ATOM     14  C   UNL     1      -0.820   8.535  21.935  0.00  0.00    +0.000 A 
ATOM     15  C   UNL     1      -0.602   8.904  20.607  0.00  0.00    +0.000 A 
ATOM     16  C   UNL     1      -0.076  10.159  20.358  0.00  0.00    +0.000 A 
BRANCH  10  17
ATOM     17  C   UNL     1       0.436  13.638  21.525  0.00  0.00    +0.000 C 
BRANCH  17  18
ATOM     18  O   UNL     1       1.631  14.184  22.071  0.00  0.00    +0.000 OA
ATOM     19  H   UNL     1       1.727  15.095  21.736  0.00  0.00    +0.000 HD
ENDBRANCH  17  18
ENDBRANCH  10  17
ENDBRANCH   1   7
BRANCH   3  20
ATOM     20  C   UNL     1       3.613   5.910  17.621  0.00  0.00    +0.000 A 
ATOM     21  C   UNL     1       4.927   6.166  17.169  0.00  0.00    +0.000 A 
ATOM     22  C   UNL     1       5.786   5.136  16.783  0.00  0.00    +0.000 A 
ATOM     23  C   UNL     1       5.354   3.820  16.857  0.00  0.00    +0.000 A 
ATOM     24  C   UNL     1       4.053   3.548  17.276  0.00  0.00    +0.000 A 
ATOM     25  C   UNL     1       3.154   4.577  17.640  0.00  0.00    +0.000 A 
BRANCH  25  26
ATOM     26  C   UNL     1       1.752   4.133  18.002  0.00  0.00    +0.000 C 
ATOM     27  F   UNL     1       1.309   4.453  19.243  0.00  0.00    +0.000 F 
ATOM     28  F   UNL     1       0.827   4.685  17.159  0.00  0.00    +0.000 F 
ATOM     29  F   UNL     1       1.594   2.785  17.874  0.00  0.00    +0.000 F 
ENDBRANCH  25  26
ENDBRANCH   3  20
TORSDOF 5
ENDMDL
MODEL 8
REMARK VINA RESULT:      -7.0      2.683      7.848
REMARK  Name = 
REMARK  5 active torsions:
REMARK  status: ('A' for Active; 'I' for Inactive)
REMARK    1  A    between atoms: C_2  and  C_3
REMARK    2  A    between atoms: C_5  and  C_6
REMARK    3  A    between atoms: C_11  and  C_12
REMARK    4  A    between atoms: C_20  and  C_21
REMARK    5  A    between atoms: C_21  and  O_22
REMARK                            x       y       z     vdW  Elec       q    Type
REMARK                         _______ _______ _______ _____ _____    ______ ____
ROOT
ATOM      1  C   UNL     1       1.262   8.810  19.524  0.00  0.00    +0.000 A 
ATOM      2  C   UNL     1       2.368   7.927  19.656  0.00  0.00    +0.000 A 
ATOM      3  C   UNL     1       2.676   7.571  18.360  0.00  0.00    +0.000 A 
ATOM      4  O   UNL     1       1.876   8.280  17.514  0.00  0.00    +0.000 OA
ATOM      5  N   UNL     1       1.073   9.131  18.237  0.00  0.00    +0.000 NA
ENDROOT
BRANCH   1   7
ATOM      6  O   UNL     1      -0.509   8.568  21.020  0.00  0.00    +0.000 OA
ATOM      7  C   UNL     1       0.400   9.288  20.604  0.00  0.00    +0.000 C 
ATOM      8  N   UNL     1       0.528  10.645  21.019  0.00  0.00    +0.000 N 
ATOM      9  C   UNL     1      -0.671  11.195  21.701  0.00  0.00    +0.000 C 
ATOM     10  C   UNL     1      -1.470  11.820  20.543  0.00  0.00    +0.000 C 
ATOM     11  C   UNL     1      -0.318  12.386  19.756  0.00  0.00    +0.000 A 
ATOM     12  C   UNL     1      -0.286  13.404  18.819  0.00  0.00    +0.000 A 
ATOM     13  C   UNL     1       0.933  13.691  18.197  0.00  0.00    +0.000 A 
ATOM     14  C   UNL     1       2.095  12.975  18.523  0.00  0.00    +0.000 A 
ATOM     15  C   UNL     1       2.058  11.952  19.473  0.00  0.00    +0.000 A 
ATOM     16  C   UNL     1       0.841  11.648  20.054  0.00  0.00    +0.000 A 
BRANCH  10  17
ATOM     17  C   UNL     1      -2.574  12.765  20.962  0.00  0.00    +0.000 C 
BRANCH  17  18
ATOM     18  O   UNL     1      -3.507  12.932  19.902  0.00  0.00    +0.000 OA
ATOM     19  H   UNL     1      -4.329  13.300  20.278  0.00  0.00    +0.000 HD
ENDBRANCH  17  18
ENDBRANCH  10  17
ENDBRANCH   1   7
BRANCH   3  20
ATOM     20  C   UNL     1       3.514   6.549  17.748  0.00  0.00    +0.000 A 
ATOM     21  C   UNL     1       4.762   6.965  17.233  0.00  0.00    +0.000 A 
ATOM     22  C   UNL     1       5.685   6.055  16.717  0.00  0.00    +0.000 A 
ATOM     23  C   UNL     1       5.384   4.700  16.718  0.00  0.00    +0.000 A 
ATOM     24  C   UNL     1       4.148   4.272  17.197  0.00  0.00    +0.000 A 
ATOM     25  C   UNL     1       3.185   5.179  17.695  0.00  0.00    +0.000 A 
BRANCH  25  26
ATOM     26  C   UNL     1       1.860   4.574  18.111  0.00  0.00    +0.000 C 
ATOM     27  F   UNL     1       1.434   4.840  19.371  0.00  0.00    +0.000 F 
ATOM     28  F   UNL     1       0.843   5.015  17.310  0.00  0.00    +0.000 F 
ATOM     29  F   UNL     1       1.855   3.217  17.983  0.00  0.00    +0.000 F 
ENDBRANCH  25  26
ENDBRANCH   3  20
TORSDOF 5
ENDMDL
MODEL 9
REMARK VINA RESULT:      -7.0      3.137      7.802
REMARK  Name = 
REMARK  5 active torsions:
REMARK  status: ('A' for Active; 'I' for Inactive)
REMARK    1  A    between atoms: C_2  and  C_3
REMARK    2  A    between atoms: C_5  and  C_6
REMARK    3  A    between atoms: C_11  and  C_12
REMARK    4  A    between atoms: C_20  and  C_21
REMARK    5  A    between atoms: C_21  and  O_22
REMARK                            x       y       z     vdW  Elec       q    Type
REMARK                         _______ _______ _______ _____ _____    ______ ____
ROOT
ATOM      1  C   UNL     1       0.338   9.574  22.138  0.00  0.00    +0.000 A 
ATOM      2  C   UNL     1       0.178   8.849  20.926  0.00  0.00    +0.000 A 
ATOM      3  C   UNL     1       1.410   8.267  20.712  0.00  0.00    +0.000 A 
ATOM      4  O   UNL     1       2.210   8.540  21.781  0.00  0.00    +0.000 OA
ATOM      5  N   UNL     1       1.506   9.261  22.717  0.00  0.00    +0.000 NA
ENDROOT
BRANCH   1   7
ATOM      6  O   UNL     1      -1.586  10.182  23.305  0.00  0.00    +0.000 OA
ATOM      7  C   UNL     1      -0.589  10.561  22.688  0.00  0.00    +0.000 C 
ATOM      8  N   UNL     1      -0.403  11.930  22.338  0.00  0.00    +0.000 N 
ATOM      9  C   UNL     1      -1.620  12.770  22.473  0.00  0.00    +0.000 C 
ATOM     10  C   UNL     1      -2.251  12.691  21.072  0.00  0.00    +0.000 C 
ATOM     11  C   UNL     1      -0.987  12.740  20.254  0.00  0.00    +0.000 A 
ATOM     12  C   UNL     1      -0.787  13.104  18.934  0.00  0.00    +0.000 A 
ATOM     13  C   UNL     1       0.506  13.004  18.411  0.00  0.00    +0.000 A 
ATOM     14  C   UNL     1       1.573  12.560  19.206  0.00  0.00    +0.000 A 
ATOM     15  C   UNL     1       1.366  12.199  20.538  0.00  0.00    +0.000 A 
ATOM     16  C   UNL     1       0.078  12.263  21.037  0.00  0.00    +0.000 A 
BRANCH  10  17
ATOM     17  C   UNL     1      -3.318  13.726  20.789  0.00  0.00    +0.000 C 
BRANCH  17  18
ATOM     18  O   UNL     1      -4.177  13.275  19.749  0.00  0.00    +0.000 OA
ATOM     19  H   UNL     1      -3.621  13.007  18.993  0.00  0.00    +0.000 HD
ENDBRANCH  17  18
ENDBRANCH  10  17
ENDBRANCH   1   7
BRANCH   3  20
ATOM     20  C   UNL     1       2.045   7.595  19.587  0.00  0.00    +0.000 A 
ATOM     21  C   UNL     1       2.501   8.409  18.526  0.00  0.00    +0.000 A 
ATOM     22  C   UNL     1       3.211   7.882  17.447  0.00  0.00    +0.000 A 
ATOM     23  C   UNL     1       3.495   6.525  17.412  0.00  0.00    +0.000 A 
ATOM     24  C   UNL     1       3.032   5.700  18.435  0.00  0.00    +0.000 A 
ATOM     25  C   UNL     1       2.283   6.207  19.522  0.00  0.00    +0.000 A 
BRANCH  25  26
ATOM     26  C   UNL     1       1.784   5.180  20.517  0.00  0.00    +0.000 C 
ATOM     27  F   UNL     1       0.455   5.183  20.788  0.00  0.00    +0.000 F 
ATOM     28  F   UNL     1       2.037   3.908  20.082  0.00  0.00    +0.000 F 
ATOM     29  F   UNL     1       2.420   5.282  21.718  0.00  0.00    +0.000 F 
ENDBRANCH  25  26
ENDBRANCH   3  20
TORSDOF 5
ENDMDL
