MODEL 1
REMARK VINA RESULT:      -8.7      0.000      0.000
REMARK  Name = 
REMARK  9 active torsions:
REMARK  status: ('A' for Active; 'I' for Inactive)
REMARK    1  A    between atoms: C_1  and  C_2
REMARK    2  A    between atoms: C_5  and  C_6
REMARK    3  A    between atoms: C_6  and  N_7
REMARK    4  A    between atoms: C_6  and  C_21
REMARK    5  A    between atoms: C_8  and  C_10
REMARK    6  A    between atoms: C_12  and  S_13
REMARK    7  A    between atoms: S_13  and  N_14
REMARK    8  A    between atoms: C_19  and  C_20
REMARK    9  A    between atoms: C_28  and  C_29
REMARK                            x       y       z     vdW  Elec       q    Type
REMARK                         _______ _______ _______ _____ _____    ______ ____
ROOT
ATOM      1  N   UNL     1       2.271   7.398  18.930  0.00  0.00    +0.000 N 
ATOM      2  C   UNL     1       1.979   8.604  18.333  0.00  0.00    +0.000 C 
ATOM      3  O   UNL     1       2.109   8.827  17.137  0.00  0.00    +0.000 OA
ATOM      4  H   UNL     1       2.380   7.401  19.928  0.00  0.00    +0.000 HD
ENDROOT
BRANCH   2   5
ATOM      5  C   UNL     1       1.486   9.693  19.256  0.00  0.00    +0.000 A 
ATOM      6  C   UNL     1       0.880   9.312  20.472  0.00  0.00    +0.000 A 
ATOM      7  C   UNL     1       0.427  10.295  21.373  0.00  0.00    +0.000 A 
ATOM      8  C   UNL     1       0.598  11.650  21.090  0.00  0.00    +0.000 A 
ATOM      9  C   UNL     1       1.213  12.030  19.906  0.00  0.00    +0.000 A 
ATOM     10  C   UNL     1       1.674  11.071  18.983  0.00  0.00    +0.000 A 
ATOM     11  C   UNL     1       2.396  11.588  17.769  0.00  0.00    +0.000 C 
BRANCH   7  12
ATOM     12  S   UNL     1      -0.311   9.878  22.930  0.00  0.00    +0.000 S 
ATOM     13  O   UNL     1       0.744   9.684  23.908  0.00  0.00    +0.000 OA
ATOM     14  O   UNL     1      -1.427  10.768  23.165  0.00  0.00    +0.000 OA
BRANCH  12  15
ATOM     15  N   UNL     1      -0.932   8.345  22.630  0.00  0.00    +0.000 NA
ATOM     16  H   UNL     1      -1.931   8.346  22.841  0.00  0.00    +0.000 HD
ATOM     17  H   UNL     1      -0.440   7.601  23.126  0.00  0.00    +0.000 HD
ENDBRANCH  12  15
ENDBRANCH   7  12
ENDBRANCH   2   5
BRANCH   1  18
ATOM     18  C   UNL     1       2.714   6.177  18.231  0.00  0.00    +0.000 C 
BRANCH  18  23
ATOM     19  C   UNL     1       8.465   5.965  19.204  0.00  0.00    +0.000 C 
ATOM     20  C   UNL     1       7.019   5.936  18.795  0.00  0.00    +0.000 A 
ATOM     21  C   UNL     1       6.168   4.996  19.387  0.00  0.00    +0.000 A 
ATOM     22  C   UNL     1       4.796   5.022  19.144  0.00  0.00    +0.000 A 
ATOM     23  C   UNL     1       4.229   6.011  18.331  0.00  0.00    +0.000 A 
ATOM     24  C   UNL     1       5.100   6.877  17.641  0.00  0.00    +0.000 A 
ATOM     25  C   UNL     1       6.492   6.842  17.856  0.00  0.00    +0.000 A 
ATOM     26  C   UNL     1       7.392   7.796  17.116  0.00  0.00    +0.000 C 
ENDBRANCH  18  23
BRANCH  18  27
ATOM     27  C   UNL     1       1.944   4.952  18.743  0.00  0.00    +0.000 A 
ATOM     28  C   UNL     1       1.581   3.888  17.897  0.00  0.00    +0.000 A 
ATOM     29  C   UNL     1       0.973   2.735  18.401  0.00  0.00    +0.000 A 
ATOM     30  C   UNL     1       0.676   2.637  19.755  0.00  0.00    +0.000 A 
ATOM     31  C   UNL     1       0.961   3.706  20.601  0.00  0.00    +0.000 A 
ATOM     32  C   UNL     1       1.588   4.855  20.101  0.00  0.00    +0.000 A 
ENDBRANCH  18  27
ENDBRANCH   1  18
TORSDOF 6
ENDMDL
MODEL 2
REMARK VINA RESULT:      -8.5      3.477      7.085
REMARK  Name = 
REMARK  9 active torsions:
REMARK  status: ('A' for Active; 'I' for Inactive)
REMARK    1  A    between atoms: C_1  and  C_2
REMARK    2  A    between atoms: C_5  and  C_6
REMARK    3  A    between atoms: C_6  and  N_7
REMARK    4  A    between atoms: C_6  and  C_21
REMARK    5  A    between atoms: C_8  and  C_10
REMARK    6  A    between atoms: C_12  and  S_13
REMARK    7  A    between atoms: S_13  and  N_14
REMARK    8  A    between atoms: C_19  and  C_20
REMARK    9  A    between atoms: C_28  and  C_29
REMARK                            x       y       z     vdW  Elec       q    Type
REMARK                         _______ _______ _______ _____ _____    ______ ____
ROOT
ATOM      1  N   UNL     1       0.798   9.363  19.410  0.00  0.00    +0.000 N 
ATOM      2  C   UNL     1       1.399   8.526  20.323  0.00  0.00    +0.000 C 
ATOM      3  O   UNL     1       1.459   8.750  21.524  0.00  0.00    +0.000 OA
ATOM      4  H   UNL     1       1.031   9.223  18.444  0.00  0.00    +0.000 HD
ENDROOT
BRANCH   2   5
ATOM      5  C   UNL     1       2.025   7.274  19.755  0.00  0.00    +0.000 A 
ATOM      6  C   UNL     1       1.828   6.059  20.444  0.00  0.00    +0.000 A 
ATOM      7  C   UNL     1       2.373   4.864  19.938  0.00  0.00    +0.000 A 
ATOM      8  C   UNL     1       3.087   4.862  18.739  0.00  0.00    +0.000 A 
ATOM      9  C   UNL     1       3.265   6.050  18.046  0.00  0.00    +0.000 A 
ATOM     10  C   UNL     1       2.735   7.262  18.528  0.00  0.00    +0.000 A 
ATOM     11  C   UNL     1       2.918   8.477  17.660  0.00  0.00    +0.000 C 
BRANCH   7  12
ATOM     12  S   UNL     1       2.130   3.302  20.740  0.00  0.00    +0.000 S 
ATOM     13  O   UNL     1       2.882   2.289  20.024  0.00  0.00    +0.000 OA
ATOM     14  O   UNL     1       2.256   3.491  22.168  0.00  0.00    +0.000 OA
BRANCH  12  15
ATOM     15  N   UNL     1       0.514   2.979  20.407  0.00  0.00    +0.000 NA
ATOM     16  H   UNL     1       0.462   2.321  19.627  0.00  0.00    +0.000 HD
ATOM     17  H   UNL     1      -0.043   3.817  20.234  0.00  0.00    +0.000 HD
ENDBRANCH  12  15
ENDBRANCH   7  12
ENDBRANCH   2   5
BRANCH   1  18
ATOM     18  C   UNL     1       0.078  10.611  19.731  0.00  0.00    +0.000 C 
BRANCH  18  23
ATOM     19  C   UNL     1       4.110  14.818  19.395  0.00  0.00    +0.000 C 
ATOM     20  C   UNL     1       2.948  13.865  19.444  0.00  0.00    +0.000 A 
ATOM     21  C   UNL     1       2.735  13.003  18.361  0.00  0.00    +0.000 A 
ATOM     22  C   UNL     1       1.760  12.009  18.421  0.00  0.00    +0.000 A 
ATOM     23  C   UNL     1       0.993  11.824  19.578  0.00  0.00    +0.000 A 
ATOM     24  C   UNL     1       1.126  12.767  20.616  0.00  0.00    +0.000 A 
ATOM     25  C   UNL     1       2.088  13.794  20.556  0.00  0.00    +0.000 A 
ATOM     26  C   UNL     1       2.215  14.774  21.692  0.00  0.00    +0.000 C 
ENDBRANCH  18  23
BRANCH  18  27
ATOM     27  C   UNL     1      -1.206  10.722  18.898  0.00  0.00    +0.000 A 
ATOM     28  C   UNL     1      -1.443   9.909  17.775  0.00  0.00    +0.000 A 
ATOM     29  C   UNL     1      -2.662   9.952  17.092  0.00  0.00    +0.000 A 
ATOM     30  C   UNL     1      -3.656  10.838  17.492  0.00  0.00    +0.000 A 
ATOM     31  C   UNL     1      -3.418  11.702  18.558  0.00  0.00    +0.000 A 
ATOM     32  C   UNL     1      -2.204  11.647  19.255  0.00  0.00    +0.000 A 
ENDBRANCH  18  27
ENDBRANCH   1  18
TORSDOF 6
ENDMDL
MODEL 3
REMARK VINA RESULT:      -8.4      3.467      7.172
REMARK  Name = 
REMARK  9 active torsions:
REMARK  status: ('A' for Active; 'I' for Inactive)
REMARK    1  A    between atoms: C_1  and  C_2
REMARK    2  A    between atoms: C_5  and  C_6
REMARK    3  A    between atoms: C_6  and  N_7
REMARK    4  A    between atoms: C_6  and  C_21
REMARK    5  A    between atoms: C_8  and  C_10
REMARK    6  A    between atoms: C_12  and  S_13
REMARK    7  A    between atoms: S_13  and  N_14
REMARK    8  A    between atoms: C_19  and  C_20
REMARK    9  A    between atoms: C_28  and  C_29
REMARK                            x       y       z     vdW  Elec       q    Type
REMARK                         _______ _______ _______ _____ _____    ______ ____
ROOT
ATOM      1  N   UNL     1       0.485   9.292  19.535  0.00  0.00    +0.000 N 
ATOM      2  C   UNL     1       1.214   8.539  20.428  0.00  0.00    +0.000 C 
ATOM      3  O   UNL     1       1.322   8.801  21.618  0.00  0.00    +0.000 OA
ATOM      4  H   UNL     1       0.673   9.147  18.560  0.00  0.00    +0.000 HD
ENDROOT
BRANCH   2   5
ATOM      5  C   UNL     1       1.920   7.334  19.851  0.00  0.00    +0.000 A 
ATOM      6  C   UNL     1       1.782   6.099  20.519  0.00  0.00    +0.000 A 
ATOM      7  C   UNL     1       2.404   4.946  20.003  0.00  0.00    +0.000 A 
ATOM      8  C   UNL     1       3.135   5.004  18.816  0.00  0.00    +0.000 A 
ATOM      9  C   UNL     1       3.255   6.211  18.144  0.00  0.00    +0.000 A 
ATOM     10  C   UNL     1       2.648   7.383  18.636  0.00  0.00    +0.000 A 
ATOM     11  C   UNL     1       2.774   8.620  17.790  0.00  0.00    +0.000 C 
BRANCH   7  12
ATOM     12  S   UNL     1       2.239   3.359  20.778  0.00  0.00    +0.000 S 
ATOM     13  O   UNL     1       3.096   2.414  20.089  0.00  0.00    +0.000 OA
ATOM     14  O   UNL     1       2.283   3.539  22.212  0.00  0.00    +0.000 OA
BRANCH  12  15
ATOM     15  N   UNL     1       0.668   2.924  20.364  0.00  0.00    +0.000 NA
ATOM     16  H   UNL     1       0.213   2.514  21.181  0.00  0.00    +0.000 HD
ATOM     17  H   UNL     1       0.615   2.310  19.552  0.00  0.00    +0.000 HD
ENDBRANCH  12  15
ENDBRANCH   7  12
ENDBRANCH   2   5
BRANCH   1  18
ATOM     18  C   UNL     1      -0.328  10.476  19.871  0.00  0.00    +0.000 C 
BRANCH  18  23
ATOM     19  C   UNL     1       2.505  15.560  20.307  0.00  0.00    +0.000 C 
ATOM     20  C   UNL     1       1.932  14.172  20.249  0.00  0.00    +0.000 A 
ATOM     21  C   UNL     1       1.074  13.751  21.273  0.00  0.00    +0.000 A 
ATOM     22  C   UNL     1       0.410  12.529  21.190  0.00  0.00    +0.000 A 
ATOM     23  C   UNL     1       0.555  11.707  20.066  0.00  0.00    +0.000 A 
ATOM     24  C   UNL     1       1.509  12.076  19.098  0.00  0.00    +0.000 A 
ATOM     25  C   UNL     1       2.209  13.295  19.184  0.00  0.00    +0.000 A 
ATOM     26  C   UNL     1       3.208  13.665  18.120  0.00  0.00    +0.000 C 
ENDBRANCH  18  23
BRANCH  18  27
ATOM     27  C   UNL     1      -1.428  10.690  18.823  0.00  0.00    +0.000 A 
ATOM     28  C   UNL     1      -1.437  10.004  17.594  0.00  0.00    +0.000 A 
ATOM     29  C   UNL     1      -2.501  10.133  16.698  0.00  0.00    +0.000 A 
ATOM     30  C   UNL     1      -3.561  10.984  16.990  0.00  0.00    +0.000 A 
ATOM     31  C   UNL     1      -3.542  11.727  18.167  0.00  0.00    +0.000 A 
ATOM     32  C   UNL     1      -2.484  11.584  19.076  0.00  0.00    +0.000 A 
ENDBRANCH  18  27
ENDBRANCH   1  18
TORSDOF 6
ENDMDL
MODEL 4
REMARK VINA RESULT:      -8.3      3.462      7.149
REMARK  Name = 
REMARK  9 active torsions:
REMARK  status: ('A' for Active; 'I' for Inactive)
REMARK    1  A    between atoms: C_1  and  C_2
REMARK    2  A    between atoms: C_5  and  C_6
REMARK    3  A    between atoms: C_6  and  N_7
REMARK    4  A    between atoms: C_6  and  C_21
REMARK    5  A    between atoms: C_8  and  C_10
REMARK    6  A    between atoms: C_12  and  S_13
REMARK    7  A    between atoms: S_13  and  N_14
REMARK    8  A    between atoms: C_19  and  C_20
REMARK    9  A    between atoms: C_28  and  C_29
REMARK                            x       y       z     vdW  Elec       q    Type
REMARK                         _______ _______ _______ _____ _____    ______ ____
ROOT
ATOM      1  N   UNL     1       0.895   9.354  19.464  0.00  0.00    +0.000 N 
ATOM      2  C   UNL     1       1.390   8.450  20.377  0.00  0.00    +0.000 C 
ATOM      3  O   UNL     1       1.345   8.606  21.590  0.00  0.00    +0.000 OA
ATOM      4  H   UNL     1       1.212   9.260  18.516  0.00  0.00    +0.000 HD
ENDROOT
BRANCH   2   5
ATOM      5  C   UNL     1       2.035   7.213  19.797  0.00  0.00    +0.000 A 
ATOM      6  C   UNL     1       1.877   5.993  20.488  0.00  0.00    +0.000 A 
ATOM      7  C   UNL     1       2.440   4.812  19.971  0.00  0.00    +0.000 A 
ATOM      8  C   UNL     1       3.133   4.826  18.760  0.00  0.00    +0.000 A 
ATOM      9  C   UNL     1       3.272   6.019  18.065  0.00  0.00    +0.000 A 
ATOM     10  C   UNL     1       2.723   7.219  18.558  0.00  0.00    +0.000 A 
ATOM     11  C   UNL     1       2.863   8.438  17.689  0.00  0.00    +0.000 C 
BRANCH   7  12
ATOM     12  S   UNL     1       2.247   3.244  20.775  0.00  0.00    +0.000 S 
ATOM     13  O   UNL     1       2.252   3.453  22.211  0.00  0.00    +0.000 OA
ATOM     14  O   UNL     1       1.196   2.508  20.107  0.00  0.00    +0.000 OA
BRANCH  12  15
ATOM     15  N   UNL     1       3.706   2.484  20.427  0.00  0.00    +0.000 NA
ATOM     16  H   UNL     1       3.576   1.473  20.497  0.00  0.00    +0.000 HD
ATOM     17  H   UNL     1       4.482   2.808  21.003  0.00  0.00    +0.000 HD
ENDBRANCH  12  15
ENDBRANCH   7  12
ENDBRANCH   2   5
BRANCH   1  18
ATOM     18  C   UNL     1       0.180  10.602  19.790  0.00  0.00    +0.000 C 
BRANCH  18  23
ATOM     19  C   UNL     1       4.199  14.809  19.329  0.00  0.00    +0.000 C 
ATOM     20  C   UNL     1       3.040  13.856  19.414  0.00  0.00    +0.000 A 
ATOM     21  C   UNL     1       2.789  12.998  18.337  0.00  0.00    +0.000 A 
ATOM     22  C   UNL     1       1.816  12.005  18.427  0.00  0.00    +0.000 A 
ATOM     23  C   UNL     1       1.089  11.815  19.609  0.00  0.00    +0.000 A 
ATOM     24  C   UNL     1       1.259  12.756  20.645  0.00  0.00    +0.000 A 
ATOM     25  C   UNL     1       2.219  13.782  20.555  0.00  0.00    +0.000 A 
ATOM     26  C   UNL     1       2.385  14.758  21.689  0.00  0.00    +0.000 C 
ENDBRANCH  18  23
BRANCH  18  27
ATOM     27  C   UNL     1      -1.121  10.705  18.982  0.00  0.00    +0.000 A 
ATOM     28  C   UNL     1      -2.148  11.603  19.327  0.00  0.00    +0.000 A 
ATOM     29  C   UNL     1      -3.279  11.757  18.521  0.00  0.00    +0.000 A 
ATOM     30  C   UNL     1      -3.429  10.987  17.374  0.00  0.00    +0.000 A 
ATOM     31  C   UNL     1      -2.460  10.041  17.049  0.00  0.00    +0.000 A 
ATOM     32  C   UNL     1      -1.316   9.899  17.847  0.00  0.00    +0.000 A 
ENDBRANCH  18  27
ENDBRANCH   1  18
TORSDOF 6
ENDMDL
MODEL 5
REMARK VINA RESULT:      -8.3      2.086      2.650
REMARK  Name = 
REMARK  9 active torsions:
REMARK  status: ('A' for Active; 'I' for Inactive)
REMARK    1  A    between atoms: C_1  and  C_2
REMARK    2  A    between atoms: C_5  and  C_6
REMARK    3  A    between atoms: C_6  and  N_7
REMARK    4  A    between atoms: C_6  and  C_21
REMARK    5  A    between atoms: C_8  and  C_10
REMARK    6  A    between atoms: C_12  and  S_13
REMARK    7  A    between atoms: S_13  and  N_14
REMARK    8  A    between atoms: C_19  and  C_20
REMARK    9  A    between atoms: C_28  and  C_29
REMARK                            x       y       z     vdW  Elec       q    Type
REMARK                         _______ _______ _______ _____ _____    ______ ____
ROOT
ATOM      1  N   UNL     1       2.270   6.992  18.669  0.00  0.00    +0.000 N 
ATOM      2  C   UNL     1       2.123   8.278  18.198  0.00  0.00    +0.000 C 
ATOM      3  O   UNL     1       2.547   8.666  17.118  0.00  0.00    +0.000 OA
ATOM      4  H   UNL     1       2.126   6.850  19.651  0.00  0.00    +0.000 HD
ENDROOT
BRANCH   2   5
ATOM      5  C   UNL     1       1.402   9.237  19.116  0.00  0.00    +0.000 A 
ATOM      6  C   UNL     1       0.959  10.465  18.581  0.00  0.00    +0.000 A 
ATOM      7  C   UNL     1       0.262  11.378  19.395  0.00  0.00    +0.000 A 
ATOM      8  C   UNL     1      -0.024  11.069  20.725  0.00  0.00    +0.000 A 
ATOM      9  C   UNL     1       0.389   9.853  21.249  0.00  0.00    +0.000 A 
ATOM     10  C   UNL     1       1.091   8.920  20.462  0.00  0.00    +0.000 A 
ATOM     11  C   UNL     1       1.423   7.601  21.105  0.00  0.00    +0.000 C 
BRANCH   7  12
ATOM     12  S   UNL     1      -0.348  12.922  18.772  0.00  0.00    +0.000 S 
ATOM     13  O   UNL     1      -1.326  13.447  19.706  0.00  0.00    +0.000 OA
ATOM     14  O   UNL     1       0.773  13.707  18.306  0.00  0.00    +0.000 OA
BRANCH  12  15
ATOM     15  N   UNL     1      -1.230  12.437  17.425  0.00  0.00    +0.000 NA
ATOM     16  H   UNL     1      -1.619  13.264  16.970  0.00  0.00    +0.000 HD
ATOM     17  H   UNL     1      -1.949  11.745  17.635  0.00  0.00    +0.000 HD
ENDBRANCH  12  15
ENDBRANCH   7  12
ENDBRANCH   2   5
BRANCH   1  18
ATOM     18  C   UNL     1       2.889   5.873  17.934  0.00  0.00    +0.000 C 
BRANCH  18  23
ATOM     19  C   UNL     1       8.532   6.175  19.393  0.00  0.00    +0.000 C 
ATOM     20  C   UNL     1       7.133   6.005  18.868  0.00  0.00    +0.000 A 
ATOM     21  C   UNL     1       6.301   5.048  19.461  0.00  0.00    +0.000 A 
ATOM     22  C   UNL     1       4.958   4.951  19.105  0.00  0.00    +0.000 A 
ATOM     23  C   UNL     1       4.397   5.831  18.171  0.00  0.00    +0.000 A 
ATOM     24  C   UNL     1       5.263   6.709  17.489  0.00  0.00    +0.000 A 
ATOM     25  C   UNL     1       6.629   6.797  17.820  0.00  0.00    +0.000 A 
ATOM     26  C   UNL     1       7.521   7.761  17.084  0.00  0.00    +0.000 C 
ENDBRANCH  18  23
BRANCH  18  27
ATOM     27  C   UNL     1       2.193   4.550  18.280  0.00  0.00    +0.000 A 
ATOM     28  C   UNL     1       2.376   3.383  17.514  0.00  0.00    +0.000 A 
ATOM     29  C   UNL     1       1.818   2.163  17.905  0.00  0.00    +0.000 A 
ATOM     30  C   UNL     1       1.029   2.090  19.047  0.00  0.00    +0.000 A 
ATOM     31  C   UNL     1       0.775   3.244  19.783  0.00  0.00    +0.000 A 
ATOM     32  C   UNL     1       1.350   4.465  19.403  0.00  0.00    +0.000 A 
ENDBRANCH  18  27
ENDBRANCH   1  18
TORSDOF 6
ENDMDL
MODEL 6
REMARK VINA RESULT:      -8.1      3.557      7.230
REMARK  Name = 
REMARK  9 active torsions:
REMARK  status: ('A' for Active; 'I' for Inactive)
REMARK    1  A    between atoms: C_1  and  C_2
REMARK    2  A    between atoms: C_5  and  C_6
REMARK    3  A    between atoms: C_6  and  N_7
REMARK    4  A    between atoms: C_6  and  C_21
REMARK    5  A    between atoms: C_8  and  C_10
REMARK    6  A    between atoms: C_12  and  S_13
REMARK    7  A    between atoms: S_13  and  N_14
REMARK    8  A    between atoms: C_19  and  C_20
REMARK    9  A    between atoms: C_28  and  C_29
REMARK                            x       y       z     vdW  Elec       q    Type
REMARK                         _______ _______ _______ _____ _____    ______ ____
ROOT
ATOM      1  N   UNL     1       0.768   9.519  19.028  0.00  0.00    +0.000 N 
ATOM      2  C   UNL     1       1.295   8.720  20.019  0.00  0.00    +0.000 C 
ATOM      3  O   UNL     1       1.231   8.976  21.213  0.00  0.00    +0.000 OA
ATOM      4  H   UNL     1       1.098   9.359  18.094  0.00  0.00    +0.000 HD
ENDROOT
BRANCH   2   5
ATOM      5  C   UNL     1       2.000   7.469  19.550  0.00  0.00    +0.000 A 
ATOM      6  C   UNL     1       1.783   6.274  20.268  0.00  0.00    +0.000 A 
ATOM      7  C   UNL     1       2.402   5.079  19.853  0.00  0.00    +0.000 A 
ATOM      8  C   UNL     1       3.208   5.056  18.715  0.00  0.00    +0.000 A 
ATOM      9  C   UNL     1       3.407   6.224  17.992  0.00  0.00    +0.000 A 
ATOM     10  C   UNL     1       2.805   7.435  18.384  0.00  0.00    +0.000 A 
ATOM     11  C   UNL     1       3.022   8.623  17.487  0.00  0.00    +0.000 C 
BRANCH   7  12
ATOM     12  S   UNL     1       2.140   3.540  20.693  0.00  0.00    +0.000 S 
ATOM     13  O   UNL     1       2.890   2.504  20.009  0.00  0.00    +0.000 OA
ATOM     14  O   UNL     1       2.257   3.765  22.116  0.00  0.00    +0.000 OA
BRANCH  12  15
ATOM     15  N   UNL     1       0.524   3.221  20.355  0.00  0.00    +0.000 NA
ATOM     16  H   UNL     1       0.027   3.071  21.235  0.00  0.00    +0.000 HD
ATOM     17  H   UNL     1       0.388   2.448  19.705  0.00  0.00    +0.000 HD
ENDBRANCH  12  15
ENDBRANCH   7  12
ENDBRANCH   2   5
BRANCH   1  18
ATOM     18  C   UNL     1      -0.005  10.756  19.242  0.00  0.00    +0.000 C 
BRANCH  18  23
ATOM     19  C   UNL     1       3.395  15.428  18.421  0.00  0.00    +0.000 C 
ATOM     20  C   UNL     1       2.444  14.266  18.470  0.00  0.00    +0.000 A 
ATOM     21  C   UNL     1       2.930  12.982  18.198  0.00  0.00    +0.000 A 
ATOM     22  C   UNL     1       2.120  11.861  18.368  0.00  0.00    +0.000 A 
ATOM     23  C   UNL     1       0.811  11.986  18.850  0.00  0.00    +0.000 A 
ATOM     24  C   UNL     1       0.288  13.284  19.007  0.00  0.00    +0.000 A 
ATOM     25  C   UNL     1       1.087  14.427  18.810  0.00  0.00    +0.000 A 
ATOM     26  C   UNL     1       0.499  15.799  19.005  0.00  0.00    +0.000 C 
ENDBRANCH  18  23
BRANCH  18  27
ATOM     27  C   UNL     1      -1.356  10.680  18.516  0.00  0.00    +0.000 A 
ATOM     28  C   UNL     1      -2.478  11.413  18.943  0.00  0.00    +0.000 A 
ATOM     29  C   UNL     1      -3.668  11.412  18.210  0.00  0.00    +0.000 A 
ATOM     30  C   UNL     1      -3.775  10.646  17.055  0.00  0.00    +0.000 A 
ATOM     31  C   UNL     1      -2.702   9.858  16.649  0.00  0.00    +0.000 A 
ATOM     32  C   UNL     1      -1.502   9.872  17.374  0.00  0.00    +0.000 A 
ENDBRANCH  18  27
ENDBRANCH   1  18
TORSDOF 6
ENDMDL
MODEL 7
REMARK VINA RESULT:      -8.0      2.263      2.841
REMARK  Name = 
REMARK  9 active torsions:
REMARK  status: ('A' for Active; 'I' for Inactive)
REMARK    1  A    between atoms: C_1  and  C_2
REMARK    2  A    between atoms: C_5  and  C_6
REMARK    3  A    between atoms: C_6  and  N_7
REMARK    4  A    between atoms: C_6  and  C_21
REMARK    5  A    between atoms: C_8  and  C_10
REMARK    6  A    between atoms: C_12  and  S_13
REMARK    7  A    between atoms: S_13  and  N_14
REMARK    8  A    between atoms: C_19  and  C_20
REMARK    9  A    between atoms: C_28  and  C_29
REMARK                            x       y       z     vdW  Elec       q    Type
REMARK                         _______ _______ _______ _____ _____    ______ ____
ROOT
ATOM      1  N   UNL     1       2.389   7.409  18.939  0.00  0.00    +0.000 N 
ATOM      2  C   UNL     1       1.842   8.513  18.323  0.00  0.00    +0.000 C 
ATOM      3  O   UNL     1       1.667   8.609  17.116  0.00  0.00    +0.000 OA
ATOM      4  H   UNL     1       2.726   7.533  19.876  0.00  0.00    +0.000 HD
ENDROOT
BRANCH   2   5
ATOM      5  C   UNL     1       1.465   9.657  19.236  0.00  0.00    +0.000 A 
ATOM      6  C   UNL     1       1.617  10.973  18.751  0.00  0.00    +0.000 A 
ATOM      7  C   UNL     1       1.257  12.068  19.558  0.00  0.00    +0.000 A 
ATOM      8  C   UNL     1       0.720  11.866  20.830  0.00  0.00    +0.000 A 
ATOM      9  C   UNL     1       0.548  10.573  21.303  0.00  0.00    +0.000 A 
ATOM     10  C   UNL     1       0.902   9.457  20.520  0.00  0.00    +0.000 A 
ATOM     11  C   UNL     1       0.601   8.100  21.096  0.00  0.00    +0.000 C 
BRANCH   7  12
ATOM     12  S   UNL     1       1.393  13.743  18.992  0.00  0.00    +0.000 S 
ATOM     13  O   UNL     1       0.086  14.192  18.552  0.00  0.00    +0.000 OA
ATOM     14  O   UNL     1       2.185  14.489  19.944  0.00  0.00    +0.000 OA
BRANCH  12  15
ATOM     15  N   UNL     1       2.304  13.571  17.590  0.00  0.00    +0.000 NA
ATOM     16  H   UNL     1       2.252  12.598  17.279  0.00  0.00    +0.000 HD
ATOM     17  H   UNL     1       3.268  13.887  17.687  0.00  0.00    +0.000 HD
ENDBRANCH  12  15
ENDBRANCH   7  12
ENDBRANCH   2   5
BRANCH   1  18
ATOM     18  C   UNL     1       2.783   6.157  18.267  0.00  0.00    +0.000 C 
BRANCH  18  23
ATOM     19  C   UNL     1       8.532   5.731  19.179  0.00  0.00    +0.000 C 
ATOM     20  C   UNL     1       7.084   5.771  18.777  0.00  0.00    +0.000 A 
ATOM     21  C   UNL     1       6.215   4.798  19.284  0.00  0.00    +0.000 A 
ATOM     22  C   UNL     1       4.843   4.877  19.053  0.00  0.00    +0.000 A 
ATOM     23  C   UNL     1       4.294   5.950  18.340  0.00  0.00    +0.000 A 
ATOM     24  C   UNL     1       5.181   6.858  17.731  0.00  0.00    +0.000 A 
ATOM     25  C   UNL     1       6.572   6.774  17.932  0.00  0.00    +0.000 A 
ATOM     26  C   UNL     1       7.490   7.774  17.280  0.00  0.00    +0.000 C 
ENDBRANCH  18  23
BRANCH  18  27
ATOM     27  C   UNL     1       1.989   4.970  18.829  0.00  0.00    +0.000 A 
ATOM     28  C   UNL     1       1.521   3.925  18.010  0.00  0.00    +0.000 A 
ATOM     29  C   UNL     1       0.892   2.802  18.554  0.00  0.00    +0.000 A 
ATOM     30  C   UNL     1       0.679   2.717  19.925  0.00  0.00    +0.000 A 
ATOM     31  C   UNL     1       1.069   3.770  20.749  0.00  0.00    +0.000 A 
ATOM     32  C   UNL     1       1.717   4.888  20.207  0.00  0.00    +0.000 A 
ENDBRANCH  18  27
ENDBRANCH   1  18
TORSDOF 6
ENDMDL
MODEL 8
REMARK VINA RESULT:      -8.0      0.741      1.596
REMARK  Name = 
REMARK  9 active torsions:
REMARK  status: ('A' for Active; 'I' for Inactive)
REMARK    1  A    between atoms: C_1  and  C_2
REMARK    2  A    between atoms: C_5  and  C_6
REMARK    3  A    between atoms: C_6  and  N_7
REMARK    4  A    between atoms: C_6  and  C_21
REMARK    5  A    between atoms: C_8  and  C_10
REMARK    6  A    between atoms: C_12  and  S_13
REMARK    7  A    between atoms: S_13  and  N_14
REMARK    8  A    between atoms: C_19  and  C_20
REMARK    9  A    between atoms: C_28  and  C_29
REMARK                            x       y       z     vdW  Elec       q    Type
REMARK                         _______ _______ _______ _____ _____    ______ ____
ROOT
ATOM      1  N   UNL     1       1.983   7.537  18.863  0.00  0.00    +0.000 N 
ATOM      2  C   UNL     1       1.771   8.794  18.341  0.00  0.00    +0.000 C 
ATOM      3  O   UNL     1       1.917   9.080  17.161  0.00  0.00    +0.000 OA
ATOM      4  H   UNL     1       2.091   7.472  19.859  0.00  0.00    +0.000 HD
ENDROOT
BRANCH   2   5
ATOM      5  C   UNL     1       1.350   9.855  19.331  0.00  0.00    +0.000 A 
ATOM      6  C   UNL     1       0.742   9.439  20.535  0.00  0.00    +0.000 A 
ATOM      7  C   UNL     1       0.355  10.392  21.495  0.00  0.00    +0.000 A 
ATOM      8  C   UNL     1       0.593  11.751  21.283  0.00  0.00    +0.000 A 
ATOM      9  C   UNL     1       1.211  12.163  20.112  0.00  0.00    +0.000 A 
ATOM     10  C   UNL     1       1.607  11.234  19.130  0.00  0.00    +0.000 A 
ATOM     11  C   UNL     1       2.338  11.779  17.934  0.00  0.00    +0.000 C 
BRANCH   7  12
ATOM     12  S   UNL     1      -0.381   9.930  23.040  0.00  0.00    +0.000 S 
ATOM     13  O   UNL     1       0.674   9.705  24.010  0.00  0.00    +0.000 OA
ATOM     14  O   UNL     1      -1.496  10.812  23.304  0.00  0.00    +0.000 OA
BRANCH  12  15
ATOM     15  N   UNL     1      -1.004   8.407  22.694  0.00  0.00    +0.000 NA
ATOM     16  H   UNL     1      -0.891   7.809  23.515  0.00  0.00    +0.000 HD
ATOM     17  H   UNL     1      -0.604   7.982  21.858  0.00  0.00    +0.000 HD
ENDBRANCH  12  15
ENDBRANCH   7  12
ENDBRANCH   2   5
BRANCH   1  18
ATOM     18  C   UNL     1       2.346   6.335  18.089  0.00  0.00    +0.000 C 
BRANCH  18  23
ATOM     19  C   UNL     1       7.934   5.648  16.551  0.00  0.00    +0.000 C 
ATOM     20  C   UNL     1       6.547   5.983  17.024  0.00  0.00    +0.000 A 
ATOM     21  C   UNL     1       5.612   6.455  16.095  0.00  0.00    +0.000 A 
ATOM     22  C   UNL     1       4.280   6.644  16.457  0.00  0.00    +0.000 A 
ATOM     23  C   UNL     1       3.834   6.334  17.748  0.00  0.00    +0.000 A 
ATOM     24  C   UNL     1       4.799   5.977  18.710  0.00  0.00    +0.000 A 
ATOM     25  C   UNL     1       6.154   5.810  18.364  0.00  0.00    +0.000 A 
ATOM     26  C   UNL     1       7.155   5.409  19.415  0.00  0.00    +0.000 C 
ENDBRANCH  18  23
BRANCH  18  27
ATOM     27  C   UNL     1       1.902   5.064  18.827  0.00  0.00    +0.000 A 
ATOM     28  C   UNL     1       1.819   5.003  20.230  0.00  0.00    +0.000 A 
ATOM     29  C   UNL     1       1.313   3.872  20.879  0.00  0.00    +0.000 A 
ATOM     30  C   UNL     1       0.918   2.763  20.141  0.00  0.00    +0.000 A 
ATOM     31  C   UNL     1       1.056   2.773  18.755  0.00  0.00    +0.000 A 
ATOM     32  C   UNL     1       1.546   3.912  18.103  0.00  0.00    +0.000 A 
ENDBRANCH  18  27
ENDBRANCH   1  18
TORSDOF 6
ENDMDL
MODEL 9
REMARK VINA RESULT:      -8.0      3.306      7.577
REMARK  Name = 
REMARK  9 active torsions:
REMARK  status: ('A' for Active; 'I' for Inactive)
REMARK    1  A    between atoms: C_1  and  C_2
REMARK    2  A    between atoms: C_5  and  C_6
REMARK    3  A    between atoms: C_6  and  N_7
REMARK    4  A    between atoms: C_6  and  C_21
REMARK    5  A    between atoms: C_8  and  C_10
REMARK    6  A    between atoms: C_12  and  S_13
REMARK    7  A    between atoms: S_13  and  N_14
REMARK    8  A    between atoms: C_19  and  C_20
REMARK    9  A    between atoms: C_28  and  C_29
REMARK                            x       y       z     vdW  Elec       q    Type
REMARK                         _______ _______ _______ _____ _____    ______ ____
ROOT
ATOM      1  N   UNL     1       1.201   9.143  18.959  0.00  0.00    +0.000 N 
ATOM      2  C   UNL     1       1.764   8.200  19.788  0.00  0.00    +0.000 C 
ATOM      3  O   UNL     1       1.737   8.256  21.010  0.00  0.00    +0.000 OA
ATOM      4  H   UNL     1       1.501   9.143  18.001  0.00  0.00    +0.000 HD
ENDROOT
BRANCH   2   5
ATOM      5  C   UNL     1       2.462   7.050  19.099  0.00  0.00    +0.000 A 
ATOM      6  C   UNL     1       3.475   7.351  18.164  0.00  0.00    +0.000 A 
ATOM      7  C   UNL     1       4.168   6.311  17.516  0.00  0.00    +0.000 A 
ATOM      8  C   UNL     1       3.883   4.977  17.811  0.00  0.00    +0.000 A 
ATOM      9  C   UNL     1       2.904   4.676  18.746  0.00  0.00    +0.000 A 
ATOM     10  C   UNL     1       2.191   5.694  19.409  0.00  0.00    +0.000 A 
ATOM     11  C   UNL     1       1.207   5.261  20.461  0.00  0.00    +0.000 C 
BRANCH   7  12
ATOM     12  S   UNL     1       5.473   6.624  16.358  0.00  0.00    +0.000 S 
ATOM     13  O   UNL     1       4.887   7.064  15.105  0.00  0.00    +0.000 OA
ATOM     14  O   UNL     1       6.515   7.371  17.027  0.00  0.00    +0.000 OA
BRANCH  12  15
ATOM     15  N   UNL     1       6.062   5.078  16.059  0.00  0.00    +0.000 NA
ATOM     16  H   UNL     1       5.276   4.462  15.842  0.00  0.00    +0.000 HD
ATOM     17  H   UNL     1       6.638   4.708  16.814  0.00  0.00    +0.000 HD
ENDBRANCH  12  15
ENDBRANCH   7  12
ENDBRANCH   2   5
BRANCH   1  18
ATOM     18  C   UNL     1       0.426  10.320  19.396  0.00  0.00    +0.000 C 
BRANCH  18  23
ATOM     19  C   UNL     1       4.177  14.789  19.249  0.00  0.00    +0.000 C 
ATOM     20  C   UNL     1       3.080  13.761  19.249  0.00  0.00    +0.000 A 
ATOM     21  C   UNL     1       2.950  12.912  18.144  0.00  0.00    +0.000 A 
ATOM     22  C   UNL     1       2.042  11.855  18.158  0.00  0.00    +0.000 A 
ATOM     23  C   UNL     1       1.262  11.594  19.291  0.00  0.00    +0.000 A 
ATOM     24  C   UNL     1       1.307  12.521  20.351  0.00  0.00    +0.000 A 
ATOM     25  C   UNL     1       2.200  13.609  20.337  0.00  0.00    +0.000 A 
ATOM     26  C   UNL     1       2.235  14.570  21.496  0.00  0.00    +0.000 C 
ENDBRANCH  18  23
BRANCH  18  27
ATOM     27  C   UNL     1      -0.899  10.410  18.627  0.00  0.00    +0.000 A 
ATOM     28  C   UNL     1      -1.959  11.232  19.053  0.00  0.00    +0.000 A 
ATOM     29  C   UNL     1      -3.116  11.381  18.285  0.00  0.00    +0.000 A 
ATOM     30  C   UNL     1      -3.258  10.679  17.093  0.00  0.00    +0.000 A 
ATOM     31  C   UNL     1      -2.254   9.805  16.685  0.00  0.00    +0.000 A 
ATOM     32  C   UNL     1      -1.085   9.669  17.446  0.00  0.00    +0.000 A 
ENDBRANCH  18  27
ENDBRANCH   1  18
TORSDOF 6
ENDMDL
