MODEL 1
REMARK VINA RESULT:      -8.3      0.000      0.000
REMARK  Name = 
REMARK  6 active torsions:
REMARK  status: ('A' for Active; 'I' for Inactive)
REMARK    1  A    between atoms: C_2  and  C_3
REMARK    2  A    between atoms: C_3  and  N_4
REMARK    3  A    between atoms: N_13  and  C_14
REMARK    4  A    between atoms: C_14  and  C_15
REMARK    5  A    between atoms: C_18  and  O_19
REMARK    6  A    between atoms: O_19  and  C_20
REMARK                            x       y       z     vdW  Elec       q    Type
REMARK                         _______ _______ _______ _____ _____    ______ ____
ROOT
ATOM      1  C   UNL     1       4.135   7.082  17.329  0.00  0.00    +0.000 C 
ENDROOT
BRANCH   1   2
ATOM      2  C   UNL     1       3.068   7.849  18.059  0.00  0.00    +0.000 A 
ATOM      3  C   UNL     1       2.577   9.045  17.520  0.00  0.00    +0.000 A 
ATOM      4  C   UNL     1       1.628   9.798  18.213  0.00  0.00    +0.000 A 
ATOM      5  C   UNL     1       1.092   9.325  19.415  0.00  0.00    +0.000 A 
ATOM      6  C   UNL     1       1.573   8.128  19.943  0.00  0.00    +0.000 A 
ATOM      7  F   UNL     1       1.102   7.667  21.112  0.00  0.00    +0.000 F 
ATOM      8  C   UNL     1       2.550   7.389  19.278  0.00  0.00    +0.000 A 
BRANCH   5   9
ATOM      9  O   UNL     1       0.137   9.992  20.154  0.00  0.00    +0.000 OA
BRANCH   9  10
ATOM     10  C   UNL     1      -0.970  10.498  19.522  0.00  0.00    +0.000 A 
ATOM     11  C   UNL     1      -1.586   9.910  18.415  0.00  0.00    +0.000 A 
ATOM     12  C   UNL     1      -2.653  10.555  17.802  0.00  0.00    +0.000 A 
ATOM     13  C   UNL     1      -3.120  11.731  18.364  0.00  0.00    +0.000 A 
ATOM     14  N   UNL     1      -2.601  12.289  19.480  0.00  0.00    +0.000 NA
ATOM     15  C   UNL     1      -1.538  11.655  20.036  0.00  0.00    +0.000 A 
ENDBRANCH   9  10
ENDBRANCH   5   9
ENDBRANCH   1   2
BRANCH   1  18
ATOM     16  O   UNL     1       6.039   5.010  17.107  0.00  0.00    +0.000 OA
ATOM     17  C   UNL     1       4.840   4.723  17.173  0.00  0.00    +0.000 C 
ATOM     18  N   UNL     1       3.851   5.668  17.306  0.00  0.00    +0.000 N 
ATOM     19  H   UNL     1       2.896   5.385  17.087  0.00  0.00    +0.000 HD
BRANCH  17  20
ATOM     20  C   UNL     1       4.389   3.281  17.246  0.00  0.00    +0.000 C 
BRANCH  20  21
ATOM     21  N   UNL     1       3.087   3.122  17.849  0.00  0.00    +0.000 N 
ATOM     22  N   UNL     1       1.984   3.327  17.096  0.00  0.00    +0.000 NA
ATOM     23  N   UNL     1       0.931   3.260  17.899  0.00  0.00    +0.000 NA
ATOM     24  C   UNL     1       1.382   3.048  19.173  0.00  0.00    +0.000 A 
ATOM     25  C   UNL     1       0.678   2.951  20.382  0.00  0.00    +0.000 A 
ATOM     26  C   UNL     1       1.402   2.754  21.563  0.00  0.00    +0.000 A 
ATOM     27  C   UNL     1       2.793   2.635  21.538  0.00  0.00    +0.000 A 
ATOM     28  C   UNL     1       3.512   2.721  20.339  0.00  0.00    +0.000 A 
ATOM     29  C   UNL     1       2.770   2.941  19.170  0.00  0.00    +0.000 A 
ENDBRANCH  20  21
ENDBRANCH  17  20
ENDBRANCH   1  18
TORSDOF 6
ENDMDL
MODEL 2
REMARK VINA RESULT:      -8.2      2.154      4.045
REMARK  Name = 
REMARK  6 active torsions:
REMARK  status: ('A' for Active; 'I' for Inactive)
REMARK    1  A    between atoms: C_2  and  C_3
REMARK    2  A    between atoms: C_3  and  N_4
REMARK    3  A    between atoms: N_13  and  C_14
REMARK    4  A    between atoms: C_14  and  C_15
REMARK    5  A    between atoms: C_18  and  O_19
REMARK    6  A    between atoms: O_19  and  C_20
REMARK                            x       y       z     vdW  Elec       q    Type
REMARK                         _______ _______ _______ _____ _____    ______ ____
ROOT
ATOM      1  C   UNL     1       2.334   5.547  20.885  0.00  0.00    +0.000 C 
ENDROOT
BRANCH   1   2
ATOM      2  C   UNL     1       1.908   6.891  20.365  0.00  0.00    +0.000 A 
ATOM      3  C   UNL     1       1.171   7.755  21.184  0.00  0.00    +0.000 A 
ATOM      4  C   UNL     1       0.719   8.982  20.697  0.00  0.00    +0.000 A 
ATOM      5  C   UNL     1       1.069   9.403  19.409  0.00  0.00    +0.000 A 
ATOM      6  C   UNL     1       1.813   8.546  18.599  0.00  0.00    +0.000 A 
ATOM      7  F   UNL     1       2.134   8.909  17.348  0.00  0.00    +0.000 F 
ATOM      8  C   UNL     1       2.236   7.302  19.064  0.00  0.00    +0.000 A 
BRANCH   5   9
ATOM      9  O   UNL     1       0.685  10.606  18.856  0.00  0.00    +0.000 OA
BRANCH   9  10
ATOM     10  C   UNL     1      -0.635  10.814  18.546  0.00  0.00    +0.000 A 
ATOM     11  C   UNL     1      -1.352  10.071  17.606  0.00  0.00    +0.000 A 
ATOM     12  C   UNL     1      -2.664  10.424  17.311  0.00  0.00    +0.000 A 
ATOM     13  C   UNL     1      -3.240  11.463  18.023  0.00  0.00    +0.000 A 
ATOM     14  N   UNL     1      -2.604  12.152  18.995  0.00  0.00    +0.000 NA
ATOM     15  C   UNL     1      -1.314  11.807  19.237  0.00  0.00    +0.000 A 
ENDBRANCH   9  10
ENDBRANCH   5   9
ENDBRANCH   1   2
BRANCH   1  18
ATOM     16  O   UNL     1       2.419   2.738  20.623  0.00  0.00    +0.000 OA
ATOM     17  C   UNL     1       3.088   3.436  19.854  0.00  0.00    +0.000 C 
ATOM     18  N   UNL     1       3.086   4.809  19.899  0.00  0.00    +0.000 N 
ATOM     19  H   UNL     1       3.848   5.297  19.429  0.00  0.00    +0.000 HD
BRANCH  17  20
ATOM     20  C   UNL     1       3.862   2.813  18.714  0.00  0.00    +0.000 C 
BRANCH  20  21
ATOM     21  N   UNL     1       5.045   3.560  18.356  0.00  0.00    +0.000 N 
ATOM     22  N   UNL     1       5.839   4.044  19.336  0.00  0.00    +0.000 NA
ATOM     23  N   UNL     1       6.766   4.799  18.765  0.00  0.00    +0.000 NA
ATOM     24  C   UNL     1       6.529   4.818  17.418  0.00  0.00    +0.000 A 
ATOM     25  C   UNL     1       7.189   5.503  16.387  0.00  0.00    +0.000 A 
ATOM     26  C   UNL     1       6.714   5.361  15.079  0.00  0.00    +0.000 A 
ATOM     27  C   UNL     1       5.620   4.540  14.800  0.00  0.00    +0.000 A 
ATOM     28  C   UNL     1       4.953   3.841  15.815  0.00  0.00    +0.000 A 
ATOM     29  C   UNL     1       5.431   4.014  17.122  0.00  0.00    +0.000 A 
ENDBRANCH  20  21
ENDBRANCH  17  20
ENDBRANCH   1  18
TORSDOF 6
ENDMDL
MODEL 3
REMARK VINA RESULT:      -8.2      2.076      3.939
REMARK  Name = 
REMARK  6 active torsions:
REMARK  status: ('A' for Active; 'I' for Inactive)
REMARK    1  A    between atoms: C_2  and  C_3
REMARK    2  A    between atoms: C_3  and  N_4
REMARK    3  A    between atoms: N_13  and  C_14
REMARK    4  A    between atoms: C_14  and  C_15
REMARK    5  A    between atoms: C_18  and  O_19
REMARK    6  A    between atoms: O_19  and  C_20
REMARK                            x       y       z     vdW  Elec       q    Type
REMARK                         _______ _______ _______ _____ _____    ______ ____
ROOT
ATOM      1  C   UNL     1       2.426   6.122  20.830  0.00  0.00    +0.000 C 
ENDROOT
BRANCH   1   2
ATOM      2  C   UNL     1       1.815   7.373  20.265  0.00  0.00    +0.000 A 
ATOM      3  C   UNL     1       2.120   7.771  18.958  0.00  0.00    +0.000 A 
ATOM      4  C   UNL     1       1.606   8.960  18.439  0.00  0.00    +0.000 A 
ATOM      5  C   UNL     1       0.709   9.727  19.189  0.00  0.00    +0.000 A 
ATOM      6  C   UNL     1       0.396   9.323  20.486  0.00  0.00    +0.000 A 
ATOM      7  F   UNL     1      -0.435  10.058  21.241  0.00  0.00    +0.000 F 
ATOM      8  C   UNL     1       0.936   8.157  21.027  0.00  0.00    +0.000 A 
BRANCH   5   9
ATOM      9  O   UNL     1       0.136  10.902  18.748  0.00  0.00    +0.000 OA
BRANCH   9  10
ATOM     10  C   UNL     1      -1.160  10.892  18.300  0.00  0.00    +0.000 A 
ATOM     11  C   UNL     1      -1.644  10.044  17.301  0.00  0.00    +0.000 A 
ATOM     12  C   UNL     1      -2.957  10.178  16.866  0.00  0.00    +0.000 A 
ATOM     13  C   UNL     1      -3.767  11.107  17.498  0.00  0.00    +0.000 A 
ATOM     14  N   UNL     1      -3.357  11.890  18.520  0.00  0.00    +0.000 NA
ATOM     15  C   UNL     1      -2.061  11.760  18.900  0.00  0.00    +0.000 A 
ENDBRANCH   9  10
ENDBRANCH   5   9
ENDBRANCH   1   2
BRANCH   1  18
ATOM     16  O   UNL     1       1.941   3.371  20.426  0.00  0.00    +0.000 OA
ATOM     17  C   UNL     1       2.733   3.959  19.682  0.00  0.00    +0.000 C 
ATOM     18  N   UNL     1       3.008   5.301  19.796  0.00  0.00    +0.000 N 
ATOM     19  H   UNL     1       3.850   5.649  19.339  0.00  0.00    +0.000 HD
BRANCH  17  20
ATOM     20  C   UNL     1       3.358   3.254  18.499  0.00  0.00    +0.000 C 
BRANCH  20  21
ATOM     21  N   UNL     1       4.708   3.690  18.227  0.00  0.00    +0.000 N 
ATOM     22  N   UNL     1       5.531   3.967  19.262  0.00  0.00    +0.000 NA
ATOM     23  N   UNL     1       6.649   4.473  18.762  0.00  0.00    +0.000 NA
ATOM     24  C   UNL     1       6.510   4.550  17.403  0.00  0.00    +0.000 A 
ATOM     25  C   UNL     1       7.381   5.053  16.426  0.00  0.00    +0.000 A 
ATOM     26  C   UNL     1       6.970   5.032  15.089  0.00  0.00    +0.000 A 
ATOM     27  C   UNL     1       5.729   4.502  14.730  0.00  0.00    +0.000 A 
ATOM     28  C   UNL     1       4.849   3.987  15.691  0.00  0.00    +0.000 A 
ATOM     29  C   UNL     1       5.271   4.038  17.027  0.00  0.00    +0.000 A 
ENDBRANCH  20  21
ENDBRANCH  17  20
ENDBRANCH   1  18
TORSDOF 6
ENDMDL
MODEL 4
REMARK VINA RESULT:      -8.1      2.850      4.692
REMARK  Name = 
REMARK  6 active torsions:
REMARK  status: ('A' for Active; 'I' for Inactive)
REMARK    1  A    between atoms: C_2  and  C_3
REMARK    2  A    between atoms: C_3  and  N_4
REMARK    3  A    between atoms: N_13  and  C_14
REMARK    4  A    between atoms: C_14  and  C_15
REMARK    5  A    between atoms: C_18  and  O_19
REMARK    6  A    between atoms: O_19  and  C_20
REMARK                            x       y       z     vdW  Elec       q    Type
REMARK                         _______ _______ _______ _____ _____    ______ ____
ROOT
ATOM      1  C   UNL     1       1.953   5.964  20.727  0.00  0.00    +0.000 C 
ENDROOT
BRANCH   1   2
ATOM      2  C   UNL     1       1.628   7.365  20.291  0.00  0.00    +0.000 A 
ATOM      3  C   UNL     1       0.913   8.213  21.146  0.00  0.00    +0.000 A 
ATOM      4  C   UNL     1       0.554   9.498  20.734  0.00  0.00    +0.000 A 
ATOM      5  C   UNL     1       0.978   9.985  19.493  0.00  0.00    +0.000 A 
ATOM      6  C   UNL     1       1.700   9.143  18.649  0.00  0.00    +0.000 A 
ATOM      7  F   UNL     1       2.090   9.572  17.438  0.00  0.00    +0.000 F 
ATOM      8  C   UNL     1       2.029   7.845  19.036  0.00  0.00    +0.000 A 
BRANCH   5   9
ATOM      9  O   UNL     1       0.688  11.246  19.016  0.00  0.00    +0.000 OA
BRANCH   9  10
ATOM     10  C   UNL     1       1.546  12.282  19.287  0.00  0.00    +0.000 A 
ATOM     11  C   UNL     1       2.297  12.958  18.324  0.00  0.00    +0.000 A 
ATOM     12  C   UNL     1       3.199  13.938  18.722  0.00  0.00    +0.000 A 
ATOM     13  C   UNL     1       3.264  14.262  20.067  0.00  0.00    +0.000 A 
ATOM     14  N   UNL     1       2.497  13.685  21.018  0.00  0.00    +0.000 NA
ATOM     15  C   UNL     1       1.651  12.709  20.603  0.00  0.00    +0.000 A 
ENDBRANCH   9  10
ENDBRANCH   5   9
ENDBRANCH   1   2
BRANCH   1  18
ATOM     16  O   UNL     1       1.811   3.172  20.336  0.00  0.00    +0.000 OA
ATOM     17  C   UNL     1       2.502   3.854  19.572  0.00  0.00    +0.000 C 
ATOM     18  N   UNL     1       2.607   5.220  19.678  0.00  0.00    +0.000 N 
ATOM     19  H   UNL     1       3.386   5.671  19.199  0.00  0.00    +0.000 HD
BRANCH  17  20
ATOM     20  C   UNL     1       3.182   3.229  18.373  0.00  0.00    +0.000 C 
BRANCH  20  21
ATOM     21  N   UNL     1       4.551   3.659  18.209  0.00  0.00    +0.000 N 
ATOM     22  N   UNL     1       5.300   3.901  19.307  0.00  0.00    +0.000 NA
ATOM     23  N   UNL     1       6.455   4.409  18.901  0.00  0.00    +0.000 NA
ATOM     24  C   UNL     1       6.414   4.522  17.538  0.00  0.00    +0.000 A 
ATOM     25  C   UNL     1       7.356   5.042  16.640  0.00  0.00    +0.000 A 
ATOM     26  C   UNL     1       7.042   5.060  15.277  0.00  0.00    +0.000 A 
ATOM     27  C   UNL     1       5.825   4.552  14.817  0.00  0.00    +0.000 A 
ATOM     28  C   UNL     1       4.875   4.020  15.698  0.00  0.00    +0.000 A 
ATOM     29  C   UNL     1       5.200   4.032  17.062  0.00  0.00    +0.000 A 
ENDBRANCH  20  21
ENDBRANCH  17  20
ENDBRANCH   1  18
TORSDOF 6
ENDMDL
MODEL 5
REMARK VINA RESULT:      -8.0      2.651      8.420
REMARK  Name = 
REMARK  6 active torsions:
REMARK  status: ('A' for Active; 'I' for Inactive)
REMARK    1  A    between atoms: C_2  and  C_3
REMARK    2  A    between atoms: C_3  and  N_4
REMARK    3  A    between atoms: N_13  and  C_14
REMARK    4  A    between atoms: C_14  and  C_15
REMARK    5  A    between atoms: C_18  and  O_19
REMARK    6  A    between atoms: O_19  and  C_20
REMARK                            x       y       z     vdW  Elec       q    Type
REMARK                         _______ _______ _______ _____ _____    ______ ____
ROOT
ATOM      1  C   UNL     1       1.170   8.410  21.554  0.00  0.00    +0.000 C 
ENDROOT
BRANCH   1   2
ATOM      2  C   UNL     1       1.691   7.507  20.471  0.00  0.00    +0.000 A 
ATOM      3  C   UNL     1       1.683   6.119  20.655  0.00  0.00    +0.000 A 
ATOM      4  C   UNL     1       2.215   5.271  19.683  0.00  0.00    +0.000 A 
ATOM      5  C   UNL     1       2.688   5.791  18.474  0.00  0.00    +0.000 A 
ATOM      6  C   UNL     1       2.684   7.173  18.288  0.00  0.00    +0.000 A 
ATOM      7  F   UNL     1       3.163   7.703  17.151  0.00  0.00    +0.000 F 
ATOM      8  C   UNL     1       2.190   8.030  19.269  0.00  0.00    +0.000 A 
BRANCH   5   9
ATOM      9  O   UNL     1       3.210   5.026  17.452  0.00  0.00    +0.000 OA
BRANCH   9  10
ATOM     10  C   UNL     1       4.571   4.916  17.322  0.00  0.00    +0.000 A 
ATOM     11  C   UNL     1       5.258   5.001  16.110  0.00  0.00    +0.000 A 
ATOM     12  C   UNL     1       6.632   4.789  16.085  0.00  0.00    +0.000 A 
ATOM     13  C   UNL     1       7.285   4.575  17.287  0.00  0.00    +0.000 A 
ATOM     14  N   UNL     1       6.666   4.565  18.488  0.00  0.00    +0.000 NA
ATOM     15  C   UNL     1       5.320   4.740  18.476  0.00  0.00    +0.000 A 
ENDBRANCH   9  10
ENDBRANCH   5   9
ENDBRANCH   1   2
BRANCH   1  18
ATOM     16  O   UNL     1       1.283  11.218  21.295  0.00  0.00    +0.000 OA
ATOM     17  C   UNL     1       0.241  10.627  20.997  0.00  0.00    +0.000 C 
ATOM     18  N   UNL     1       0.109   9.261  21.072  0.00  0.00    +0.000 N 
ATOM     19  H   UNL     1      -0.836   8.878  21.071  0.00  0.00    +0.000 HD
BRANCH  17  20
ATOM     20  C   UNL     1      -0.931  11.372  20.397  0.00  0.00    +0.000 C 
BRANCH  20  21
ATOM     21  N   UNL     1      -1.352  10.836  19.123  0.00  0.00    +0.000 N 
ATOM     22  N   UNL     1      -0.464  10.146  18.374  0.00  0.00    +0.000 NA
ATOM     23  N   UNL     1      -1.040   9.884  17.209  0.00  0.00    +0.000 NA
ATOM     24  C   UNL     1      -2.287  10.448  17.215  0.00  0.00    +0.000 A 
ATOM     25  C   UNL     1      -3.267  10.497  16.214  0.00  0.00    +0.000 A 
ATOM     26  C   UNL     1      -4.463  11.172  16.482  0.00  0.00    +0.000 A 
ATOM     27  C   UNL     1      -4.686  11.765  17.726  0.00  0.00    +0.000 A 
ATOM     28  C   UNL     1      -3.721  11.719  18.742  0.00  0.00    +0.000 A 
ATOM     29  C   UNL     1      -2.521  11.057  18.445  0.00  0.00    +0.000 A 
ENDBRANCH  20  21
ENDBRANCH  17  20
ENDBRANCH   1  18
TORSDOF 6
ENDMDL
MODEL 6
REMARK VINA RESULT:      -8.0      3.080      5.209
REMARK  Name = 
REMARK  6 active torsions:
REMARK  status: ('A' for Active; 'I' for Inactive)
REMARK    1  A    between atoms: C_2  and  C_3
REMARK    2  A    between atoms: C_3  and  N_4
REMARK    3  A    between atoms: N_13  and  C_14
REMARK    4  A    between atoms: C_14  and  C_15
REMARK    5  A    between atoms: C_18  and  O_19
REMARK    6  A    between atoms: O_19  and  C_20
REMARK                            x       y       z     vdW  Elec       q    Type
REMARK                         _______ _______ _______ _____ _____    ______ ____
ROOT
ATOM      1  C   UNL     1       3.433   5.531  19.464  0.00  0.00    +0.000 C 
ENDROOT
BRANCH   1   2
ATOM      2  C   UNL     1       2.684   6.828  19.335  0.00  0.00    +0.000 A 
ATOM      3  C   UNL     1       2.749   7.555  18.140  0.00  0.00    +0.000 A 
ATOM      4  C   UNL     1       2.107   8.789  18.025  0.00  0.00    +0.000 A 
ATOM      5  C   UNL     1       1.318   9.275  19.073  0.00  0.00    +0.000 A 
ATOM      6  C   UNL     1       1.245   8.543  20.257  0.00  0.00    +0.000 A 
ATOM      7  F   UNL     1       0.523   9.002  21.291  0.00  0.00    +0.000 F 
ATOM      8  C   UNL     1       1.915   7.329  20.395  0.00  0.00    +0.000 A 
BRANCH   5   9
ATOM      9  O   UNL     1       0.632  10.471  19.036  0.00  0.00    +0.000 OA
BRANCH   9  10
ATOM     10  C   UNL     1       1.300  11.638  19.304  0.00  0.00    +0.000 A 
ATOM     11  C   UNL     1       2.037  12.360  18.363  0.00  0.00    +0.000 A 
ATOM     12  C   UNL     1       2.745  13.487  18.766  0.00  0.00    +0.000 A 
ATOM     13  C   UNL     1       2.629  13.899  20.083  0.00  0.00    +0.000 A 
ATOM     14  N   UNL     1       1.863  13.272  21.003  0.00  0.00    +0.000 NA
ATOM     15  C   UNL     1       1.212  12.156  20.588  0.00  0.00    +0.000 A 
ENDBRANCH   9  10
ENDBRANCH   5   9
ENDBRANCH   1   2
BRANCH   1  18
ATOM     16  O   UNL     1       5.683   3.947  18.834  0.00  0.00    +0.000 OA
ATOM     17  C   UNL     1       4.868   4.216  17.947  0.00  0.00    +0.000 C 
ATOM     18  N   UNL     1       3.735   4.961  18.173  0.00  0.00    +0.000 N 
ATOM     19  H   UNL     1       3.264   5.361  17.362  0.00  0.00    +0.000 HD
BRANCH  17  20
ATOM     20  C   UNL     1       5.002   3.622  16.562  0.00  0.00    +0.000 C 
BRANCH  20  21
ATOM     21  N   UNL     1       6.044   4.242  15.777  0.00  0.00    +0.000 N 
ATOM     22  N   UNL     1       6.785   5.228  16.329  0.00  0.00    +0.000 NA
ATOM     23  N   UNL     1       7.566   5.723  15.380  0.00  0.00    +0.000 NA
ATOM     24  C   UNL     1       7.285   5.066  14.213  0.00  0.00    +0.000 A 
ATOM     25  C   UNL     1       7.798   5.247  12.921  0.00  0.00    +0.000 A 
ATOM     26  C   UNL     1       7.308   4.441  11.888  0.00  0.00    +0.000 A 
ATOM     27  C   UNL     1       6.345   3.462  12.140  0.00  0.00    +0.000 A 
ATOM     28  C   UNL     1       5.827   3.260  13.426  0.00  0.00    +0.000 A 
ATOM     29  C   UNL     1       6.315   4.094  14.443  0.00  0.00    +0.000 A 
ENDBRANCH  20  21
ENDBRANCH  17  20
ENDBRANCH   1  18
TORSDOF 6
ENDMDL
MODEL 7
REMARK VINA RESULT:      -8.0      0.987      1.555
REMARK  Name = 
REMARK  6 active torsions:
REMARK  status: ('A' for Active; 'I' for Inactive)
REMARK    1  A    between atoms: C_2  and  C_3
REMARK    2  A    between atoms: C_3  and  N_4
REMARK    3  A    between atoms: N_13  and  C_14
REMARK    4  A    between atoms: C_14  and  C_15
REMARK    5  A    between atoms: C_18  and  O_19
REMARK    6  A    between atoms: O_19  and  C_20
REMARK                            x       y       z     vdW  Elec       q    Type
REMARK                         _______ _______ _______ _____ _____    ______ ____
ROOT
ATOM      1  C   UNL     1       3.996   7.151  17.403  0.00  0.00    +0.000 C 
ENDROOT
BRANCH   1   2
ATOM      2  C   UNL     1       2.895   7.828  18.170  0.00  0.00    +0.000 A 
ATOM      3  C   UNL     1       2.195   8.894  17.593  0.00  0.00    +0.000 A 
ATOM      4  C   UNL     1       1.209   9.569  18.314  0.00  0.00    +0.000 A 
ATOM      5  C   UNL     1       0.848   9.134  19.594  0.00  0.00    +0.000 A 
ATOM      6  C   UNL     1       1.538   8.065  20.162  0.00  0.00    +0.000 A 
ATOM      7  F   UNL     1       1.237   7.648  21.402  0.00  0.00    +0.000 F 
ATOM      8  C   UNL     1       2.551   7.409  19.464  0.00  0.00    +0.000 A 
BRANCH   5   9
ATOM      9  O   UNL     1      -0.128   9.727  20.368  0.00  0.00    +0.000 OA
BRANCH   9  10
ATOM     10  C   UNL     1      -0.166  11.094  20.472  0.00  0.00    +0.000 A 
ATOM     11  C   UNL     1       0.908  11.885  20.886  0.00  0.00    +0.000 A 
ATOM     12  C   UNL     1       0.731  13.255  21.036  0.00  0.00    +0.000 A 
ATOM     13  C   UNL     1      -0.494  13.801  20.693  0.00  0.00    +0.000 A 
ATOM     14  N   UNL     1      -1.531  13.079  20.215  0.00  0.00    +0.000 NA
ATOM     15  C   UNL     1      -1.340  11.740  20.111  0.00  0.00    +0.000 A 
ENDBRANCH   9  10
ENDBRANCH   5   9
ENDBRANCH   1   2
BRANCH   1  18
ATOM     16  O   UNL     1       5.975   5.146  17.562  0.00  0.00    +0.000 OA
ATOM     17  C   UNL     1       4.801   4.820  17.363  0.00  0.00    +0.000 C 
ATOM     18  N   UNL     1       3.774   5.730  17.295  0.00  0.00    +0.000 N 
ATOM     19  H   UNL     1       2.899   5.423  16.870  0.00  0.00    +0.000 HD
BRANCH  17  20
ATOM     20  C   UNL     1       4.397   3.363  17.313  0.00  0.00    +0.000 C 
BRANCH  20  21
ATOM     21  N   UNL     1       3.100   3.113  17.898  0.00  0.00    +0.000 N 
ATOM     22  N   UNL     1       1.999   3.212  17.123  0.00  0.00    +0.000 NA
ATOM     23  N   UNL     1       0.940   3.077  17.909  0.00  0.00    +0.000 NA
ATOM     24  C   UNL     1       1.383   2.929  19.195  0.00  0.00    +0.000 A 
ATOM     25  C   UNL     1       0.667   2.801  20.394  0.00  0.00    +0.000 A 
ATOM     26  C   UNL     1       1.383   2.688  21.591  0.00  0.00    +0.000 A 
ATOM     27  C   UNL     1       2.779   2.681  21.591  0.00  0.00    +0.000 A 
ATOM     28  C   UNL     1       3.511   2.799  20.403  0.00  0.00    +0.000 A 
ATOM     29  C   UNL     1       2.775   2.934  19.217  0.00  0.00    +0.000 A 
ENDBRANCH  20  21
ENDBRANCH  17  20
ENDBRANCH   1  18
TORSDOF 6
ENDMDL
MODEL 8
REMARK VINA RESULT:      -7.9      2.733      8.522
REMARK  Name = 
REMARK  6 active torsions:
REMARK  status: ('A' for Active; 'I' for Inactive)
REMARK    1  A    between atoms: C_2  and  C_3
REMARK    2  A    between atoms: C_3  and  N_4
REMARK    3  A    between atoms: N_13  and  C_14
REMARK    4  A    between atoms: C_14  and  C_15
REMARK    5  A    between atoms: C_18  and  O_19
REMARK    6  A    between atoms: O_19  and  C_20
REMARK                            x       y       z     vdW  Elec       q    Type
REMARK                         _______ _______ _______ _____ _____    ______ ____
ROOT
ATOM      1  C   UNL     1       1.229   7.303  20.890  0.00  0.00    +0.000 C 
ENDROOT
BRANCH   1   2
ATOM      2  C   UNL     1       2.190   6.393  20.178  0.00  0.00    +0.000 A 
ATOM      3  C   UNL     1       2.920   6.870  19.082  0.00  0.00    +0.000 A 
ATOM      4  C   UNL     1       3.774   6.022  18.375  0.00  0.00    +0.000 A 
ATOM      5  C   UNL     1       3.976   4.705  18.804  0.00  0.00    +0.000 A 
ATOM      6  C   UNL     1       3.257   4.237  19.902  0.00  0.00    +0.000 A 
ATOM      7  F   UNL     1       3.405   2.968  20.315  0.00  0.00    +0.000 F 
ATOM      8  C   UNL     1       2.373   5.065  20.591  0.00  0.00    +0.000 A 
BRANCH   5   9
ATOM      9  O   UNL     1       4.815   3.807  18.179  0.00  0.00    +0.000 OA
BRANCH   9  10
ATOM     10  C   UNL     1       5.468   4.181  17.033  0.00  0.00    +0.000 A 
ATOM     11  C   UNL     1       4.877   4.233  15.768  0.00  0.00    +0.000 A 
ATOM     12  C   UNL     1       5.656   4.545  14.661  0.00  0.00    +0.000 A 
ATOM     13  C   UNL     1       6.987   4.870  14.864  0.00  0.00    +0.000 A 
ATOM     14  N   UNL     1       7.574   4.906  16.080  0.00  0.00    +0.000 NA
ATOM     15  C   UNL     1       6.797   4.564  17.139  0.00  0.00    +0.000 A 
ENDBRANCH   9  10
ENDBRANCH   5   9
ENDBRANCH   1   2
BRANCH   1  18
ATOM     16  O   UNL     1       0.326   9.682  22.110  0.00  0.00    +0.000 OA
ATOM     17  C   UNL     1       0.695   9.711  20.932  0.00  0.00    +0.000 C 
ATOM     18  N   UNL     1       1.170   8.604  20.270  0.00  0.00    +0.000 N 
ATOM     19  H   UNL     1       1.199   8.640  19.252  0.00  0.00    +0.000 HD
BRANCH  17  20
ATOM     20  C   UNL     1       0.772  11.018  20.173  0.00  0.00    +0.000 C 
BRANCH  20  21
ATOM     21  N   UNL     1      -0.518  11.493  19.730  0.00  0.00    +0.000 N 
ATOM     22  N   UNL     1      -1.169  12.417  20.470  0.00  0.00    +0.000 NA
ATOM     23  N   UNL     1      -2.371  12.583  19.938  0.00  0.00    +0.000 NA
ATOM     24  C   UNL     1      -2.489  11.727  18.877  0.00  0.00    +0.000 A 
ATOM     25  C   UNL     1      -3.572  11.484  18.020  0.00  0.00    +0.000 A 
ATOM     26  C   UNL     1      -3.426  10.520  17.016  0.00  0.00    +0.000 A 
ATOM     27  C   UNL     1      -2.223   9.831  16.856  0.00  0.00    +0.000 A 
ATOM     28  C   UNL     1      -1.127  10.066  17.696  0.00  0.00    +0.000 A 
ATOM     29  C   UNL     1      -1.301  11.020  18.710  0.00  0.00    +0.000 A 
ENDBRANCH  20  21
ENDBRANCH  17  20
ENDBRANCH   1  18
TORSDOF 6
ENDMDL
MODEL 9
REMARK VINA RESULT:      -7.9      2.573      4.684
REMARK  Name = 
REMARK  6 active torsions:
REMARK  status: ('A' for Active; 'I' for Inactive)
REMARK    1  A    between atoms: C_2  and  C_3
REMARK    2  A    between atoms: C_3  and  N_4
REMARK    3  A    between atoms: N_13  and  C_14
REMARK    4  A    between atoms: C_14  and  C_15
REMARK    5  A    between atoms: C_18  and  O_19
REMARK    6  A    between atoms: O_19  and  C_20
REMARK                            x       y       z     vdW  Elec       q    Type
REMARK                         _______ _______ _______ _____ _____    ______ ____
ROOT
ATOM      1  C   UNL     1       3.473   5.727  19.448  0.00  0.00    +0.000 C 
ENDROOT
BRANCH   1   2
ATOM      2  C   UNL     1       2.625   6.969  19.475  0.00  0.00    +0.000 A 
ATOM      3  C   UNL     1       2.562   7.795  18.347  0.00  0.00    +0.000 A 
ATOM      4  C   UNL     1       1.826   8.980  18.375  0.00  0.00    +0.000 A 
ATOM      5  C   UNL     1       1.072   9.316  19.504  0.00  0.00    +0.000 A 
ATOM      6  C   UNL     1       1.126   8.485  20.622  0.00  0.00    +0.000 A 
ATOM      7  F   UNL     1       0.440   8.800  21.732  0.00  0.00    +0.000 F 
ATOM      8  C   UNL     1       1.890   7.319  20.617  0.00  0.00    +0.000 A 
BRANCH   5   9
ATOM      9  O   UNL     1       0.300  10.454  19.611  0.00  0.00    +0.000 OA
BRANCH   9  10
ATOM     10  C   UNL     1      -0.780  10.615  18.781  0.00  0.00    +0.000 A 
ATOM     11  C   UNL     1      -1.687   9.603  18.459  0.00  0.00    +0.000 A 
ATOM     12  C   UNL     1      -2.698   9.856  17.540  0.00  0.00    +0.000 A 
ATOM     13  C   UNL     1      -2.815  11.138  17.030  0.00  0.00    +0.000 A 
ATOM     14  N   UNL     1      -2.006  12.162  17.377  0.00  0.00    +0.000 NA
ATOM     15  C   UNL     1      -1.008  11.876  18.250  0.00  0.00    +0.000 A 
ENDBRANCH   9  10
ENDBRANCH   5   9
ENDBRANCH   1   2
BRANCH   1  18
ATOM     16  O   UNL     1       4.546   3.230  18.689  0.00  0.00    +0.000 OA
ATOM     17  C   UNL     1       4.281   4.063  17.816  0.00  0.00    +0.000 C 
ATOM     18  N   UNL     1       3.735   5.292  18.098  0.00  0.00    +0.000 N 
ATOM     19  H   UNL     1       3.794   6.010  17.377  0.00  0.00    +0.000 HD
BRANCH  17  20
ATOM     20  C   UNL     1       4.421   3.722  16.349  0.00  0.00    +0.000 C 
BRANCH  20  21
ATOM     21  N   UNL     1       5.615   4.271  15.751  0.00  0.00    +0.000 N 
ATOM     22  N   UNL     1       6.364   5.145  16.459  0.00  0.00    +0.000 NA
ATOM     23  N   UNL     1       7.313   5.604  15.656  0.00  0.00    +0.000 NA
ATOM     24  C   UNL     1       7.133   5.042  14.421  0.00  0.00    +0.000 A 
ATOM     25  C   UNL     1       7.835   5.236  13.223  0.00  0.00    +0.000 A 
ATOM     26  C   UNL     1       7.417   4.540  12.083  0.00  0.00    +0.000 A 
ATOM     27  C   UNL     1       6.339   3.654  12.142  0.00  0.00    +0.000 A 
ATOM     28  C   UNL     1       5.632   3.441  13.332  0.00  0.00    +0.000 A 
ATOM     29  C   UNL     1       6.052   4.165  14.457  0.00  0.00    +0.000 A 
ENDBRANCH  20  21
ENDBRANCH  17  20
ENDBRANCH   1  18
TORSDOF 6
ENDMDL
