MODEL 1
REMARK VINA RESULT:      -9.0      0.000      0.000
REMARK  Name = 
REMARK  8 active torsions:
REMARK  status: ('A' for Active; 'I' for Inactive)
REMARK    1  A    between atoms: C_1  and  C_2
REMARK    2  A    between atoms: C_6  and  C_7
REMARK    3  A    between atoms: N_10  and  C_11
REMARK    4  A    between atoms: C_15  and  C_16
REMARK    5  A    between atoms: C_16  and  C_17
REMARK    6  A    between atoms: C_16  and  S_18
REMARK    7  A    between atoms: S_18  and  C_19
REMARK    8  A    between atoms: N_23  and  C_24
REMARK                            x       y       z     vdW  Elec       q    Type
REMARK                         _______ _______ _______ _____ _____    ______ ____
ROOT
ATOM      1  C   UNL     1       3.116   5.999  19.075  0.00  0.00    +0.000 A 
ATOM      2  C   UNL     1       3.017   4.886  19.919  0.00  0.00    +0.000 A 
ATOM      3  C   UNL     1       3.915   3.818  19.816  0.00  0.00    +0.000 A 
ATOM      4  C   UNL     1       4.946   3.852  18.877  0.00  0.00    +0.000 A 
ATOM      5  C   UNL     1       5.088   4.953  18.028  0.00  0.00    +0.000 A 
ATOM      6  C   UNL     1       4.161   6.005  18.141  0.00  0.00    +0.000 A 
ENDROOT
BRANCH   1  10
ATOM      7  C   UNL     1       1.317   8.891  20.047  0.00  0.00    +0.000 C 
ATOM      8  N   UNL     1       1.535   9.347  18.830  0.00  0.00    +0.000 NA
ATOM      9  C   UNL     1       2.272   8.198  18.208  0.00  0.00    +0.000 C 
ATOM     10  N   UNL     1       2.264   7.096  19.169  0.00  0.00    +0.000 N 
ATOM     11  N   UNL     1       1.785   7.624  20.331  0.00  0.00    +0.000 N 
ATOM     12  H   UNL     1       1.158   7.037  20.876  0.00  0.00    +0.000 HD
BRANCH   7  18
ATOM     13  C   UNL     1      -0.505  13.277  21.567  0.00  0.00    +0.000 C 
ATOM     14  C   UNL     1      -0.312  11.807  21.797  0.00  0.00    +0.000 A 
ATOM     15  C   UNL     1      -0.851  11.172  22.923  0.00  0.00    +0.000 A 
ATOM     16  C   UNL     1      -0.681   9.799  23.112  0.00  0.00    +0.000 A 
ATOM     17  C   UNL     1       0.022   9.044  22.173  0.00  0.00    +0.000 A 
ATOM     18  C   UNL     1       0.571   9.674  21.051  0.00  0.00    +0.000 A 
ATOM     19  C   UNL     1       0.406  11.049  20.864  0.00  0.00    +0.000 A 
ENDBRANCH   7  18
ENDBRANCH   1  10
BRANCH   5  20
ATOM     20  C   UNL     1       6.221   5.018  17.020  0.00  0.00    +0.000 C 
ATOM     21  C   UNL     1       7.560   4.669  17.686  0.00  0.00    +0.000 C 
BRANCH  20  22
ATOM     22  S   UNL     1       5.968   3.858  15.619  0.00  0.00    +0.000 S 
BRANCH  22  23
ATOM     23  C   UNL     1       6.886   4.605  14.362  0.00  0.00    +0.000 A 
ATOM     24  N   UNL     1       7.822   5.518  14.493  0.00  0.00    +0.000 NA
ATOM     25  N   UNL     1       8.330   5.782  13.239  0.00  0.00    +0.000 NA
ATOM     26  C   UNL     1       7.692   5.013  12.383  0.00  0.00    +0.000 A 
ATOM     27  N   UNL     1       6.764   4.265  13.045  0.00  0.00    +0.000 N 
ATOM     28  C   UNL     1       5.856   3.325  12.446  0.00  0.00    +0.000 C 
ENDBRANCH  22  23
ENDBRANCH  20  22
ENDBRANCH   5  20
TORSDOF 5
ENDMDL
MODEL 2
REMARK VINA RESULT:      -8.9      2.445      4.486
REMARK  Name = 
REMARK  8 active torsions:
REMARK  status: ('A' for Active; 'I' for Inactive)
REMARK    1  A    between atoms: C_1  and  C_2
REMARK    2  A    between atoms: C_6  and  C_7
REMARK    3  A    between atoms: N_10  and  C_11
REMARK    4  A    between atoms: C_15  and  C_16
REMARK    5  A    between atoms: C_16  and  C_17
REMARK    6  A    between atoms: C_16  and  S_18
REMARK    7  A    between atoms: S_18  and  C_19
REMARK    8  A    between atoms: N_23  and  C_24
REMARK                            x       y       z     vdW  Elec       q    Type
REMARK                         _______ _______ _______ _____ _____    ______ ____
ROOT
ATOM      1  C   UNL     1       1.423   8.949  20.206  0.00  0.00    +0.000 A 
ATOM      2  C   UNL     1       1.331   9.386  18.879  0.00  0.00    +0.000 A 
ATOM      3  C   UNL     1       1.800   8.596  17.823  0.00  0.00    +0.000 A 
ATOM      4  C   UNL     1       2.353   7.341  18.074  0.00  0.00    +0.000 A 
ATOM      5  C   UNL     1       2.447   6.862  19.384  0.00  0.00    +0.000 A 
ATOM      6  C   UNL     1       1.985   7.683  20.427  0.00  0.00    +0.000 A 
ENDROOT
BRANCH   1  10
ATOM      7  C   UNL     1      -0.490  10.887  22.471  0.00  0.00    +0.000 C 
ATOM      8  N   UNL     1      -0.079  10.061  23.411  0.00  0.00    +0.000 NA
ATOM      9  C   UNL     1       0.827   9.151  22.636  0.00  0.00    +0.000 C 
ATOM     10  N   UNL     1       0.938   9.689  21.281  0.00  0.00    +0.000 N 
ATOM     11  N   UNL     1       0.000  10.675  21.197  0.00  0.00    +0.000 N 
ATOM     12  H   UNL     1       0.262  11.513  20.684  0.00  0.00    +0.000 HD
BRANCH   7  18
ATOM     13  C   UNL     1      -4.736  12.550  24.488  0.00  0.00    +0.000 C 
ATOM     14  C   UNL     1      -3.466  12.825  23.739  0.00  0.00    +0.000 A 
ATOM     15  C   UNL     1      -3.122  14.125  23.345  0.00  0.00    +0.000 A 
ATOM     16  C   UNL     1      -1.925  14.367  22.668  0.00  0.00    +0.000 A 
ATOM     17  C   UNL     1      -1.056  13.314  22.382  0.00  0.00    +0.000 A 
ATOM     18  C   UNL     1      -1.398  12.012  22.763  0.00  0.00    +0.000 A 
ATOM     19  C   UNL     1      -2.598  11.768  23.437  0.00  0.00    +0.000 A 
ENDBRANCH   7  18
ENDBRANCH   1  10
BRANCH   5  20
ATOM     20  C   UNL     1       3.021   5.486  19.670  0.00  0.00    +0.000 C 
ATOM     21  C   UNL     1       1.944   4.559  20.249  0.00  0.00    +0.000 C 
BRANCH  20  22
ATOM     22  S   UNL     1       3.699   4.691  18.160  0.00  0.00    +0.000 S 
BRANCH  22  23
ATOM     23  C   UNL     1       5.401   4.852  18.401  0.00  0.00    +0.000 A 
ATOM     24  N   UNL     1       6.031   5.053  19.537  0.00  0.00    +0.000 NA
ATOM     25  N   UNL     1       7.384   5.054  19.273  0.00  0.00    +0.000 NA
ATOM     26  C   UNL     1       7.536   4.843  17.984  0.00  0.00    +0.000 A 
ATOM     27  N   UNL     1       6.314   4.724  17.393  0.00  0.00    +0.000 N 
ATOM     28  C   UNL     1       6.072   4.514  15.991  0.00  0.00    +0.000 C 
ENDBRANCH  22  23
ENDBRANCH  20  22
ENDBRANCH   5  20
TORSDOF 5
ENDMDL
MODEL 3
REMARK VINA RESULT:      -8.6      2.590      9.646
REMARK  Name = 
REMARK  8 active torsions:
REMARK  status: ('A' for Active; 'I' for Inactive)
REMARK    1  A    between atoms: C_1  and  C_2
REMARK    2  A    between atoms: C_6  and  C_7
REMARK    3  A    between atoms: N_10  and  C_11
REMARK    4  A    between atoms: C_15  and  C_16
REMARK    5  A    between atoms: C_16  and  C_17
REMARK    6  A    between atoms: C_16  and  S_18
REMARK    7  A    between atoms: S_18  and  C_19
REMARK    8  A    between atoms: N_23  and  C_24
REMARK                            x       y       z     vdW  Elec       q    Type
REMARK                         _______ _______ _______ _____ _____    ______ ____
ROOT
ATOM      1  C   UNL     1       4.078   4.940  18.721  0.00  0.00    +0.000 A 
ATOM      2  C   UNL     1       3.418   3.998  19.520  0.00  0.00    +0.000 A 
ATOM      3  C   UNL     1       2.363   4.373  20.358  0.00  0.00    +0.000 A 
ATOM      4  C   UNL     1       1.933   5.699  20.400  0.00  0.00    +0.000 A 
ATOM      5  C   UNL     1       2.555   6.666  19.604  0.00  0.00    +0.000 A 
ATOM      6  C   UNL     1       3.624   6.265  18.784  0.00  0.00    +0.000 A 
ENDROOT
BRANCH   1  10
ATOM      7  C   UNL     1       6.332   4.629  16.007  0.00  0.00    +0.000 C 
ATOM      8  N   UNL     1       7.300   4.685  16.898  0.00  0.00    +0.000 NA
ATOM      9  C   UNL     1       6.523   4.768  18.179  0.00  0.00    +0.000 C 
ATOM     10  N   UNL     1       5.109   4.601  17.848  0.00  0.00    +0.000 N 
ATOM     11  N   UNL     1       5.038   4.658  16.488  0.00  0.00    +0.000 N 
ATOM     12  H   UNL     1       4.389   4.018  16.036  0.00  0.00    +0.000 HD
BRANCH   7  18
ATOM     13  C   UNL     1       5.295   2.493  11.622  0.00  0.00    +0.000 C 
ATOM     14  C   UNL     1       6.110   3.460  12.428  0.00  0.00    +0.000 A 
ATOM     15  C   UNL     1       7.096   4.254  11.829  0.00  0.00    +0.000 A 
ATOM     16  C   UNL     1       7.832   5.166  12.590  0.00  0.00    +0.000 A 
ATOM     17  C   UNL     1       7.585   5.298  13.956  0.00  0.00    +0.000 A 
ATOM     18  C   UNL     1       6.608   4.501  14.563  0.00  0.00    +0.000 A 
ATOM     19  C   UNL     1       5.875   3.585  13.803  0.00  0.00    +0.000 A 
ENDBRANCH   7  18
ENDBRANCH   1  10
BRANCH   5  20
ATOM     20  C   UNL     1       2.080   8.107  19.617  0.00  0.00    +0.000 C 
ATOM     21  C   UNL     1       1.727   8.575  18.198  0.00  0.00    +0.000 C 
BRANCH  20  22
ATOM     22  S   UNL     1       0.595   8.338  20.673  0.00  0.00    +0.000 S 
BRANCH  22  23
ATOM     23  C   UNL     1       0.530  10.055  20.834  0.00  0.00    +0.000 A 
ATOM     24  N   UNL     1       1.239  10.808  21.646  0.00  0.00    +0.000 NA
ATOM     25  N   UNL     1       0.909  12.122  21.395  0.00  0.00    +0.000 NA
ATOM     26  C   UNL     1       0.015  12.130  20.431  0.00  0.00    +0.000 A 
ATOM     27  N   UNL     1      -0.264  10.849  20.057  0.00  0.00    +0.000 N 
ATOM     28  C   UNL     1      -1.211  10.452  19.050  0.00  0.00    +0.000 C 
ENDBRANCH  22  23
ENDBRANCH  20  22
ENDBRANCH   5  20
TORSDOF 5
ENDMDL
MODEL 4
REMARK VINA RESULT:      -8.6      1.839      2.383
REMARK  Name = 
REMARK  8 active torsions:
REMARK  status: ('A' for Active; 'I' for Inactive)
REMARK    1  A    between atoms: C_1  and  C_2
REMARK    2  A    between atoms: C_6  and  C_7
REMARK    3  A    between atoms: N_10  and  C_11
REMARK    4  A    between atoms: C_15  and  C_16
REMARK    5  A    between atoms: C_16  and  C_17
REMARK    6  A    between atoms: C_16  and  S_18
REMARK    7  A    between atoms: S_18  and  C_19
REMARK    8  A    between atoms: N_23  and  C_24
REMARK                            x       y       z     vdW  Elec       q    Type
REMARK                         _______ _______ _______ _____ _____    ______ ____
ROOT
ATOM      1  C   UNL     1       2.718   6.305  18.405  0.00  0.00    +0.000 A 
ATOM      2  C   UNL     1       1.930   5.149  18.384  0.00  0.00    +0.000 A 
ATOM      3  C   UNL     1       2.402   3.963  17.811  0.00  0.00    +0.000 A 
ATOM      4  C   UNL     1       3.683   3.904  17.265  0.00  0.00    +0.000 A 
ATOM      5  C   UNL     1       4.507   5.034  17.282  0.00  0.00    +0.000 A 
ATOM      6  C   UNL     1       4.002   6.218  17.847  0.00  0.00    +0.000 A 
ENDROOT
BRANCH   1  10
ATOM      7  C   UNL     1       1.051   9.288  19.341  0.00  0.00    +0.000 C 
ATOM      8  N   UNL     1       1.178   8.882  20.588  0.00  0.00    +0.000 NA
ATOM      9  C   UNL     1       1.940   7.602  20.409  0.00  0.00    +0.000 C 
ATOM     10  N   UNL     1       2.299   7.495  18.996  0.00  0.00    +0.000 N 
ATOM     11  N   UNL     1       1.609   8.486  18.364  0.00  0.00    +0.000 N 
ATOM     12  H   UNL     1       2.095   8.979  17.619  0.00  0.00    +0.000 HD
BRANCH   7  18
ATOM     13  C   UNL     1      -2.951  11.678  17.572  0.00  0.00    +0.000 C 
ATOM     14  C   UNL     1      -1.561  11.724  18.133  0.00  0.00    +0.000 A 
ATOM     15  C   UNL     1      -0.910  12.944  18.362  0.00  0.00    +0.000 A 
ATOM     16  C   UNL     1       0.376  12.971  18.906  0.00  0.00    +0.000 A 
ATOM     17  C   UNL     1       1.023  11.779  19.233  0.00  0.00    +0.000 A 
ATOM     18  C   UNL     1       0.383  10.558  18.998  0.00  0.00    +0.000 A 
ATOM     19  C   UNL     1      -0.902  10.530  18.449  0.00  0.00    +0.000 A 
ENDBRANCH   7  18
ENDBRANCH   1  10
BRANCH   5  20
ATOM     20  C   UNL     1       5.914   4.979  16.716  0.00  0.00    +0.000 C 
ATOM     21  C   UNL     1       6.935   4.698  17.828  0.00  0.00    +0.000 C 
BRANCH  20  22
ATOM     22  S   UNL     1       6.097   3.672  15.439  0.00  0.00    +0.000 S 
BRANCH  22  23
ATOM     23  C   UNL     1       6.940   4.508  14.186  0.00  0.00    +0.000 A 
ATOM     24  N   UNL     1       7.841   5.454  14.324  0.00  0.00    +0.000 NA
ATOM     25  N   UNL     1       8.295   5.790  13.067  0.00  0.00    +0.000 NA
ATOM     26  C   UNL     1       7.660   5.031  12.200  0.00  0.00    +0.000 A 
ATOM     27  N   UNL     1       6.787   4.218  12.860  0.00  0.00    +0.000 N 
ATOM     28  C   UNL     1       5.897   3.266  12.251  0.00  0.00    +0.000 C 
ENDBRANCH  22  23
ENDBRANCH  20  22
ENDBRANCH   5  20
TORSDOF 5
ENDMDL
MODEL 5
REMARK VINA RESULT:      -8.5      2.819      4.714
REMARK  Name = 
REMARK  8 active torsions:
REMARK  status: ('A' for Active; 'I' for Inactive)
REMARK    1  A    between atoms: C_1  and  C_2
REMARK    2  A    between atoms: C_6  and  C_7
REMARK    3  A    between atoms: N_10  and  C_11
REMARK    4  A    between atoms: C_15  and  C_16
REMARK    5  A    between atoms: C_16  and  C_17
REMARK    6  A    between atoms: C_16  and  S_18
REMARK    7  A    between atoms: S_18  and  C_19
REMARK    8  A    between atoms: N_23  and  C_24
REMARK                            x       y       z     vdW  Elec       q    Type
REMARK                         _______ _______ _______ _____ _____    ______ ____
ROOT
ATOM      1  C   UNL     1       1.243   9.157  20.346  0.00  0.00    +0.000 A 
ATOM      2  C   UNL     1       1.208   9.678  19.047  0.00  0.00    +0.000 A 
ATOM      3  C   UNL     1       1.728   8.959  17.965  0.00  0.00    +0.000 A 
ATOM      4  C   UNL     1       2.276   7.692  18.159  0.00  0.00    +0.000 A 
ATOM      5  C   UNL     1       2.315   7.130  19.439  0.00  0.00    +0.000 A 
ATOM      6  C   UNL     1       1.802   7.882  20.511  0.00  0.00    +0.000 A 
ENDROOT
BRANCH   1  10
ATOM      7  C   UNL     1      -0.727  11.046  22.603  0.00  0.00    +0.000 C 
ATOM      8  N   UNL     1      -0.530  10.077  23.473  0.00  0.00    +0.000 NA
ATOM      9  C   UNL     1       0.366   9.157  22.698  0.00  0.00    +0.000 C 
ATOM     10  N   UNL     1       0.706   9.826  21.443  0.00  0.00    +0.000 N 
ATOM     11  N   UNL     1      -0.103  10.921  21.377  0.00  0.00    +0.000 N 
ATOM     12  H   UNL     1       0.310  11.774  21.008  0.00  0.00    +0.000 HD
BRANCH   7  18
ATOM     13  C   UNL     1      -1.146  16.008  22.875  0.00  0.00    +0.000 C 
ATOM     14  C   UNL     1      -1.746  14.647  23.068  0.00  0.00    +0.000 A 
ATOM     15  C   UNL     1      -3.064  14.492  23.519  0.00  0.00    +0.000 A 
ATOM     16  C   UNL     1      -3.616  13.219  23.673  0.00  0.00    +0.000 A 
ATOM     17  C   UNL     1      -2.860  12.086  23.371  0.00  0.00    +0.000 A 
ATOM     18  C   UNL     1      -1.540  12.233  22.930  0.00  0.00    +0.000 A 
ATOM     19  C   UNL     1      -0.986  13.507  22.780  0.00  0.00    +0.000 A 
ENDBRANCH   7  18
ENDBRANCH   1  10
BRANCH   5  20
ATOM     20  C   UNL     1       2.883   5.741  19.662  0.00  0.00    +0.000 C 
ATOM     21  C   UNL     1       1.758   4.729  19.917  0.00  0.00    +0.000 C 
BRANCH  20  22
ATOM     22  S   UNL     1       3.858   5.151  18.221  0.00  0.00    +0.000 S 
BRANCH  22  23
ATOM     23  C   UNL     1       5.480   5.404  18.755  0.00  0.00    +0.000 A 
ATOM     24  N   UNL     1       6.059   4.893  19.819  0.00  0.00    +0.000 NA
ATOM     25  N   UNL     1       7.372   5.310  19.824  0.00  0.00    +0.000 NA
ATOM     26  C   UNL     1       7.555   6.057  18.756  0.00  0.00    +0.000 A 
ATOM     27  N   UNL     1       6.386   6.154  18.062  0.00  0.00    +0.000 N 
ATOM     28  C   UNL     1       6.184   6.907  16.853  0.00  0.00    +0.000 C 
ENDBRANCH  22  23
ENDBRANCH  20  22
ENDBRANCH   5  20
TORSDOF 5
ENDMDL
MODEL 6
REMARK VINA RESULT:      -8.5      1.733      2.215
REMARK  Name = 
REMARK  8 active torsions:
REMARK  status: ('A' for Active; 'I' for Inactive)
REMARK    1  A    between atoms: C_1  and  C_2
REMARK    2  A    between atoms: C_6  and  C_7
REMARK    3  A    between atoms: N_10  and  C_11
REMARK    4  A    between atoms: C_15  and  C_16
REMARK    5  A    between atoms: C_16  and  C_17
REMARK    6  A    between atoms: C_16  and  S_18
REMARK    7  A    between atoms: S_18  and  C_19
REMARK    8  A    between atoms: N_23  and  C_24
REMARK                            x       y       z     vdW  Elec       q    Type
REMARK                         _______ _______ _______ _____ _____    ______ ____
ROOT
ATOM      1  C   UNL     1       2.665   6.362  18.754  0.00  0.00    +0.000 A 
ATOM      2  C   UNL     1       1.970   5.159  18.922  0.00  0.00    +0.000 A 
ATOM      3  C   UNL     1       2.470   3.957  18.408  0.00  0.00    +0.000 A 
ATOM      4  C   UNL     1       3.688   3.933  17.731  0.00  0.00    +0.000 A 
ATOM      5  C   UNL     1       4.420   5.111  17.558  0.00  0.00    +0.000 A 
ATOM      6  C   UNL     1       3.887   6.307  18.069  0.00  0.00    +0.000 A 
ENDROOT
BRANCH   1  10
ATOM      7  C   UNL     1       0.995   9.404  19.464  0.00  0.00    +0.000 C 
ATOM      8  N   UNL     1       0.975   9.016  20.723  0.00  0.00    +0.000 NA
ATOM      9  C   UNL     1       1.714   7.712  20.645  0.00  0.00    +0.000 C 
ATOM     10  N   UNL     1       2.219   7.572  19.280  0.00  0.00    +0.000 N 
ATOM     11  N   UNL     1       1.631   8.572  18.564  0.00  0.00    +0.000 N 
ATOM     12  H   UNL     1       2.209   9.039  17.869  0.00  0.00    +0.000 HD
BRANCH   7  18
ATOM     13  C   UNL     1       1.321  14.368  19.117  0.00  0.00    +0.000 C 
ATOM     14  C   UNL     1       0.556  13.102  18.868  0.00  0.00    +0.000 A 
ATOM     15  C   UNL     1      -0.683  13.118  18.213  0.00  0.00    +0.000 A 
ATOM     16  C   UNL     1      -1.372  11.929  17.969  0.00  0.00    +0.000 A 
ATOM     17  C   UNL     1      -0.828  10.709  18.370  0.00  0.00    +0.000 A 
ATOM     18  C   UNL     1       0.404  10.686  19.034  0.00  0.00    +0.000 A 
ATOM     19  C   UNL     1       1.092  11.876  19.283  0.00  0.00    +0.000 A 
ENDBRANCH   7  18
ENDBRANCH   1  10
BRANCH   5  20
ATOM     20  C   UNL     1       5.762   5.096  16.848  0.00  0.00    +0.000 C 
ATOM     21  C   UNL     1       6.901   4.839  17.844  0.00  0.00    +0.000 C 
BRANCH  20  22
ATOM     22  S   UNL     1       5.844   3.799  15.550  0.00  0.00    +0.000 S 
BRANCH  22  23
ATOM     23  C   UNL     1       6.808   4.563  14.338  0.00  0.00    +0.000 A 
ATOM     24  N   UNL     1       7.745   5.466  14.516  0.00  0.00    +0.000 NA
ATOM     25  N   UNL     1       8.296   5.749  13.285  0.00  0.00    +0.000 NA
ATOM     26  C   UNL     1       7.681   5.001  12.394  0.00  0.00    +0.000 A 
ATOM     27  N   UNL     1       6.727   4.248  13.011  0.00  0.00    +0.000 N 
ATOM     28  C   UNL     1       5.832   3.326  12.365  0.00  0.00    +0.000 C 
ENDBRANCH  22  23
ENDBRANCH  20  22
ENDBRANCH   5  20
TORSDOF 5
ENDMDL
MODEL 7
REMARK VINA RESULT:      -8.4      4.027      9.720
REMARK  Name = 
REMARK  8 active torsions:
REMARK  status: ('A' for Active; 'I' for Inactive)
REMARK    1  A    between atoms: C_1  and  C_2
REMARK    2  A    between atoms: C_6  and  C_7
REMARK    3  A    between atoms: N_10  and  C_11
REMARK    4  A    between atoms: C_15  and  C_16
REMARK    5  A    between atoms: C_16  and  C_17
REMARK    6  A    between atoms: C_16  and  S_18
REMARK    7  A    between atoms: S_18  and  C_19
REMARK    8  A    between atoms: N_23  and  C_24
REMARK                            x       y       z     vdW  Elec       q    Type
REMARK                         _______ _______ _______ _____ _____    ______ ____
ROOT
ATOM      1  C   UNL     1       0.842   9.551  20.949  0.00  0.00    +0.000 A 
ATOM      2  C   UNL     1       0.903   8.959  22.216  0.00  0.00    +0.000 A 
ATOM      3  C   UNL     1       0.104   9.418  23.268  0.00  0.00    +0.000 A 
ATOM      4  C   UNL     1      -0.790  10.469  23.068  0.00  0.00    +0.000 A 
ATOM      5  C   UNL     1      -0.892  11.076  21.813  0.00  0.00    +0.000 A 
ATOM      6  C   UNL     1      -0.065  10.607  20.778  0.00  0.00    +0.000 A 
ENDROOT
BRANCH   1  10
ATOM      7  C   UNL     1       2.386   7.688  18.363  0.00  0.00    +0.000 C 
ATOM      8  N   UNL     1       2.120   8.706  17.569  0.00  0.00    +0.000 NA
ATOM      9  C   UNL     1       1.483   9.671  18.525  0.00  0.00    +0.000 C 
ATOM     10  N   UNL     1       1.595   9.102  19.867  0.00  0.00    +0.000 N 
ATOM     11  N   UNL     1       2.033   7.823  19.691  0.00  0.00    +0.000 N 
ATOM     12  H   UNL     1       2.713   7.476  20.362  0.00  0.00    +0.000 HD
BRANCH   7  18
ATOM     13  C   UNL     1       2.331   2.761  17.599  0.00  0.00    +0.000 C 
ATOM     14  C   UNL     1       3.046   4.076  17.504  0.00  0.00    +0.000 A 
ATOM     15  C   UNL     1       4.322   4.169  16.933  0.00  0.00    +0.000 A 
ATOM     16  C   UNL     1       4.965   5.404  16.831  0.00  0.00    +0.000 A 
ATOM     17  C   UNL     1       4.337   6.561  17.292  0.00  0.00    +0.000 A 
ATOM     18  C   UNL     1       3.066   6.474  17.872  0.00  0.00    +0.000 A 
ATOM     19  C   UNL     1       2.424   5.237  17.979  0.00  0.00    +0.000 A 
ENDBRANCH   7  18
ENDBRANCH   1  10
BRANCH   5  20
ATOM     20  C   UNL     1      -1.879  12.203  21.572  0.00  0.00    +0.000 C 
ATOM     21  C   UNL     1      -1.580  13.394  22.493  0.00  0.00    +0.000 C 
BRANCH  20  22
ATOM     22  S   UNL     1      -1.833  12.805  19.837  0.00  0.00    +0.000 S 
BRANCH  22  23
ATOM     23  C   UNL     1      -3.235  12.060  19.159  0.00  0.00    +0.000 A 
ATOM     24  N   UNL     1      -4.492  12.322  19.438  0.00  0.00    +0.000 NA
ATOM     25  N   UNL     1      -5.276  11.539  18.620  0.00  0.00    +0.000 NA
ATOM     26  C   UNL     1      -4.471  10.829  17.860  0.00  0.00    +0.000 A 
ATOM     27  N   UNL     1      -3.176  11.115  18.175  0.00  0.00    +0.000 N 
ATOM     28  C   UNL     1      -2.012  10.519  17.577  0.00  0.00    +0.000 C 
ENDBRANCH  22  23
ENDBRANCH  20  22
ENDBRANCH   5  20
TORSDOF 5
ENDMDL
MODEL 8
REMARK VINA RESULT:      -8.4      4.476     11.202
REMARK  Name = 
REMARK  8 active torsions:
REMARK  status: ('A' for Active; 'I' for Inactive)
REMARK    1  A    between atoms: C_1  and  C_2
REMARK    2  A    between atoms: C_6  and  C_7
REMARK    3  A    between atoms: N_10  and  C_11
REMARK    4  A    between atoms: C_15  and  C_16
REMARK    5  A    between atoms: C_16  and  C_17
REMARK    6  A    between atoms: C_16  and  S_18
REMARK    7  A    between atoms: S_18  and  C_19
REMARK    8  A    between atoms: N_23  and  C_24
REMARK                            x       y       z     vdW  Elec       q    Type
REMARK                         _______ _______ _______ _____ _____    ______ ____
ROOT
ATOM      1  C   UNL     1       0.723   9.710  20.927  0.00  0.00    +0.000 A 
ATOM      2  C   UNL     1       0.514   8.950  22.084  0.00  0.00    +0.000 A 
ATOM      3  C   UNL     1      -0.289   9.426  23.127  0.00  0.00    +0.000 A 
ATOM      4  C   UNL     1      -0.918  10.666  23.023  0.00  0.00    +0.000 A 
ATOM      5  C   UNL     1      -0.747  11.447  21.876  0.00  0.00    +0.000 A 
ATOM      6  C   UNL     1       0.079  10.954  20.851  0.00  0.00    +0.000 A 
ENDROOT
BRANCH   1  10
ATOM      7  C   UNL     1       2.303   7.837  18.370  0.00  0.00    +0.000 C 
ATOM      8  N   UNL     1       2.025   8.841  17.563  0.00  0.00    +0.000 NA
ATOM      9  C   UNL     1       1.370   9.808  18.504  0.00  0.00    +0.000 C 
ATOM     10  N   UNL     1       1.486   9.258  19.854  0.00  0.00    +0.000 N 
ATOM     11  N   UNL     1       1.943   7.984  19.695  0.00  0.00    +0.000 N 
ATOM     12  H   UNL     1       2.627   7.656  20.373  0.00  0.00    +0.000 HD
BRANCH   7  18
ATOM     13  C   UNL     1       2.326   2.900  17.670  0.00  0.00    +0.000 C 
ATOM     14  C   UNL     1       3.021   4.225  17.559  0.00  0.00    +0.000 A 
ATOM     15  C   UNL     1       4.297   4.330  16.992  0.00  0.00    +0.000 A 
ATOM     16  C   UNL     1       4.922   5.574  16.877  0.00  0.00    +0.000 A 
ATOM     17  C   UNL     1       4.275   6.727  17.320  0.00  0.00    +0.000 A 
ATOM     18  C   UNL     1       3.004   6.628  17.897  0.00  0.00    +0.000 A 
ATOM     19  C   UNL     1       2.380   5.383  18.017  0.00  0.00    +0.000 A 
ENDBRANCH   7  18
ENDBRANCH   1  10
BRANCH   5  20
ATOM     20  C   UNL     1      -1.447  12.787  21.737  0.00  0.00    +0.000 C 
ATOM     21  C   UNL     1      -2.794  12.624  21.018  0.00  0.00    +0.000 C 
BRANCH  20  22
ATOM     22  S   UNL     1      -1.767  13.574  23.365  0.00  0.00    +0.000 S 
BRANCH  22  23
ATOM     23  C   UNL     1      -3.435  13.209  23.620  0.00  0.00    +0.000 A 
ATOM     24  N   UNL     1      -3.946  12.088  24.077  0.00  0.00    +0.000 NA
ATOM     25  N   UNL     1      -5.310  12.258  24.179  0.00  0.00    +0.000 NA
ATOM     26  C   UNL     1      -5.587  13.483  23.788  0.00  0.00    +0.000 A 
ATOM     27  N   UNL     1      -4.437  14.113  23.414  0.00  0.00    +0.000 N 
ATOM     28  C   UNL     1      -4.339  15.455  22.905  0.00  0.00    +0.000 C 
ENDBRANCH  22  23
ENDBRANCH  20  22
ENDBRANCH   5  20
TORSDOF 5
ENDMDL
MODEL 9
REMARK VINA RESULT:      -8.4      5.046      7.645
REMARK  Name = 
REMARK  8 active torsions:
REMARK  status: ('A' for Active; 'I' for Inactive)
REMARK    1  A    between atoms: C_1  and  C_2
REMARK    2  A    between atoms: C_6  and  C_7
REMARK    3  A    between atoms: N_10  and  C_11
REMARK    4  A    between atoms: C_15  and  C_16
REMARK    5  A    between atoms: C_16  and  C_17
REMARK    6  A    between atoms: C_16  and  S_18
REMARK    7  A    between atoms: S_18  and  C_19
REMARK    8  A    between atoms: N_23  and  C_24
REMARK                            x       y       z     vdW  Elec       q    Type
REMARK                         _______ _______ _______ _____ _____    ______ ____
ROOT
ATOM      1  C   UNL     1       6.631   5.962  16.788  0.00  0.00    +0.000 A 
ATOM      2  C   UNL     1       6.875   5.360  15.548  0.00  0.00    +0.000 A 
ATOM      3  C   UNL     1       5.917   4.540  14.941  0.00  0.00    +0.000 A 
ATOM      4  C   UNL     1       4.685   4.321  15.556  0.00  0.00    +0.000 A 
ATOM      5  C   UNL     1       4.397   4.918  16.787  0.00  0.00    +0.000 A 
ATOM      6  C   UNL     1       5.383   5.723  17.383  0.00  0.00    +0.000 A 
ENDROOT
BRANCH   1  10
ATOM      7  C   UNL     1       8.341   8.677  18.288  0.00  0.00    +0.000 C 
ATOM      8  N   UNL     1       8.711   7.830  19.228  0.00  0.00    +0.000 NA
ATOM      9  C   UNL     1       8.107   6.550  18.731  0.00  0.00    +0.000 C 
ATOM     10  N   UNL     1       7.543   6.812  17.408  0.00  0.00    +0.000 N 
ATOM     11  N   UNL     1       7.593   8.165  17.247  0.00  0.00    +0.000 N 
ATOM     12  H   UNL     1       7.840   8.506  16.321  0.00  0.00    +0.000 HD
BRANCH   7  18
ATOM     13  C   UNL     1      11.331  12.251  20.061  0.00  0.00    +0.000 C 
ATOM     14  C   UNL     1      10.187  11.841  19.183  0.00  0.00    +0.000 A 
ATOM     15  C   UNL     1       9.518  12.773  18.378  0.00  0.00    +0.000 A 
ATOM     16  C   UNL     1       8.469  12.371  17.550  0.00  0.00    +0.000 A 
ATOM     17  C   UNL     1       8.081  11.032  17.511  0.00  0.00    +0.000 A 
ATOM     18  C   UNL     1       8.737  10.098  18.319  0.00  0.00    +0.000 A 
ATOM     19  C   UNL     1       9.784  10.500  19.152  0.00  0.00    +0.000 A 
ENDBRANCH   7  18
ENDBRANCH   1  10
BRANCH   5  20
ATOM     20  C   UNL     1       3.050   4.713  17.455  0.00  0.00    +0.000 C 
ATOM     21  C   UNL     1       2.578   3.261  17.290  0.00  0.00    +0.000 C 
BRANCH  20  22
ATOM     22  S   UNL     1       3.104   5.088  19.253  0.00  0.00    +0.000 S 
BRANCH  22  23
ATOM     23  C   UNL     1       3.719   3.614  19.910  0.00  0.00    +0.000 A 
ATOM     24  N   UNL     1       4.896   3.073  19.691  0.00  0.00    +0.000 NA
ATOM     25  N   UNL     1       4.987   1.937  20.466  0.00  0.00    +0.000 NA
ATOM     26  C   UNL     1       3.863   1.827  21.141  0.00  0.00    +0.000 A 
ATOM     27  N   UNL     1       3.030   2.854  20.811  0.00  0.00    +0.000 N 
ATOM     28  C   UNL     1       1.702   3.061  21.323  0.00  0.00    +0.000 C 
ENDBRANCH  22  23
ENDBRANCH  20  22
ENDBRANCH   5  20
TORSDOF 5
ENDMDL
