MODEL 1
REMARK VINA RESULT:      -7.9      0.000      0.000
REMARK  Name = 
REMARK  6 active torsions:
REMARK  status: ('A' for Active; 'I' for Inactive)
REMARK    1  A    between atoms: C_1  and  N_2
REMARK    2  A    between atoms: C_6  and  C_7
REMARK    3  A    between atoms: C_7  and  C_8
REMARK    4  A    between atoms: C_8  and  C_9
REMARK    5  A    between atoms: C_13  and  N_14
REMARK    6  A    between atoms: C_17  and  C_18
REMARK                            x       y       z     vdW  Elec       q    Type
REMARK                         _______ _______ _______ _____ _____    ______ ____
ROOT
ATOM      1  C   UNL     1      -1.638  11.962  20.365  0.00  0.00    +0.000 A 
ATOM      2  C   UNL     1      -2.421  12.016  19.196  0.00  0.00    +0.000 A 
ATOM      3  C   UNL     1      -2.175  11.174  18.104  0.00  0.00    +0.000 A 
ATOM      4  C   UNL     1      -1.106  10.280  18.133  0.00  0.00    +0.000 A 
ATOM      5  C   UNL     1      -0.325  10.190  19.283  0.00  0.00    +0.000 A 
ATOM      6  C   UNL     1      -0.629  10.987  20.388  0.00  0.00    +0.000 A 
ENDROOT
BRANCH   5   7
ATOM      7  N   UNL     1       0.870   9.426  19.383  0.00  0.00    +0.000 N 
ATOM      8  C   UNL     1       1.229   8.902  20.679  0.00  0.00    +0.000 C 
ATOM      9  C   UNL     1       1.747   7.498  20.628  0.00  0.00    +0.000 C 
ATOM     10  C   UNL     1       2.264   6.762  19.622  0.00  0.00    +0.000 C 
ATOM     11  C   UNL     1       2.501   7.235  18.272  0.00  0.00    +0.000 C 
ATOM     12  C   UNL     1       2.385   8.470  17.770  0.00  0.00    +0.000 C 
ATOM     13  C   UNL     1       1.842   9.682  18.436  0.00  0.00    +0.000 C 
ATOM     14  O   UNL     1       2.102  10.783  17.953  0.00  0.00    +0.000 OA
BRANCH  10  15
ATOM     15  C   UNL     1       2.702   5.333  19.910  0.00  0.00    +0.000 C 
ATOM     16  F   UNL     1       2.321   4.873  21.129  0.00  0.00    +0.000 F 
ATOM     17  F   UNL     1       2.185   4.471  18.993  0.00  0.00    +0.000 F 
ATOM     18  F   UNL     1       4.053   5.203  19.844  0.00  0.00    +0.000 F 
ENDBRANCH  10  15
ENDBRANCH   5   7
BRANCH   1  19
ATOM     19  C   UNL     1      -1.790  12.973  21.596  0.00  0.00    +0.000 C 
ATOM     20  C   UNL     1      -1.678  12.379  23.024  0.00  0.00    +0.000 C 
ATOM     21  O   UNL     1      -0.573  13.237  23.366  0.00  0.00    +0.000 OA
ATOM     22  C   UNL     1      -0.518  13.761  22.022  0.00  0.00    +0.000 C 
BRANCH  19  23
ATOM     23  C   UNL     1      -3.079  13.814  21.436  0.00  0.00    +0.000 C 
BRANCH  23  29
ATOM     24  C   UNL     1      -4.114  15.021  24.178  0.00  0.00    +0.000 C 
ATOM     25  N   UNL     1      -4.695  13.943  23.425  0.00  0.00    +0.000 N 
ATOM     26  C   UNL     1      -5.855  13.306  23.745  0.00  0.00    +0.000 A 
ATOM     27  N   UNL     1      -6.081  12.348  22.880  0.00  0.00    +0.000 NA
ATOM     28  N   UNL     1      -5.071  12.383  21.949  0.00  0.00    +0.000 NA
ATOM     29  C   UNL     1      -4.244  13.363  22.262  0.00  0.00    +0.000 A 
ENDBRANCH  23  29
ENDBRANCH  19  23
ENDBRANCH   1  19
TORSDOF 5
ENDMDL
MODEL 2
REMARK VINA RESULT:      -7.8      4.149      6.658
REMARK  Name = 
REMARK  6 active torsions:
REMARK  status: ('A' for Active; 'I' for Inactive)
REMARK    1  A    between atoms: C_1  and  N_2
REMARK    2  A    between atoms: C_6  and  C_7
REMARK    3  A    between atoms: C_7  and  C_8
REMARK    4  A    between atoms: C_8  and  C_9
REMARK    5  A    between atoms: C_13  and  N_14
REMARK    6  A    between atoms: C_17  and  C_18
REMARK                            x       y       z     vdW  Elec       q    Type
REMARK                         _______ _______ _______ _____ _____    ______ ____
ROOT
ATOM      1  C   UNL     1       2.147   7.216  19.627  0.00  0.00    +0.000 A 
ATOM      2  C   UNL     1       1.552   6.427  20.630  0.00  0.00    +0.000 A 
ATOM      3  C   UNL     1       2.045   5.158  20.959  0.00  0.00    +0.000 A 
ATOM      4  C   UNL     1       3.125   4.621  20.261  0.00  0.00    +0.000 A 
ATOM      5  C   UNL     1       3.748   5.385  19.278  0.00  0.00    +0.000 A 
ATOM      6  C   UNL     1       3.287   6.677  19.011  0.00  0.00    +0.000 A 
ENDROOT
BRANCH   5   7
ATOM      7  N   UNL     1       4.760   4.900  18.405  0.00  0.00    +0.000 N 
ATOM      8  C   UNL     1       4.488   3.694  17.660  0.00  0.00    +0.000 C 
ATOM      9  C   UNL     1       4.960   3.755  16.241  0.00  0.00    +0.000 C 
ATOM     10  C   UNL     1       5.869   4.538  15.624  0.00  0.00    +0.000 C 
ATOM     11  C   UNL     1       6.697   5.535  16.275  0.00  0.00    +0.000 C 
ATOM     12  C   UNL     1       6.833   5.811  17.577  0.00  0.00    +0.000 C 
ATOM     13  C   UNL     1       6.058   5.255  18.717  0.00  0.00    +0.000 C 
ATOM     14  O   UNL     1       6.520   5.370  19.852  0.00  0.00    +0.000 OA
BRANCH  10  15
ATOM     15  C   UNL     1       6.116   4.341  14.135  0.00  0.00    +0.000 C 
ATOM     16  F   UNL     1       6.547   3.097  13.807  0.00  0.00    +0.000 F 
ATOM     17  F   UNL     1       4.979   4.557  13.420  0.00  0.00    +0.000 F 
ATOM     18  F   UNL     1       7.041   5.216  13.663  0.00  0.00    +0.000 F 
ENDBRANCH  10  15
ENDBRANCH   5   7
BRANCH   1  19
ATOM     19  C   UNL     1       1.563   8.618  19.123  0.00  0.00    +0.000 C 
ATOM     20  C   UNL     1       2.582   9.681  18.637  0.00  0.00    +0.000 C 
ATOM     21  O   UNL     1       1.980   9.759  17.331  0.00  0.00    +0.000 OA
ATOM     22  C   UNL     1       1.068   8.685  17.649  0.00  0.00    +0.000 C 
BRANCH  19  23
ATOM     23  C   UNL     1       0.601   9.205  20.183  0.00  0.00    +0.000 C 
BRANCH  23  29
ATOM     24  C   UNL     1      -0.899  11.458  18.533  0.00  0.00    +0.000 C 
ATOM     25  N   UNL     1      -0.027  11.638  19.661  0.00  0.00    +0.000 N 
ATOM     26  C   UNL     1       0.238  12.832  20.259  0.00  0.00    +0.000 A 
ATOM     27  N   UNL     1       1.101  12.655  21.228  0.00  0.00    +0.000 NA
ATOM     28  N   UNL     1       1.378  11.311  21.296  0.00  0.00    +0.000 NA
ATOM     29  C   UNL     1       0.678  10.690  20.365  0.00  0.00    +0.000 A 
ENDBRANCH  23  29
ENDBRANCH  19  23
ENDBRANCH   1  19
TORSDOF 5
ENDMDL
MODEL 3
REMARK VINA RESULT:      -7.7      4.826     10.152
REMARK  Name = 
REMARK  6 active torsions:
REMARK  status: ('A' for Active; 'I' for Inactive)
REMARK    1  A    between atoms: C_1  and  N_2
REMARK    2  A    between atoms: C_6  and  C_7
REMARK    3  A    between atoms: C_7  and  C_8
REMARK    4  A    between atoms: C_8  and  C_9
REMARK    5  A    between atoms: C_13  and  N_14
REMARK    6  A    between atoms: C_17  and  C_18
REMARK                            x       y       z     vdW  Elec       q    Type
REMARK                         _______ _______ _______ _____ _____    ______ ____
ROOT
ATOM      1  C   UNL     1       3.710   5.568  19.215  0.00  0.00    +0.000 A 
ATOM      2  C   UNL     1       3.182   4.608  20.100  0.00  0.00    +0.000 A 
ATOM      3  C   UNL     1       2.020   4.849  20.843  0.00  0.00    +0.000 A 
ATOM      4  C   UNL     1       1.374   6.081  20.755  0.00  0.00    +0.000 A 
ATOM      5  C   UNL     1       1.860   7.044  19.874  0.00  0.00    +0.000 A 
ATOM      6  C   UNL     1       2.979   6.759  19.089  0.00  0.00    +0.000 A 
ENDROOT
BRANCH   5   7
ATOM      7  N   UNL     1       1.377   8.379  19.799  0.00  0.00    +0.000 N 
ATOM      8  C   UNL     1       1.678   9.140  18.610  0.00  0.00    +0.000 C 
ATOM      9  C   UNL     1       0.523   9.958  18.122  0.00  0.00    +0.000 C 
ATOM     10  C   UNL     1      -0.597  10.395  18.734  0.00  0.00    +0.000 C 
ATOM     11  C   UNL     1      -0.919  10.198  20.134  0.00  0.00    +0.000 C 
ATOM     12  C   UNL     1      -0.173   9.675  21.114  0.00  0.00    +0.000 C 
ATOM     13  C   UNL     1       1.155   9.019  21.003  0.00  0.00    +0.000 C 
ATOM     14  O   UNL     1       1.831   8.887  22.023  0.00  0.00    +0.000 OA
BRANCH  10  15
ATOM     15  C   UNL     1      -1.595  11.221  17.934  0.00  0.00    +0.000 C 
ATOM     16  F   UNL     1      -1.932  10.674  16.739  0.00  0.00    +0.000 F 
ATOM     17  F   UNL     1      -2.755  11.386  18.626  0.00  0.00    +0.000 F 
ATOM     18  F   UNL     1      -1.118  12.467  17.677  0.00  0.00    +0.000 F 
ENDBRANCH  10  15
ENDBRANCH   5   7
BRANCH   1  19
ATOM     19  C   UNL     1       5.094   5.402  18.429  0.00  0.00    +0.000 C 
ATOM     20  C   UNL     1       6.397   5.739  19.200  0.00  0.00    +0.000 C 
ATOM     21  O   UNL     1       6.935   4.418  19.002  0.00  0.00    +0.000 OA
ATOM     22  C   UNL     1       5.710   3.973  18.381  0.00  0.00    +0.000 C 
BRANCH  19  23
ATOM     23  C   UNL     1       5.030   6.152  17.077  0.00  0.00    +0.000 C 
BRANCH  23  29
ATOM     24  C   UNL     1       4.571   3.983  14.811  0.00  0.00    +0.000 C 
ATOM     25  N   UNL     1       5.750   4.773  15.037  0.00  0.00    +0.000 N 
ATOM     26  C   UNL     1       6.857   4.764  14.244  0.00  0.00    +0.000 A 
ATOM     27  N   UNL     1       7.764   5.562  14.749  0.00  0.00    +0.000 NA
ATOM     28  N   UNL     1       7.228   6.139  15.875  0.00  0.00    +0.000 NA
ATOM     29  C   UNL     1       6.001   5.682  16.038  0.00  0.00    +0.000 A 
ENDBRANCH  23  29
ENDBRANCH  19  23
ENDBRANCH   1  19
TORSDOF 5
ENDMDL
MODEL 4
REMARK VINA RESULT:      -7.6      3.946      5.499
REMARK  Name = 
REMARK  6 active torsions:
REMARK  status: ('A' for Active; 'I' for Inactive)
REMARK    1  A    between atoms: C_1  and  N_2
REMARK    2  A    between atoms: C_6  and  C_7
REMARK    3  A    between atoms: C_7  and  C_8
REMARK    4  A    between atoms: C_8  and  C_9
REMARK    5  A    between atoms: C_13  and  N_14
REMARK    6  A    between atoms: C_17  and  C_18
REMARK                            x       y       z     vdW  Elec       q    Type
REMARK                         _______ _______ _______ _____ _____    ______ ____
ROOT
ATOM      1  C   UNL     1       1.023   9.085  19.686  0.00  0.00    +0.000 A 
ATOM      2  C   UNL     1       0.771   8.524  20.953  0.00  0.00    +0.000 A 
ATOM      3  C   UNL     1       1.329   7.300  21.341  0.00  0.00    +0.000 A 
ATOM      4  C   UNL     1       2.123   6.576  20.453  0.00  0.00    +0.000 A 
ATOM      5  C   UNL     1       2.406   7.113  19.200  0.00  0.00    +0.000 A 
ATOM      6  C   UNL     1       1.899   8.368  18.856  0.00  0.00    +0.000 A 
ENDROOT
BRANCH   5   7
ATOM      7  N   UNL     1       3.080   6.415  18.162  0.00  0.00    +0.000 N 
ATOM      8  C   UNL     1       3.845   7.188  17.213  0.00  0.00    +0.000 C 
ATOM      9  C   UNL     1       5.160   6.565  16.862  0.00  0.00    +0.000 C 
ATOM     10  C   UNL     1       5.618   5.301  16.971  0.00  0.00    +0.000 C 
ATOM     11  C   UNL     1       4.846   4.166  17.439  0.00  0.00    +0.000 C 
ATOM     12  C   UNL     1       3.544   4.087  17.737  0.00  0.00    +0.000 C 
ATOM     13  C   UNL     1       2.550   5.190  17.803  0.00  0.00    +0.000 C 
ATOM     14  O   UNL     1       1.354   4.905  17.776  0.00  0.00    +0.000 OA
BRANCH  10  15
ATOM     15  C   UNL     1       7.038   4.994  16.516  0.00  0.00    +0.000 C 
ATOM     16  F   UNL     1       7.106   4.323  15.338  0.00  0.00    +0.000 F 
ATOM     17  F   UNL     1       7.755   6.138  16.351  0.00  0.00    +0.000 F 
ATOM     18  F   UNL     1       7.706   4.248  17.434  0.00  0.00    +0.000 F 
ENDBRANCH  10  15
ENDBRANCH   5   7
BRANCH   1  19
ATOM     19  C   UNL     1       0.325  10.416  19.137  0.00  0.00    +0.000 C 
ATOM     20  C   UNL     1      -0.588  10.281  17.891  0.00  0.00    +0.000 C 
ATOM     21  O   UNL     1      -1.732  10.809  18.589  0.00  0.00    +0.000 OA
ATOM     22  C   UNL     1      -0.997  10.855  19.831  0.00  0.00    +0.000 C 
BRANCH  19  23
ATOM     23  C   UNL     1       1.383  11.528  18.941  0.00  0.00    +0.000 C 
BRANCH  23  29
ATOM     24  C   UNL     1      -0.125  14.303  18.665  0.00  0.00    +0.000 C 
ATOM     25  N   UNL     1       0.617  13.822  19.799  0.00  0.00    +0.000 N 
ATOM     26  C   UNL     1       0.726  14.472  20.990  0.00  0.00    +0.000 A 
ATOM     27  N   UNL     1       1.503  13.787  21.792  0.00  0.00    +0.000 NA
ATOM     28  N   UNL     1       1.878  12.643  21.130  0.00  0.00    +0.000 NA
ATOM     29  C   UNL     1       1.323  12.650  19.932  0.00  0.00    +0.000 A 
ENDBRANCH  23  29
ENDBRANCH  19  23
ENDBRANCH   1  19
TORSDOF 5
ENDMDL
MODEL 5
REMARK VINA RESULT:      -7.6      2.247      3.291
REMARK  Name = 
REMARK  6 active torsions:
REMARK  status: ('A' for Active; 'I' for Inactive)
REMARK    1  A    between atoms: C_1  and  N_2
REMARK    2  A    between atoms: C_6  and  C_7
REMARK    3  A    between atoms: C_7  and  C_8
REMARK    4  A    between atoms: C_8  and  C_9
REMARK    5  A    between atoms: C_13  and  N_14
REMARK    6  A    between atoms: C_17  and  C_18
REMARK                            x       y       z     vdW  Elec       q    Type
REMARK                         _______ _______ _______ _____ _____    ______ ____
ROOT
ATOM      1  C   UNL     1      -1.870  11.847  20.421  0.00  0.00    +0.000 A 
ATOM      2  C   UNL     1      -2.554  12.005  19.200  0.00  0.00    +0.000 A 
ATOM      3  C   UNL     1      -2.182  11.300  18.049  0.00  0.00    +0.000 A 
ATOM      4  C   UNL     1      -1.081  10.445  18.074  0.00  0.00    +0.000 A 
ATOM      5  C   UNL     1      -0.396  10.252  19.271  0.00  0.00    +0.000 A 
ATOM      6  C   UNL     1      -0.825  10.910  20.426  0.00  0.00    +0.000 A 
ENDROOT
BRANCH   5   7
ATOM      7  N   UNL     1       0.818   9.523  19.392  0.00  0.00    +0.000 N 
ATOM      8  C   UNL     1       1.143   8.961  20.681  0.00  0.00    +0.000 C 
ATOM      9  C   UNL     1       1.708   7.577  20.600  0.00  0.00    +0.000 C 
ATOM     10  C   UNL     1       2.288   6.897  19.590  0.00  0.00    +0.000 C 
ATOM     11  C   UNL     1       2.563   7.428  18.269  0.00  0.00    +0.000 C 
ATOM     12  C   UNL     1       2.427   8.677  17.808  0.00  0.00    +0.000 C 
ATOM     13  C   UNL     1       1.818   9.846  18.496  0.00  0.00    +0.000 C 
ATOM     14  O   UNL     1       2.062  10.972  18.065  0.00  0.00    +0.000 OA
BRANCH  10  15
ATOM     15  C   UNL     1       2.761   5.472  19.842  0.00  0.00    +0.000 C 
ATOM     16  F   UNL     1       4.110   5.327  19.823  0.00  0.00    +0.000 F 
ATOM     17  F   UNL     1       2.342   5.028  21.058  0.00  0.00    +0.000 F 
ATOM     18  F   UNL     1       2.259   4.609  18.921  0.00  0.00    +0.000 F 
ENDBRANCH  10  15
ENDBRANCH   5   7
BRANCH   1  19
ATOM     19  C   UNL     1      -2.168  12.707  21.736  0.00  0.00    +0.000 C 
ATOM     20  C   UNL     1      -3.619  12.694  22.283  0.00  0.00    +0.000 C 
ATOM     21  O   UNL     1      -3.202  12.182  23.564  0.00  0.00    +0.000 OA
ATOM     22  C   UNL     1      -1.841  12.040  23.103  0.00  0.00    +0.000 C 
BRANCH  19  23
ATOM     23  C   UNL     1      -1.649  14.154  21.553  0.00  0.00    +0.000 C 
BRANCH  23  29
ATOM     24  C   UNL     1       0.036  14.718  18.927  0.00  0.00    +0.000 C 
ATOM     25  N   UNL     1       0.532  14.584  20.270  0.00  0.00    +0.000 N 
ATOM     26  C   UNL     1       1.830  14.756  20.642  0.00  0.00    +0.000 A 
ATOM     27  N   UNL     1       1.953  14.521  21.925  0.00  0.00    +0.000 NA
ATOM     28  N   UNL     1       0.703  14.228  22.414  0.00  0.00    +0.000 NA
ATOM     29  C   UNL     1      -0.163  14.289  21.420  0.00  0.00    +0.000 A 
ENDBRANCH  23  29
ENDBRANCH  19  23
ENDBRANCH   1  19
TORSDOF 5
ENDMDL
MODEL 6
REMARK VINA RESULT:      -7.6      4.061      6.582
REMARK  Name = 
REMARK  6 active torsions:
REMARK  status: ('A' for Active; 'I' for Inactive)
REMARK    1  A    between atoms: C_1  and  N_2
REMARK    2  A    between atoms: C_6  and  C_7
REMARK    3  A    between atoms: C_7  and  C_8
REMARK    4  A    between atoms: C_8  and  C_9
REMARK    5  A    between atoms: C_13  and  N_14
REMARK    6  A    between atoms: C_17  and  C_18
REMARK                            x       y       z     vdW  Elec       q    Type
REMARK                         _______ _______ _______ _____ _____    ______ ____
ROOT
ATOM      1  C   UNL     1       2.189   7.189  19.604  0.00  0.00    +0.000 A 
ATOM      2  C   UNL     1       1.558   6.392  20.579  0.00  0.00    +0.000 A 
ATOM      3  C   UNL     1       2.014   5.105  20.887  0.00  0.00    +0.000 A 
ATOM      4  C   UNL     1       3.092   4.556  20.194  0.00  0.00    +0.000 A 
ATOM      5  C   UNL     1       3.749   5.327  19.238  0.00  0.00    +0.000 A 
ATOM      6  C   UNL     1       3.325   6.635  18.994  0.00  0.00    +0.000 A 
ENDROOT
BRANCH   5   7
ATOM      7  N   UNL     1       4.763   4.836  18.371  0.00  0.00    +0.000 N 
ATOM      8  C   UNL     1       4.480   3.645  17.607  0.00  0.00    +0.000 C 
ATOM      9  C   UNL     1       4.969   3.716  16.194  0.00  0.00    +0.000 C 
ATOM     10  C   UNL     1       5.899   4.492  15.598  0.00  0.00    +0.000 C 
ATOM     11  C   UNL     1       6.736   5.466  16.272  0.00  0.00    +0.000 C 
ATOM     12  C   UNL     1       6.861   5.721  17.579  0.00  0.00    +0.000 C 
ATOM     13  C   UNL     1       6.064   5.164  18.702  0.00  0.00    +0.000 C 
ATOM     14  O   UNL     1       6.513   5.256  19.844  0.00  0.00    +0.000 OA
BRANCH  10  15
ATOM     15  C   UNL     1       6.160   4.311  14.109  0.00  0.00    +0.000 C 
ATOM     16  F   UNL     1       6.632   3.082  13.777  0.00  0.00    +0.000 F 
ATOM     17  F   UNL     1       5.020   4.495  13.389  0.00  0.00    +0.000 F 
ATOM     18  F   UNL     1       7.060   5.217  13.647  0.00  0.00    +0.000 F 
ENDBRANCH  10  15
ENDBRANCH   5   7
BRANCH   1  19
ATOM     19  C   UNL     1       1.649   8.616  19.122  0.00  0.00    +0.000 C 
ATOM     20  C   UNL     1       2.672   9.584  18.473  0.00  0.00    +0.000 C 
ATOM     21  O   UNL     1       1.916   9.669  17.250  0.00  0.00    +0.000 OA
ATOM     22  C   UNL     1       0.977   8.678  17.720  0.00  0.00    +0.000 C 
BRANCH  19  23
ATOM     23  C   UNL     1       0.873   9.305  20.270  0.00  0.00    +0.000 C 
BRANCH  23  29
ATOM     24  C   UNL     1       1.394  12.427  20.452  0.00  0.00    +0.000 C 
ATOM     25  N   UNL     1       0.244  11.765  19.898  0.00  0.00    +0.000 N 
ATOM     26  C   UNL     1      -0.795  12.393  19.281  0.00  0.00    +0.000 A 
ATOM     27  N   UNL     1      -1.695  11.509  18.930  0.00  0.00    +0.000 NA
ATOM     28  N   UNL     1      -1.220  10.270  19.286  0.00  0.00    +0.000 NA
ATOM     29  C   UNL     1      -0.036  10.419  19.850  0.00  0.00    +0.000 A 
ENDBRANCH  23  29
ENDBRANCH  19  23
ENDBRANCH   1  19
TORSDOF 5
ENDMDL
MODEL 7
REMARK VINA RESULT:      -7.6      3.283      5.307
REMARK  Name = 
REMARK  6 active torsions:
REMARK  status: ('A' for Active; 'I' for Inactive)
REMARK    1  A    between atoms: C_1  and  N_2
REMARK    2  A    between atoms: C_6  and  C_7
REMARK    3  A    between atoms: C_7  and  C_8
REMARK    4  A    between atoms: C_8  and  C_9
REMARK    5  A    between atoms: C_13  and  N_14
REMARK    6  A    between atoms: C_17  and  C_18
REMARK                            x       y       z     vdW  Elec       q    Type
REMARK                         _______ _______ _______ _____ _____    ______ ____
ROOT
ATOM      1  C   UNL     1       1.291   8.510  20.006  0.00  0.00    +0.000 A 
ATOM      2  C   UNL     1       0.975   7.762  21.157  0.00  0.00    +0.000 A 
ATOM      3  C   UNL     1       1.402   6.438  21.317  0.00  0.00    +0.000 A 
ATOM      4  C   UNL     1       2.123   5.806  20.306  0.00  0.00    +0.000 A 
ATOM      5  C   UNL     1       2.469   6.525  19.164  0.00  0.00    +0.000 A 
ATOM      6  C   UNL     1       2.095   7.866  19.053  0.00  0.00    +0.000 A 
ENDROOT
BRANCH   5   7
ATOM      7  N   UNL     1       3.075   5.956  18.011  0.00  0.00    +0.000 N 
ATOM      8  C   UNL     1       3.823   6.831  17.140  0.00  0.00    +0.000 C 
ATOM      9  C   UNL     1       5.101   6.227  16.648  0.00  0.00    +0.000 C 
ATOM     10  C   UNL     1       5.522   4.948  16.565  0.00  0.00    +0.000 C 
ATOM     11  C   UNL     1       4.734   3.781  16.911  0.00  0.00    +0.000 C 
ATOM     12  C   UNL     1       3.445   3.696  17.257  0.00  0.00    +0.000 C 
ATOM     13  C   UNL     1       2.491   4.806  17.517  0.00  0.00    +0.000 C 
ATOM     14  O   UNL     1       1.286   4.558  17.507  0.00  0.00    +0.000 OA
BRANCH  10  15
ATOM     15  C   UNL     1       6.911   4.668  16.006  0.00  0.00    +0.000 C 
ATOM     16  F   UNL     1       7.539   5.766  15.515  0.00  0.00    +0.000 F 
ATOM     17  F   UNL     1       7.726   4.153  16.965  0.00  0.00    +0.000 F 
ATOM     18  F   UNL     1       6.869   3.755  15.002  0.00  0.00    +0.000 F 
ENDBRANCH  10  15
ENDBRANCH   5   7
BRANCH   1  19
ATOM     19  C   UNL     1       0.737   9.981  19.710  0.00  0.00    +0.000 C 
ATOM     20  C   UNL     1       0.965  10.556  18.288  0.00  0.00    +0.000 C 
ATOM     21  O   UNL     1      -0.446  10.740  18.064  0.00  0.00    +0.000 OA
ATOM     22  C   UNL     1      -0.764  10.103  19.320  0.00  0.00    +0.000 C 
BRANCH  19  23
ATOM     23  C   UNL     1       1.231  10.963  20.799  0.00  0.00    +0.000 C 
BRANCH  23  29
ATOM     24  C   UNL     1      -0.463  13.641  20.697  0.00  0.00    +0.000 C 
ATOM     25  N   UNL     1      -0.569  12.578  21.658  0.00  0.00    +0.000 N 
ATOM     26  C   UNL     1      -1.491  12.522  22.660  0.00  0.00    +0.000 A 
ATOM     27  N   UNL     1      -1.289  11.447  23.380  0.00  0.00    +0.000 NA
ATOM     28  N   UNL     1      -0.239  10.762  22.818  0.00  0.00    +0.000 NA
ATOM     29  C   UNL     1       0.182  11.431  21.762  0.00  0.00    +0.000 A 
ENDBRANCH  23  29
ENDBRANCH  19  23
ENDBRANCH   1  19
TORSDOF 5
ENDMDL
MODEL 8
REMARK VINA RESULT:      -7.5      0.999      1.279
REMARK  Name = 
REMARK  6 active torsions:
REMARK  status: ('A' for Active; 'I' for Inactive)
REMARK    1  A    between atoms: C_1  and  N_2
REMARK    2  A    between atoms: C_6  and  C_7
REMARK    3  A    between atoms: C_7  and  C_8
REMARK    4  A    between atoms: C_8  and  C_9
REMARK    5  A    between atoms: C_13  and  N_14
REMARK    6  A    between atoms: C_17  and  C_18
REMARK                            x       y       z     vdW  Elec       q    Type
REMARK                         _______ _______ _______ _____ _____    ______ ____
ROOT
ATOM      1  C   UNL     1      -1.472  12.313  19.924  0.00  0.00    +0.000 A 
ATOM      2  C   UNL     1      -2.421  12.084  18.908  0.00  0.00    +0.000 A 
ATOM      3  C   UNL     1      -2.346  10.968  18.067  0.00  0.00    +0.000 A 
ATOM      4  C   UNL     1      -1.291  10.065  18.188  0.00  0.00    +0.000 A 
ATOM      5  C   UNL     1      -0.348  10.253  19.196  0.00  0.00    +0.000 A 
ATOM      6  C   UNL     1      -0.477  11.333  20.071  0.00  0.00    +0.000 A 
ENDROOT
BRANCH   5   7
ATOM      7  N   UNL     1       0.843   9.489  19.332  0.00  0.00    +0.000 N 
ATOM      8  C   UNL     1       1.176   8.983  20.642  0.00  0.00    +0.000 C 
ATOM      9  C   UNL     1       1.692   7.579  20.623  0.00  0.00    +0.000 C 
ATOM     10  C   UNL     1       2.228   6.827  19.639  0.00  0.00    +0.000 C 
ATOM     11  C   UNL     1       2.493   7.279  18.287  0.00  0.00    +0.000 C 
ATOM     12  C   UNL     1       2.390   8.507  17.764  0.00  0.00    +0.000 C 
ATOM     13  C   UNL     1       1.835   9.730  18.401  0.00  0.00    +0.000 C 
ATOM     14  O   UNL     1       2.107  10.823  17.907  0.00  0.00    +0.000 OA
BRANCH  10  15
ATOM     15  C   UNL     1       2.658   5.401  19.957  0.00  0.00    +0.000 C 
ATOM     16  F   UNL     1       4.000   5.208  19.914  0.00  0.00    +0.000 F 
ATOM     17  F   UNL     1       2.254   5.038  21.204  0.00  0.00    +0.000 F 
ATOM     18  F   UNL     1       2.103   4.509  19.096  0.00  0.00    +0.000 F 
ENDBRANCH  10  15
ENDBRANCH   5   7
BRANCH   1  19
ATOM     19  C   UNL     1      -1.432  13.625  20.838  0.00  0.00    +0.000 C 
ATOM     20  C   UNL     1      -0.446  13.630  22.035  0.00  0.00    +0.000 C 
ATOM     21  O   UNL     1       0.241  14.800  21.550  0.00  0.00    +0.000 OA
ATOM     22  C   UNL     1      -0.546  14.804  20.340  0.00  0.00    +0.000 C 
BRANCH  19  23
ATOM     23  C   UNL     1      -2.864  14.003  21.287  0.00  0.00    +0.000 C 
BRANCH  23  29
ATOM     24  C   UNL     1      -3.187  15.515  24.054  0.00  0.00    +0.000 C 
ATOM     25  N   UNL     1      -3.470  14.133  23.777  0.00  0.00    +0.000 N 
ATOM     26  C   UNL     1      -4.005  13.253  24.668  0.00  0.00    +0.000 A 
ATOM     27  N   UNL     1      -4.095  12.070  24.113  0.00  0.00    +0.000 NA
ATOM     28  N   UNL     1      -3.649  12.183  22.819  0.00  0.00    +0.000 NA
ATOM     29  C   UNL     1      -3.292  13.435  22.605  0.00  0.00    +0.000 A 
ENDBRANCH  23  29
ENDBRANCH  19  23
ENDBRANCH   1  19
TORSDOF 5
ENDMDL
MODEL 9
REMARK VINA RESULT:      -7.5      3.930      5.572
REMARK  Name = 
REMARK  6 active torsions:
REMARK  status: ('A' for Active; 'I' for Inactive)
REMARK    1  A    between atoms: C_1  and  N_2
REMARK    2  A    between atoms: C_6  and  C_7
REMARK    3  A    between atoms: C_7  and  C_8
REMARK    4  A    between atoms: C_8  and  C_9
REMARK    5  A    between atoms: C_13  and  N_14
REMARK    6  A    between atoms: C_17  and  C_18
REMARK                            x       y       z     vdW  Elec       q    Type
REMARK                         _______ _______ _______ _____ _____    ______ ____
ROOT
ATOM      1  C   UNL     1       1.314   8.384  20.048  0.00  0.00    +0.000 A 
ATOM      2  C   UNL     1       1.074   7.623  21.208  0.00  0.00    +0.000 A 
ATOM      3  C   UNL     1       1.553   6.314  21.343  0.00  0.00    +0.000 A 
ATOM      4  C   UNL     1       2.252   5.710  20.300  0.00  0.00    +0.000 A 
ATOM      5  C   UNL     1       2.523   6.443  19.147  0.00  0.00    +0.000 A 
ATOM      6  C   UNL     1       2.099   7.771  19.058  0.00  0.00    +0.000 A 
ENDROOT
BRANCH   5   7
ATOM      7  N   UNL     1       3.098   5.900  17.967  0.00  0.00    +0.000 N 
ATOM      8  C   UNL     1       3.834   6.790  17.102  0.00  0.00    +0.000 C 
ATOM      9  C   UNL     1       5.096   6.189  16.566  0.00  0.00    +0.000 C 
ATOM     10  C   UNL     1       5.504   4.909  16.441  0.00  0.00    +0.000 C 
ATOM     11  C   UNL     1       4.714   3.740  16.776  0.00  0.00    +0.000 C 
ATOM     12  C   UNL     1       3.431   3.657  17.148  0.00  0.00    +0.000 C 
ATOM     13  C   UNL     1       2.494   4.767  17.457  0.00  0.00    +0.000 C 
ATOM     14  O   UNL     1       1.287   4.529  17.468  0.00  0.00    +0.000 OA
BRANCH  10  15
ATOM     15  C   UNL     1       6.877   4.632  15.845  0.00  0.00    +0.000 C 
ATOM     16  F   UNL     1       6.871   3.710  14.849  0.00  0.00    +0.000 F 
ATOM     17  F   UNL     1       7.417   5.765  15.319  0.00  0.00    +0.000 F 
ATOM     18  F   UNL     1       7.750   4.190  16.787  0.00  0.00    +0.000 F 
ENDBRANCH  10  15
ENDBRANCH   5   7
BRANCH   1  19
ATOM     19  C   UNL     1       0.697   9.836  19.781  0.00  0.00    +0.000 C 
ATOM     20  C   UNL     1      -0.452  10.304  20.711  0.00  0.00    +0.000 C 
ATOM     21  O   UNL     1       0.281  11.466  21.143  0.00  0.00    +0.000 OA
ATOM     22  C   UNL     1       1.449  11.047  20.406  0.00  0.00    +0.000 C 
BRANCH  19  23
ATOM     23  C   UNL     1       0.310   9.982  18.290  0.00  0.00    +0.000 C 
BRANCH  23  29
ATOM     24  C   UNL     1      -0.861  12.925  18.144  0.00  0.00    +0.000 C 
ATOM     25  N   UNL     1      -1.569  11.692  17.929  0.00  0.00    +0.000 N 
ATOM     26  C   UNL     1      -2.873  11.599  17.545  0.00  0.00    +0.000 A 
ATOM     27  N   UNL     1      -3.220  10.338  17.479  0.00  0.00    +0.000 NA
ATOM     28  N   UNL     1      -2.112   9.586  17.786  0.00  0.00    +0.000 NA
ATOM     29  C   UNL     1      -1.105  10.402  18.035  0.00  0.00    +0.000 A 
ENDBRANCH  23  29
ENDBRANCH  19  23
ENDBRANCH   1  19
TORSDOF 5
ENDMDL
