MODEL 1
REMARK VINA RESULT:      -8.5      0.000      0.000
REMARK  Name = 
REMARK  6 active torsions:
REMARK  status: ('A' for Active; 'I' for Inactive)
REMARK    1  A    between atoms: C_1  and  C_2
REMARK    2  A    between atoms: C_2  and  C_3
REMARK    3  A    between atoms: N_5  and  C_6
REMARK    4  A    between atoms: N_11  and  C_12
REMARK    5  A    between atoms: C_12  and  C_13
REMARK    6  A    between atoms: C_24  and  C_26
REMARK                            x       y       z     vdW  Elec       q    Type
REMARK                         _______ _______ _______ _____ _____    ______ ____
ROOT
ATOM      1  C   UNL     1       1.280   8.991  19.319  0.00  0.00    +0.000 C 
ATOM      2  O   UNL     1       1.789   8.606  20.372  0.00  0.00    +0.000 OA
ATOM      3  N   UNL     1       1.659   8.498  18.077  0.00  0.00    +0.000 N 
ATOM      4  H   UNL     1       1.366   9.005  17.256  0.00  0.00    +0.000 HD
ENDROOT
BRANCH   1   6
ATOM      5  C   UNL     1      -0.781   9.642  20.533  0.00  0.00    +0.000 C 
ATOM      6  C   UNL     1       0.143  10.038  19.355  0.00  0.00    +0.000 C 
ATOM      7  C   UNL     1       0.618  11.506  19.526  0.00  0.00    +0.000 C 
ATOM      8  C   UNL     1      -0.508  12.530  19.344  0.00  0.00    +0.000 C 
ATOM      9  C   UNL     1      -1.222  12.295  18.012  0.00  0.00    +0.000 C 
ATOM     10  N   UNL     1      -1.716  10.921  17.963  0.00  0.00    +0.000 N 
ATOM     11  C   UNL     1      -3.055  10.500  17.971  0.00  0.00    +0.000 C 
ATOM     12  O   UNL     1      -3.370   9.320  17.838  0.00  0.00    +0.000 OA
ATOM     13  C   UNL     1      -0.651   9.907  18.030  0.00  0.00    +0.000 C 
BRANCH  11  14
ATOM     14  C   UNL     1      -4.168  11.484  18.129  0.00  0.00    +0.000 A 
ATOM     15  C   UNL     1      -4.984  11.759  17.024  0.00  0.00    +0.000 A 
ATOM     16  C   UNL     1      -5.994  12.723  17.114  0.00  0.00    +0.000 A 
ATOM     17  C   UNL     1      -6.188  13.422  18.305  0.00  0.00    +0.000 A 
ATOM     18  C   UNL     1      -5.432  13.102  19.427  0.00  0.00    +0.000 A 
ATOM     19  C   UNL     1      -4.463  12.101  19.348  0.00  0.00    +0.000 A 
ENDBRANCH  11  14
ENDBRANCH   1   6
BRANCH   3  20
ATOM     20  C   UNL     1       2.569   7.486  17.842  0.00  0.00    +0.000 A 
ATOM     21  C   UNL     1       3.892   7.876  17.391  0.00  0.00    +0.000 A 
ATOM     22  C   UNL     1       4.835   6.957  17.137  0.00  0.00    +0.000 A 
ATOM     23  C   UNL     1       4.530   5.504  17.256  0.00  0.00    +0.000 A 
ATOM     24  O   UNL     1       5.401   4.688  16.969  0.00  0.00    +0.000 OA
ATOM     25  N   UNL     1       3.240   5.195  17.667  0.00  0.00    +0.000 N 
ATOM     26  C   UNL     1       2.305   6.177  17.965  0.00  0.00    +0.000 A 
BRANCH  25  27
ATOM     27  C   UNL     1       2.791   3.803  17.588  0.00  0.00    +0.000 C 
BRANCH  27  28
ATOM     28  C   UNL     1       2.429   3.292  18.966  0.00  0.00    +0.000 A 
ATOM     29  C   UNL     1       1.087   3.263  19.374  0.00  0.00    +0.000 A 
ATOM     30  C   UNL     1       0.756   2.956  20.694  0.00  0.00    +0.000 A 
ATOM     31  C   UNL     1       1.760   2.674  21.619  0.00  0.00    +0.000 A 
ATOM     32  C   UNL     1       3.094   2.668  21.219  0.00  0.00    +0.000 A 
ATOM     33  C   UNL     1       3.428   2.970  19.897  0.00  0.00    +0.000 A 
ENDBRANCH  27  28
ENDBRANCH  25  27
ENDBRANCH   3  20
TORSDOF 5
ENDMDL
MODEL 2
REMARK VINA RESULT:      -8.4      0.166      1.216
REMARK  Name = 
REMARK  6 active torsions:
REMARK  status: ('A' for Active; 'I' for Inactive)
REMARK    1  A    between atoms: C_1  and  C_2
REMARK    2  A    between atoms: C_2  and  C_3
REMARK    3  A    between atoms: N_5  and  C_6
REMARK    4  A    between atoms: N_11  and  C_12
REMARK    5  A    between atoms: C_12  and  C_13
REMARK    6  A    between atoms: C_24  and  C_26
REMARK                            x       y       z     vdW  Elec       q    Type
REMARK                         _______ _______ _______ _____ _____    ______ ____
ROOT
ATOM      1  C   UNL     1       1.328   9.083  19.233  0.00  0.00    +0.000 C 
ATOM      2  O   UNL     1       1.825   8.711  20.296  0.00  0.00    +0.000 OA
ATOM      3  N   UNL     1       1.724   8.577  18.001  0.00  0.00    +0.000 N 
ATOM      4  H   UNL     1       1.440   9.074  17.171  0.00  0.00    +0.000 HD
ENDROOT
BRANCH   1   6
ATOM      5  C   UNL     1      -0.706   9.790  20.462  0.00  0.00    +0.000 C 
ATOM      6  C   UNL     1       0.187  10.127  19.242  0.00  0.00    +0.000 C 
ATOM      7  C   UNL     1       0.660  11.603  19.325  0.00  0.00    +0.000 C 
ATOM      8  C   UNL     1      -0.474  12.613  19.119  0.00  0.00    +0.000 C 
ATOM      9  C   UNL     1      -1.219  12.308  17.818  0.00  0.00    +0.000 C 
ATOM     10  N   UNL     1      -1.709  10.931  17.853  0.00  0.00    +0.000 N 
ATOM     11  C   UNL     1      -3.045  10.507  17.916  0.00  0.00    +0.000 C 
ATOM     12  O   UNL     1      -3.358   9.320  17.852  0.00  0.00    +0.000 OA
ATOM     13  C   UNL     1      -0.638   9.925  17.946  0.00  0.00    +0.000 C 
BRANCH  11  14
ATOM     14  C   UNL     1      -4.159  11.494  18.050  0.00  0.00    +0.000 A 
ATOM     15  C   UNL     1      -4.365  12.113  19.290  0.00  0.00    +0.000 A 
ATOM     16  C   UNL     1      -5.439  12.990  19.472  0.00  0.00    +0.000 A 
ATOM     17  C   UNL     1      -6.316  13.248  18.419  0.00  0.00    +0.000 A 
ATOM     18  C   UNL     1      -6.076  12.696  17.165  0.00  0.00    +0.000 A 
ATOM     19  C   UNL     1      -4.972  11.864  16.974  0.00  0.00    +0.000 A 
ENDBRANCH  11  14
ENDBRANCH   1   6
BRANCH   3  20
ATOM     20  C   UNL     1       2.640   7.565  17.789  0.00  0.00    +0.000 A 
ATOM     21  C   UNL     1       3.930   7.943  17.244  0.00  0.00    +0.000 A 
ATOM     22  C   UNL     1       4.876   7.023  17.005  0.00  0.00    +0.000 A 
ATOM     23  C   UNL     1       4.605   5.577  17.239  0.00  0.00    +0.000 A 
ATOM     24  O   UNL     1       5.476   4.757  16.963  0.00  0.00    +0.000 OA
ATOM     25  N   UNL     1       3.344   5.278  17.737  0.00  0.00    +0.000 N 
ATOM     26  C   UNL     1       2.407   6.264  18.015  0.00  0.00    +0.000 A 
BRANCH  25  27
ATOM     27  C   UNL     1       2.918   3.878  17.777  0.00  0.00    +0.000 C 
BRANCH  27  28
ATOM     28  C   UNL     1       2.486   3.503  19.178  0.00  0.00    +0.000 A 
ATOM     29  C   UNL     1       3.436   3.063  20.112  0.00  0.00    +0.000 A 
ATOM     30  C   UNL     1       3.032   2.556  21.348  0.00  0.00    +0.000 A 
ATOM     31  C   UNL     1       1.676   2.483  21.663  0.00  0.00    +0.000 A 
ATOM     32  C   UNL     1       0.724   2.946  20.758  0.00  0.00    +0.000 A 
ATOM     33  C   UNL     1       1.126   3.459  19.523  0.00  0.00    +0.000 A 
ENDBRANCH  27  28
ENDBRANCH  25  27
ENDBRANCH   3  20
TORSDOF 5
ENDMDL
MODEL 3
REMARK VINA RESULT:      -8.3      2.372      3.331
REMARK  Name = 
REMARK  6 active torsions:
REMARK  status: ('A' for Active; 'I' for Inactive)
REMARK    1  A    between atoms: C_1  and  C_2
REMARK    2  A    between atoms: C_2  and  C_3
REMARK    3  A    between atoms: N_5  and  C_6
REMARK    4  A    between atoms: N_11  and  C_12
REMARK    5  A    between atoms: C_12  and  C_13
REMARK    6  A    between atoms: C_24  and  C_26
REMARK                            x       y       z     vdW  Elec       q    Type
REMARK                         _______ _______ _______ _____ _____    ______ ____
ROOT
ATOM      1  C   UNL     1       1.931   8.629  18.880  0.00  0.00    +0.000 C 
ATOM      2  O   UNL     1       1.864   7.915  19.880  0.00  0.00    +0.000 OA
ATOM      3  N   UNL     1       2.686   8.290  17.764  0.00  0.00    +0.000 N 
ATOM      4  H   UNL     1       2.873   9.009  17.082  0.00  0.00    +0.000 HD
ENDROOT
BRANCH   1   6
ATOM      5  C   UNL     1       2.007  10.971  18.070  0.00  0.00    +0.000 C 
ATOM      6  C   UNL     1       1.121   9.945  18.820  0.00  0.00    +0.000 C 
ATOM      7  C   UNL     1      -0.259   9.826  18.120  0.00  0.00    +0.000 C 
ATOM      8  C   UNL     1      -1.121  11.085  18.264  0.00  0.00    +0.000 C 
ATOM      9  C   UNL     1      -1.242  11.472  19.739  0.00  0.00    +0.000 C 
ATOM     10  N   UNL     1       0.094  11.652  20.304  0.00  0.00    +0.000 N 
ATOM     11  C   UNL     1       0.674  12.851  20.745  0.00  0.00    +0.000 C 
ATOM     12  O   UNL     1       1.777  12.884  21.287  0.00  0.00    +0.000 OA
ATOM     13  C   UNL     1       0.916  10.431  20.277  0.00  0.00    +0.000 C 
BRANCH  11  14
ATOM     14  C   UNL     1      -0.039  14.155  20.585  0.00  0.00    +0.000 A 
ATOM     15  C   UNL     1      -0.815  14.632  21.648  0.00  0.00    +0.000 A 
ATOM     16  C   UNL     1      -1.551  15.814  21.511  0.00  0.00    +0.000 A 
ATOM     17  C   UNL     1      -1.521  16.520  20.308  0.00  0.00    +0.000 A 
ATOM     18  C   UNL     1      -0.696  16.092  19.274  0.00  0.00    +0.000 A 
ATOM     19  C   UNL     1       0.079  14.943  19.435  0.00  0.00    +0.000 A 
ENDBRANCH  11  14
ENDBRANCH   1   6
BRANCH   3  20
ATOM     20  C   UNL     1       3.386   7.114  17.577  0.00  0.00    +0.000 A 
ATOM     21  C   UNL     1       4.751   7.224  17.097  0.00  0.00    +0.000 A 
ATOM     22  C   UNL     1       5.500   6.132  16.886  0.00  0.00    +0.000 A 
ATOM     23  C   UNL     1       4.930   4.771  17.083  0.00  0.00    +0.000 A 
ATOM     24  O   UNL     1       5.627   3.792  16.834  0.00  0.00    +0.000 OA
ATOM     25  N   UNL     1       3.611   4.732  17.519  0.00  0.00    +0.000 N 
ATOM     26  C   UNL     1       2.883   5.886  17.771  0.00  0.00    +0.000 A 
BRANCH  25  27
ATOM     27  C   UNL     1       2.907   3.448  17.517  0.00  0.00    +0.000 C 
BRANCH  27  28
ATOM     28  C   UNL     1       2.466   3.092  18.920  0.00  0.00    +0.000 A 
ATOM     29  C   UNL     1       1.116   3.211  19.282  0.00  0.00    +0.000 A 
ATOM     30  C   UNL     1       0.723   3.049  20.612  0.00  0.00    +0.000 A 
ATOM     31  C   UNL     1       1.674   2.767  21.591  0.00  0.00    +0.000 A 
ATOM     32  C   UNL     1       3.013   2.615  21.239  0.00  0.00    +0.000 A 
ATOM     33  C   UNL     1       3.408   2.771  19.909  0.00  0.00    +0.000 A 
ENDBRANCH  27  28
ENDBRANCH  25  27
ENDBRANCH   3  20
TORSDOF 5
ENDMDL
MODEL 4
REMARK VINA RESULT:      -8.1      2.335      3.327
REMARK  Name = 
REMARK  6 active torsions:
REMARK  status: ('A' for Active; 'I' for Inactive)
REMARK    1  A    between atoms: C_1  and  C_2
REMARK    2  A    between atoms: C_2  and  C_3
REMARK    3  A    between atoms: N_5  and  C_6
REMARK    4  A    between atoms: N_11  and  C_12
REMARK    5  A    between atoms: C_12  and  C_13
REMARK    6  A    between atoms: C_24  and  C_26
REMARK                            x       y       z     vdW  Elec       q    Type
REMARK                         _______ _______ _______ _____ _____    ______ ____
ROOT
ATOM      1  C   UNL     1       1.921   8.720  18.851  0.00  0.00    +0.000 C 
ATOM      2  O   UNL     1       1.893   8.015  19.859  0.00  0.00    +0.000 OA
ATOM      3  N   UNL     1       2.654   8.383  17.719  0.00  0.00    +0.000 N 
ATOM      4  H   UNL     1       2.809   9.098  17.025  0.00  0.00    +0.000 HD
ENDROOT
BRANCH   1   6
ATOM      5  C   UNL     1       1.970  11.080  18.094  0.00  0.00    +0.000 C 
ATOM      6  C   UNL     1       1.087  10.021  18.799  0.00  0.00    +0.000 C 
ATOM      7  C   UNL     1      -0.273   9.891  18.062  0.00  0.00    +0.000 C 
ATOM      8  C   UNL     1      -1.163  11.129  18.212  0.00  0.00    +0.000 C 
ATOM      9  C   UNL     1      -1.328  11.481  19.692  0.00  0.00    +0.000 C 
ATOM     10  N   UNL     1      -0.010  11.674  20.293  0.00  0.00    +0.000 N 
ATOM     11  C   UNL     1       0.534  12.875  20.774  0.00  0.00    +0.000 C 
ATOM     12  O   UNL     1       1.622  12.916  21.345  0.00  0.00    +0.000 OA
ATOM     13  C   UNL     1       0.837  10.471  20.260  0.00  0.00    +0.000 C 
BRANCH  11  14
ATOM     14  C   UNL     1      -0.200  14.167  20.625  0.00  0.00    +0.000 A 
ATOM     15  C   UNL     1      -0.050  14.893  19.436  0.00  0.00    +0.000 A 
ATOM     16  C   UNL     1      -0.668  16.139  19.286  0.00  0.00    +0.000 A 
ATOM     17  C   UNL     1      -1.432  16.669  20.325  0.00  0.00    +0.000 A 
ATOM     18  C   UNL     1      -1.647  15.923  21.479  0.00  0.00    +0.000 A 
ATOM     19  C   UNL     1      -1.073  14.656  21.602  0.00  0.00    +0.000 A 
ENDBRANCH  11  14
ENDBRANCH   1   6
BRANCH   3  20
ATOM     20  C   UNL     1       3.369   7.217  17.525  0.00  0.00    +0.000 A 
ATOM     21  C   UNL     1       4.684   7.339  16.925  0.00  0.00    +0.000 A 
ATOM     22  C   UNL     1       5.444   6.257  16.699  0.00  0.00    +0.000 A 
ATOM     23  C   UNL     1       4.933   4.893  17.006  0.00  0.00    +0.000 A 
ATOM     24  O   UNL     1       5.635   3.921  16.742  0.00  0.00    +0.000 OA
ATOM     25  N   UNL     1       3.658   4.842  17.556  0.00  0.00    +0.000 N 
ATOM     26  C   UNL     1       2.920   5.987  17.817  0.00  0.00    +0.000 A 
BRANCH  25  27
ATOM     27  C   UNL     1       2.995   3.542  17.673  0.00  0.00    +0.000 C 
BRANCH  27  28
ATOM     28  C   UNL     1       2.521   3.323  19.094  0.00  0.00    +0.000 A 
ATOM     29  C   UNL     1       3.436   2.949  20.090  0.00  0.00    +0.000 A 
ATOM     30  C   UNL     1       2.989   2.581  21.359  0.00  0.00    +0.000 A 
ATOM     31  C   UNL     1       1.625   2.583  21.647  0.00  0.00    +0.000 A 
ATOM     32  C   UNL     1       0.709   2.982  20.677  0.00  0.00    +0.000 A 
ATOM     33  C   UNL     1       1.154   3.356  19.408  0.00  0.00    +0.000 A 
ENDBRANCH  27  28
ENDBRANCH  25  27
ENDBRANCH   3  20
TORSDOF 5
ENDMDL
MODEL 5
REMARK VINA RESULT:      -8.0      2.799      4.791
REMARK  Name = 
REMARK  6 active torsions:
REMARK  status: ('A' for Active; 'I' for Inactive)
REMARK    1  A    between atoms: C_1  and  C_2
REMARK    2  A    between atoms: C_2  and  C_3
REMARK    3  A    between atoms: N_5  and  C_6
REMARK    4  A    between atoms: N_11  and  C_12
REMARK    5  A    between atoms: C_12  and  C_13
REMARK    6  A    between atoms: C_24  and  C_26
REMARK                            x       y       z     vdW  Elec       q    Type
REMARK                         _______ _______ _______ _____ _____    ______ ____
ROOT
ATOM      1  C   UNL     1       1.352   8.656  20.428  0.00  0.00    +0.000 C 
ATOM      2  O   UNL     1       1.342   8.323  21.613  0.00  0.00    +0.000 OA
ATOM      3  N   UNL     1       1.888   7.854  19.427  0.00  0.00    +0.000 N 
ATOM      4  H   UNL     1       2.062   8.273  18.527  0.00  0.00    +0.000 HD
ENDROOT
BRANCH   1   6
ATOM      5  C   UNL     1       1.603  10.563  18.865  0.00  0.00    +0.000 C 
ATOM      6  C   UNL     1       0.715   9.999  20.001  0.00  0.00    +0.000 C 
ATOM      7  C   UNL     1      -0.757   9.895  19.520  0.00  0.00    +0.000 C 
ATOM      8  C   UNL     1      -1.422  11.259  19.309  0.00  0.00    +0.000 C 
ATOM      9  C   UNL     1      -1.274  12.116  20.568  0.00  0.00    +0.000 C 
ATOM     10  N   UNL     1       0.142  12.240  20.906  0.00  0.00    +0.000 N 
ATOM     11  C   UNL     1       0.928  13.402  20.853  0.00  0.00    +0.000 C 
ATOM     12  O   UNL     1       2.093  13.421  21.243  0.00  0.00    +0.000 OA
ATOM     13  C   UNL     1       0.790  10.956  21.217  0.00  0.00    +0.000 C 
BRANCH  11  14
ATOM     14  C   UNL     1       0.370  14.684  20.328  0.00  0.00    +0.000 A 
ATOM     15  C   UNL     1      -0.114  15.631  21.239  0.00  0.00    +0.000 A 
ATOM     16  C   UNL     1      -0.706  16.813  20.782  0.00  0.00    +0.000 A 
ATOM     17  C   UNL     1      -0.823  17.052  19.413  0.00  0.00    +0.000 A 
ATOM     18  C   UNL     1      -0.279  16.152  18.504  0.00  0.00    +0.000 A 
ATOM     19  C   UNL     1       0.359  15.000  18.965  0.00  0.00    +0.000 A 
ENDBRANCH  11  14
ENDBRANCH   1   6
BRANCH   3  20
ATOM     20  C   UNL     1       2.398   6.580  19.585  0.00  0.00    +0.000 A 
ATOM     21  C   UNL     1       1.571   5.618  20.289  0.00  0.00    +0.000 A 
ATOM     22  C   UNL     1       1.991   4.360  20.489  0.00  0.00    +0.000 A 
ATOM     23  C   UNL     1       3.346   3.933  20.042  0.00  0.00    +0.000 A 
ATOM     24  O   UNL     1       3.718   2.788  20.284  0.00  0.00    +0.000 OA
ATOM     25  N   UNL     1       4.098   4.906  19.397  0.00  0.00    +0.000 N 
ATOM     26  C   UNL     1       3.610   6.185  19.169  0.00  0.00    +0.000 A 
BRANCH  25  27
ATOM     27  C   UNL     1       5.514   4.641  19.133  0.00  0.00    +0.000 C 
BRANCH  27  28
ATOM     28  C   UNL     1       5.778   4.648  17.644  0.00  0.00    +0.000 A 
ATOM     29  C   UNL     1       4.809   4.156  16.756  0.00  0.00    +0.000 A 
ATOM     30  C   UNL     1       5.104   4.000  15.401  0.00  0.00    +0.000 A 
ATOM     31  C   UNL     1       6.369   4.333  14.919  0.00  0.00    +0.000 A 
ATOM     32  C   UNL     1       7.330   4.852  15.784  0.00  0.00    +0.000 A 
ATOM     33  C   UNL     1       7.035   5.014  17.139  0.00  0.00    +0.000 A 
ENDBRANCH  27  28
ENDBRANCH  25  27
ENDBRANCH   3  20
TORSDOF 5
ENDMDL
MODEL 6
REMARK VINA RESULT:      -8.0      2.511      3.430
REMARK  Name = 
REMARK  6 active torsions:
REMARK  status: ('A' for Active; 'I' for Inactive)
REMARK    1  A    between atoms: C_1  and  C_2
REMARK    2  A    between atoms: C_2  and  C_3
REMARK    3  A    between atoms: N_5  and  C_6
REMARK    4  A    between atoms: N_11  and  C_12
REMARK    5  A    between atoms: C_12  and  C_13
REMARK    6  A    between atoms: C_24  and  C_26
REMARK                            x       y       z     vdW  Elec       q    Type
REMARK                         _______ _______ _______ _____ _____    ______ ____
ROOT
ATOM      1  C   UNL     1       1.573  10.198  18.504  0.00  0.00    +0.000 C 
ATOM      2  O   UNL     1       2.374  10.610  17.666  0.00  0.00    +0.000 OA
ATOM      3  N   UNL     1       1.452   8.852  18.829  0.00  0.00    +0.000 N 
ATOM      4  H   UNL     1       0.639   8.562  19.351  0.00  0.00    +0.000 HD
ENDROOT
BRANCH   1   6
ATOM      5  C   UNL     1       1.633  12.100  20.092  0.00  0.00    +0.000 C 
ATOM      6  C   UNL     1       0.678  11.200  19.270  0.00  0.00    +0.000 C 
ATOM      7  C   UNL     1      -0.231  12.078  18.369  0.00  0.00    +0.000 C 
ATOM      8  C   UNL     1      -1.251  12.903  19.161  0.00  0.00    +0.000 C 
ATOM      9  C   UNL     1      -2.052  11.993  20.094  0.00  0.00    +0.000 C 
ATOM     10  N   UNL     1      -1.133  11.268  20.969  0.00  0.00    +0.000 N 
ATOM     11  C   UNL     1      -0.988  11.416  22.357  0.00  0.00    +0.000 C 
ATOM     12  O   UNL     1      -0.245  10.693  23.017  0.00  0.00    +0.000 OA
ATOM     13  C   UNL     1      -0.204  10.383  20.247  0.00  0.00    +0.000 C 
BRANCH  11  14
ATOM     14  C   UNL     1      -1.752  12.462  23.102  0.00  0.00    +0.000 A 
ATOM     15  C   UNL     1      -1.145  13.704  23.331  0.00  0.00    +0.000 A 
ATOM     16  C   UNL     1      -1.802  14.683  24.082  0.00  0.00    +0.000 A 
ATOM     17  C   UNL     1      -3.065  14.425  24.615  0.00  0.00    +0.000 A 
ATOM     18  C   UNL     1      -3.704  13.224  24.331  0.00  0.00    +0.000 A 
ATOM     19  C   UNL     1      -3.068  12.271  23.534  0.00  0.00    +0.000 A 
ENDBRANCH  11  14
ENDBRANCH   1   6
BRANCH   3  20
ATOM     20  C   UNL     1       2.231   7.820  18.344  0.00  0.00    +0.000 A 
ATOM     21  C   UNL     1       3.480   8.180  17.699  0.00  0.00    +0.000 A 
ATOM     22  C   UNL     1       4.295   7.241  17.197  0.00  0.00    +0.000 A 
ATOM     23  C   UNL     1       3.912   5.803  17.239  0.00  0.00    +0.000 A 
ATOM     24  O   UNL     1       4.659   4.973  16.727  0.00  0.00    +0.000 OA
ATOM     25  N   UNL     1       2.695   5.526  17.848  0.00  0.00    +0.000 N 
ATOM     26  C   UNL     1       1.900   6.522  18.396  0.00  0.00    +0.000 A 
BRANCH  25  27
ATOM     27  C   UNL     1       2.140   4.176  17.727  0.00  0.00    +0.000 C 
BRANCH  27  28
ATOM     28  C   UNL     1       2.193   3.468  19.064  0.00  0.00    +0.000 A 
ATOM     29  C   UNL     1       1.046   3.402  19.870  0.00  0.00    +0.000 A 
ATOM     30  C   UNL     1       1.123   2.904  21.171  0.00  0.00    +0.000 A 
ATOM     31  C   UNL     1       2.345   2.467  21.680  0.00  0.00    +0.000 A 
ATOM     32  C   UNL     1       3.484   2.496  20.879  0.00  0.00    +0.000 A 
ATOM     33  C   UNL     1       3.409   2.990  19.575  0.00  0.00    +0.000 A 
ENDBRANCH  27  28
ENDBRANCH  25  27
ENDBRANCH   3  20
TORSDOF 5
ENDMDL
MODEL 7
REMARK VINA RESULT:      -8.0      2.875      4.689
REMARK  Name = 
REMARK  6 active torsions:
REMARK  status: ('A' for Active; 'I' for Inactive)
REMARK    1  A    between atoms: C_1  and  C_2
REMARK    2  A    between atoms: C_2  and  C_3
REMARK    3  A    between atoms: N_5  and  C_6
REMARK    4  A    between atoms: N_11  and  C_12
REMARK    5  A    between atoms: C_12  and  C_13
REMARK    6  A    between atoms: C_24  and  C_26
REMARK                            x       y       z     vdW  Elec       q    Type
REMARK                         _______ _______ _______ _____ _____    ______ ____
ROOT
ATOM      1  C   UNL     1       1.373   9.071  19.162  0.00  0.00    +0.000 C 
ATOM      2  O   UNL     1       1.904   9.052  18.052  0.00  0.00    +0.000 OA
ATOM      3  N   UNL     1       1.371   7.972  20.013  0.00  0.00    +0.000 N 
ATOM      4  H   UNL     1       0.739   7.983  20.799  0.00  0.00    +0.000 HD
ENDROOT
BRANCH   1   6
ATOM      5  C   UNL     1       1.816  11.177  20.393  0.00  0.00    +0.000 C 
ATOM      6  C   UNL     1       0.707  10.370  19.673  0.00  0.00    +0.000 C 
ATOM      7  C   UNL     1       0.052  11.241  18.568  0.00  0.00    +0.000 C 
ATOM      8  C   UNL     1      -0.777  12.402  19.126  0.00  0.00    +0.000 C 
ATOM      9  C   UNL     1      -1.795  11.880  20.142  0.00  0.00    +0.000 C 
ATOM     10  N   UNL     1      -1.095  11.148  21.195  0.00  0.00    +0.000 N 
ATOM     11  C   UNL     1      -0.965  11.518  22.543  0.00  0.00    +0.000 C 
ATOM     12  O   UNL     1      -0.428  10.787  23.373  0.00  0.00    +0.000 OA
ATOM     13  C   UNL     1      -0.370   9.963  20.710  0.00  0.00    +0.000 C 
BRANCH  11  14
ATOM     14  C   UNL     1      -1.493  12.827  23.035  0.00  0.00    +0.000 A 
ATOM     15  C   UNL     1      -2.771  12.864  23.607  0.00  0.00    +0.000 A 
ATOM     16  C   UNL     1      -3.326  14.081  24.017  0.00  0.00    +0.000 A 
ATOM     17  C   UNL     1      -2.610  15.267  23.851  0.00  0.00    +0.000 A 
ATOM     18  C   UNL     1      -1.312  15.229  23.352  0.00  0.00    +0.000 A 
ATOM     19  C   UNL     1      -0.742  14.006  22.996  0.00  0.00    +0.000 A 
ENDBRANCH  11  14
ENDBRANCH   1   6
BRANCH   3  20
ATOM     20  C   UNL     1       2.005   6.765  19.791  0.00  0.00    +0.000 A 
ATOM     21  C   UNL     1       1.838   5.735  20.798  0.00  0.00    +0.000 A 
ATOM     22  C   UNL     1       2.421   4.534  20.662  0.00  0.00    +0.000 A 
ATOM     23  C   UNL     1       3.305   4.247  19.499  0.00  0.00    +0.000 A 
ATOM     24  O   UNL     1       3.862   3.155  19.430  0.00  0.00    +0.000 OA
ATOM     25  N   UNL     1       3.443   5.282  18.583  0.00  0.00    +0.000 N 
ATOM     26  C   UNL     1       2.787   6.495  18.735  0.00  0.00    +0.000 A 
BRANCH  25  27
ATOM     27  C   UNL     1       4.466   5.167  17.541  0.00  0.00    +0.000 C 
BRANCH  27  28
ATOM     28  C   UNL     1       5.718   5.909  17.953  0.00  0.00    +0.000 A 
ATOM     29  C   UNL     1       6.143   7.030  17.224  0.00  0.00    +0.000 A 
ATOM     30  C   UNL     1       7.380   7.619  17.487  0.00  0.00    +0.000 A 
ATOM     31  C   UNL     1       8.205   7.096  18.481  0.00  0.00    +0.000 A 
ATOM     32  C   UNL     1       7.782   6.003  19.234  0.00  0.00    +0.000 A 
ATOM     33  C   UNL     1       6.542   5.415  18.976  0.00  0.00    +0.000 A 
ENDBRANCH  27  28
ENDBRANCH  25  27
ENDBRANCH   3  20
TORSDOF 5
ENDMDL
MODEL 8
REMARK VINA RESULT:      -8.0      2.587      3.337
REMARK  Name = 
REMARK  6 active torsions:
REMARK  status: ('A' for Active; 'I' for Inactive)
REMARK    1  A    between atoms: C_1  and  C_2
REMARK    2  A    between atoms: C_2  and  C_3
REMARK    3  A    between atoms: N_5  and  C_6
REMARK    4  A    between atoms: N_11  and  C_12
REMARK    5  A    between atoms: C_12  and  C_13
REMARK    6  A    between atoms: C_24  and  C_26
REMARK                            x       y       z     vdW  Elec       q    Type
REMARK                         _______ _______ _______ _____ _____    ______ ____
ROOT
ATOM      1  C   UNL     1       2.182   8.301  18.694  0.00  0.00    +0.000 C 
ATOM      2  O   UNL     1       1.990   7.457  19.569  0.00  0.00    +0.000 OA
ATOM      3  N   UNL     1       3.139   8.147  17.699  0.00  0.00    +0.000 N 
ATOM      4  H   UNL     1       3.393   8.958  17.156  0.00  0.00    +0.000 HD
ENDROOT
BRANCH   1   6
ATOM      5  C   UNL     1       2.175  10.678  17.991  0.00  0.00    +0.000 C 
ATOM      6  C   UNL     1       1.309   9.577  18.653  0.00  0.00    +0.000 C 
ATOM      7  C   UNL     1      -0.029   9.423  17.883  0.00  0.00    +0.000 C 
ATOM      8  C   UNL     1      -0.960  10.631  18.041  0.00  0.00    +0.000 C 
ATOM      9  C   UNL     1      -1.167  10.943  19.525  0.00  0.00    +0.000 C 
ATOM     10  N   UNL     1       0.131  11.162  20.160  0.00  0.00    +0.000 N 
ATOM     11  C   UNL     1       0.628  12.367  20.679  0.00  0.00    +0.000 C 
ATOM     12  O   UNL     1       1.702  12.427  21.275  0.00  0.00    +0.000 OA
ATOM     13  C   UNL     1       1.014   9.985  20.118  0.00  0.00    +0.000 C 
BRANCH  11  14
ATOM     14  C   UNL     1      -0.142  13.639  20.543  0.00  0.00    +0.000 A 
ATOM     15  C   UNL     1       0.070  14.436  19.410  0.00  0.00    +0.000 A 
ATOM     16  C   UNL     1      -0.582  15.667  19.280  0.00  0.00    +0.000 A 
ATOM     17  C   UNL     1      -1.443  16.111  20.283  0.00  0.00    +0.000 A 
ATOM     18  C   UNL     1      -1.715  15.294  21.375  0.00  0.00    +0.000 A 
ATOM     19  C   UNL     1      -1.105  14.042  21.474  0.00  0.00    +0.000 A 
ENDBRANCH  11  14
ENDBRANCH   1   6
BRANCH   3  20
ATOM     20  C   UNL     1       3.937   7.038  17.496  0.00  0.00    +0.000 A 
ATOM     21  C   UNL     1       4.588   6.917  16.205  0.00  0.00    +0.000 A 
ATOM     22  C   UNL     1       5.377   5.870  15.923  0.00  0.00    +0.000 A 
ATOM     23  C   UNL     1       5.560   4.771  16.911  0.00  0.00    +0.000 A 
ATOM     24  O   UNL     1       6.250   3.803  16.603  0.00  0.00    +0.000 OA
ATOM     25  N   UNL     1       4.891   4.933  18.117  0.00  0.00    +0.000 N 
ATOM     26  C   UNL     1       4.120   6.054  18.389  0.00  0.00    +0.000 A 
BRANCH  25  27
ATOM     27  C   UNL     1       4.831   3.802  19.046  0.00  0.00    +0.000 C 
BRANCH  27  28
ATOM     28  C   UNL     1       3.391   3.440  19.336  0.00  0.00    +0.000 A 
ATOM     29  C   UNL     1       2.613   2.810  18.353  0.00  0.00    +0.000 A 
ATOM     30  C   UNL     1       1.244   2.624  18.546  0.00  0.00    +0.000 A 
ATOM     31  C   UNL     1       0.638   3.065  19.721  0.00  0.00    +0.000 A 
ATOM     32  C   UNL     1       1.404   3.663  20.719  0.00  0.00    +0.000 A 
ATOM     33  C   UNL     1       2.776   3.845  20.531  0.00  0.00    +0.000 A 
ENDBRANCH  27  28
ENDBRANCH  25  27
ENDBRANCH   3  20
TORSDOF 5
ENDMDL
MODEL 9
REMARK VINA RESULT:      -7.9      2.694      4.850
REMARK  Name = 
REMARK  6 active torsions:
REMARK  status: ('A' for Active; 'I' for Inactive)
REMARK    1  A    between atoms: C_1  and  C_2
REMARK    2  A    between atoms: C_2  and  C_3
REMARK    3  A    between atoms: N_5  and  C_6
REMARK    4  A    between atoms: N_11  and  C_12
REMARK    5  A    between atoms: C_12  and  C_13
REMARK    6  A    between atoms: C_24  and  C_26
REMARK                            x       y       z     vdW  Elec       q    Type
REMARK                         _______ _______ _______ _____ _____    ______ ____
ROOT
ATOM      1  C   UNL     1       1.349   8.760  20.185  0.00  0.00    +0.000 C 
ATOM      2  O   UNL     1       1.398   8.376  21.353  0.00  0.00    +0.000 OA
ATOM      3  N   UNL     1       1.831   8.003  19.124  0.00  0.00    +0.000 N 
ATOM      4  H   UNL     1       1.961   8.461  18.235  0.00  0.00    +0.000 HD
ENDROOT
BRANCH   1   6
ATOM      5  C   UNL     1       1.539  10.743  18.709  0.00  0.00    +0.000 C 
ATOM      6  C   UNL     1       0.696  10.122  19.850  0.00  0.00    +0.000 C 
ATOM      7  C   UNL     1      -0.793  10.038  19.422  0.00  0.00    +0.000 C 
ATOM      8  C   UNL     1      -1.466  11.410  19.304  0.00  0.00    +0.000 C 
ATOM      9  C   UNL     1      -1.270  12.204  20.597  0.00  0.00    +0.000 C 
ATOM     10  N   UNL     1       0.158  12.314  20.886  0.00  0.00    +0.000 N 
ATOM     11  C   UNL     1       0.941  13.479  20.860  0.00  0.00    +0.000 C 
ATOM     12  O   UNL     1       2.121  13.481  21.204  0.00  0.00    +0.000 OA
ATOM     13  C   UNL     1       0.818  11.017  21.108  0.00  0.00    +0.000 C 
BRANCH  11  14
ATOM     14  C   UNL     1       0.363  14.784  20.420  0.00  0.00    +0.000 A 
ATOM     15  C   UNL     1      -0.058  15.697  21.396  0.00  0.00    +0.000 A 
ATOM     16  C   UNL     1      -0.666  16.900  21.023  0.00  0.00    +0.000 A 
ATOM     17  C   UNL     1      -0.864  17.194  19.674  0.00  0.00    +0.000 A 
ATOM     18  C   UNL     1      -0.383  16.328  18.699  0.00  0.00    +0.000 A 
ATOM     19  C   UNL     1       0.273  15.155  19.075  0.00  0.00    +0.000 A 
ENDBRANCH  11  14
ENDBRANCH   1   6
BRANCH   3  20
ATOM     20  C   UNL     1       2.345   6.723  19.200  0.00  0.00    +0.000 A 
ATOM     21  C   UNL     1       1.986   5.933  20.363  0.00  0.00    +0.000 A 
ATOM     22  C   UNL     1       2.443   4.682  20.518  0.00  0.00    +0.000 A 
ATOM     23  C   UNL     1       3.380   4.088  19.525  0.00  0.00    +0.000 A 
ATOM     24  O   UNL     1       3.818   2.958  19.721  0.00  0.00    +0.000 OA
ATOM     25  N   UNL     1       3.704   4.903  18.447  0.00  0.00    +0.000 N 
ATOM     26  C   UNL     1       3.174   6.177  18.299  0.00  0.00    +0.000 A 
BRANCH  25  27
ATOM     27  C   UNL     1       4.788   4.489  17.554  0.00  0.00    +0.000 C 
BRANCH  27  28
ATOM     28  C   UNL     1       6.024   5.322  17.810  0.00  0.00    +0.000 A 
ATOM     29  C   UNL     1       6.787   5.110  18.968  0.00  0.00    +0.000 A 
ATOM     30  C   UNL     1       7.827   5.979  19.300  0.00  0.00    +0.000 A 
ATOM     31  C   UNL     1       8.115   7.068  18.480  0.00  0.00    +0.000 A 
ATOM     32  C   UNL     1       7.386   7.272  17.311  0.00  0.00    +0.000 A 
ATOM     33  C   UNL     1       6.349   6.401  16.974  0.00  0.00    +0.000 A 
ENDBRANCH  27  28
ENDBRANCH  25  27
ENDBRANCH   3  20
TORSDOF 5
ENDMDL
