MODEL 1
REMARK VINA RESULT:      -8.7      0.000      0.000
REMARK  Name = 
REMARK  7 active torsions:
REMARK  status: ('A' for Active; 'I' for Inactive)
REMARK    1  A    between atoms: C_2  and  C_4
REMARK    2  A    between atoms: C_8  and  C_9
REMARK    3  A    between atoms: C_9  and  N_10
REMARK    4  A    between atoms: C_11  and  C_13
REMARK    5  A    between atoms: C_16  and  C_17
REMARK    6  A    between atoms: C_17  and  S_18
REMARK    7  A    between atoms: S_18  and  C_19
REMARK                            x       y       z     vdW  Elec       q    Type
REMARK                         _______ _______ _______ _____ _____    ______ ____
ROOT
ATOM      1  C   UNL     1       1.864   8.723  19.013  0.00  0.00    +0.000 A 
ATOM      2  C   UNL     1       1.869   7.785  20.054  0.00  0.00    +0.000 A 
ATOM      3  C   UNL     1       2.634   6.589  19.957  0.00  0.00    +0.000 A 
ATOM      4  C   UNL     1       3.422   6.288  18.828  0.00  0.00    +0.000 A 
ATOM      5  C   UNL     1       3.372   7.215  17.772  0.00  0.00    +0.000 A 
ATOM      6  C   UNL     1       2.602   8.404  17.863  0.00  0.00    +0.000 A 
ENDROOT
BRANCH   1   8
ATOM      7  N   UNL     1      -0.304   9.960  19.170  0.00  0.00    +0.000 N 
ATOM      8  C   UNL     1       1.079  10.022  19.048  0.00  0.00    +0.000 C 
ATOM      9  O   UNL     1       1.685  11.088  18.994  0.00  0.00    +0.000 OA
ATOM     10  H   UNL     1      -0.753   9.061  19.271  0.00  0.00    +0.000 HD
BRANCH   7  11
ATOM     11  C   UNL     1      -1.176  11.143  19.134  0.00  0.00    +0.000 C 
BRANCH  11  16
ATOM     12  C   UNL     1      -4.605  11.471  17.324  0.00  0.00    +0.000 A 
ATOM     13  C   UNL     1      -4.304  10.834  16.116  0.00  0.00    +0.000 A 
ATOM     14  C   UNL     1      -3.034  10.283  15.909  0.00  0.00    +0.000 A 
ATOM     15  C   UNL     1      -2.044  10.387  16.890  0.00  0.00    +0.000 A 
ATOM     16  C   UNL     1      -2.286  11.059  18.094  0.00  0.00    +0.000 A 
ATOM     17  C   UNL     1      -3.587  11.581  18.307  0.00  0.00    +0.000 A 
BRANCH  12  19
ATOM     18  N   UNL     1      -6.065  13.471  17.444  0.00  0.00    +0.000 N 
ATOM     19  C   UNL     1      -5.953  12.103  17.559  0.00  0.00    +0.000 C 
ATOM     20  O   UNL     1      -6.917  11.411  17.848  0.00  0.00    +0.000 OA
ATOM     21  H   UNL     1      -6.944  13.934  17.679  0.00  0.00    +0.000 HD
ATOM     22  H   UNL     1      -5.335  14.075  17.113  0.00  0.00    +0.000 HD
ENDBRANCH  12  19
ENDBRANCH  11  16
ENDBRANCH   7  11
ENDBRANCH   1   8
BRANCH   4  23
ATOM     23  C   UNL     1       4.333   5.036  18.775  0.00  0.00    +0.000 C 
BRANCH  23  24
ATOM     24  S   UNL     1       5.983   5.342  18.078  0.00  0.00    +0.000 S 
BRANCH  24  25
ATOM     25  C   UNL     1       6.018   4.919  16.377  0.00  0.00    +0.000 A 
ATOM     26  N   UNL     1       5.351   4.060  15.630  0.00  0.00    +0.000 NA
ATOM     27  C   UNL     1       5.953   4.117  14.349  0.00  0.00    +0.000 A 
ATOM     28  C   UNL     1       5.704   3.428  13.117  0.00  0.00    +0.000 A 
ATOM     29  C   UNL     1       6.482   3.659  11.957  0.00  0.00    +0.000 A 
ATOM     30  C   UNL     1       7.527   4.613  12.050  0.00  0.00    +0.000 A 
ATOM     31  C   UNL     1       7.796   5.312  13.241  0.00  0.00    +0.000 A 
ATOM     32  C   UNL     1       6.993   5.038  14.358  0.00  0.00    +0.000 A 
ATOM     33  N   UNL     1       7.002   5.533  15.639  0.00  0.00    +0.000 N 
ATOM     34  H   UNL     1       7.643   6.215  16.012  0.00  0.00    +0.000 HD
ENDBRANCH  24  25
ENDBRANCH  23  24
ENDBRANCH   4  23
TORSDOF 7
ENDMDL
MODEL 2
REMARK VINA RESULT:      -8.6      4.327     11.168
REMARK  Name = 
REMARK  7 active torsions:
REMARK  status: ('A' for Active; 'I' for Inactive)
REMARK    1  A    between atoms: C_2  and  C_4
REMARK    2  A    between atoms: C_8  and  C_9
REMARK    3  A    between atoms: C_9  and  N_10
REMARK    4  A    between atoms: C_11  and  C_13
REMARK    5  A    between atoms: C_16  and  C_17
REMARK    6  A    between atoms: C_17  and  S_18
REMARK    7  A    between atoms: S_18  and  C_19
REMARK                            x       y       z     vdW  Elec       q    Type
REMARK                         _______ _______ _______ _____ _____    ______ ____
ROOT
ATOM      1  C   UNL     1       0.975   9.699  19.688  0.00  0.00    +0.000 A 
ATOM      2  C   UNL     1       0.234  10.880  19.550  0.00  0.00    +0.000 A 
ATOM      3  C   UNL     1      -0.547  11.384  20.627  0.00  0.00    +0.000 A 
ATOM      4  C   UNL     1      -0.614  10.735  21.877  0.00  0.00    +0.000 A 
ATOM      5  C   UNL     1       0.097   9.527  21.987  0.00  0.00    +0.000 A 
ATOM      6  C   UNL     1       0.870   9.019  20.910  0.00  0.00    +0.000 A 
ENDROOT
BRANCH   1   8
ATOM      7  N   UNL     1       2.383   7.844  18.777  0.00  0.00    +0.000 N 
ATOM      8  C   UNL     1       1.835   9.107  18.586  0.00  0.00    +0.000 C 
ATOM      9  O   UNL     1       2.004   9.745  17.551  0.00  0.00    +0.000 OA
ATOM     10  H   UNL     1       2.169   7.333  19.621  0.00  0.00    +0.000 HD
BRANCH   7  11
ATOM     11  C   UNL     1       3.296   7.202  17.819  0.00  0.00    +0.000 C 
BRANCH  11  16
ATOM     12  C   UNL     1       2.123   3.544  18.438  0.00  0.00    +0.000 A 
ATOM     13  C   UNL     1       3.134   2.848  17.769  0.00  0.00    +0.000 A 
ATOM     14  C   UNL     1       4.186   3.545  17.165  0.00  0.00    +0.000 A 
ATOM     15  C   UNL     1       4.226   4.942  17.194  0.00  0.00    +0.000 A 
ATOM     16  C   UNL     1       3.208   5.680  17.810  0.00  0.00    +0.000 A 
ATOM     17  C   UNL     1       2.166   4.962  18.450  0.00  0.00    +0.000 A 
BRANCH  12  19
ATOM     18  N   UNL     1       0.715   3.014  20.409  0.00  0.00    +0.000 N 
ATOM     19  C   UNL     1       0.960   2.820  19.068  0.00  0.00    +0.000 C 
ATOM     20  O   UNL     1       0.260   2.077  18.397  0.00  0.00    +0.000 OA
ATOM     21  H   UNL     1      -0.011   2.474  20.880  0.00  0.00    +0.000 HD
ATOM     22  H   UNL     1       1.192   3.685  20.983  0.00  0.00    +0.000 HD
ENDBRANCH  12  19
ENDBRANCH  11  16
ENDBRANCH   7  11
ENDBRANCH   1   8
BRANCH   4  23
ATOM     23  C   UNL     1      -1.382  11.345  23.077  0.00  0.00    +0.000 C 
BRANCH  23  24
ATOM     24  S   UNL     1      -2.063  13.000  22.763  0.00  0.00    +0.000 S 
BRANCH  24  25
ATOM     25  C   UNL     1      -3.663  12.881  22.057  0.00  0.00    +0.000 A 
ATOM     26  N   UNL     1      -4.876  12.715  22.549  0.00  0.00    +0.000 NA
ATOM     27  C   UNL     1      -5.729  12.571  21.428  0.00  0.00    +0.000 A 
ATOM     28  C   UNL     1      -7.139  12.351  21.292  0.00  0.00    +0.000 A 
ATOM     29  C   UNL     1      -7.760  12.222  20.026  0.00  0.00    +0.000 A 
ATOM     30  C   UNL     1      -6.932  12.324  18.879  0.00  0.00    +0.000 A 
ATOM     31  C   UNL     1      -5.546  12.545  18.976  0.00  0.00    +0.000 A 
ATOM     32  C   UNL     1      -4.988  12.663  20.257  0.00  0.00    +0.000 A 
ATOM     33  N   UNL     1      -3.698  12.869  20.682  0.00  0.00    +0.000 N 
ATOM     34  H   UNL     1      -2.884  12.964  20.097  0.00  0.00    +0.000 HD
ENDBRANCH  24  25
ENDBRANCH  23  24
ENDBRANCH   4  23
TORSDOF 7
ENDMDL
MODEL 3
REMARK VINA RESULT:      -8.4      3.399     11.326
REMARK  Name = 
REMARK  7 active torsions:
REMARK  status: ('A' for Active; 'I' for Inactive)
REMARK    1  A    between atoms: C_2  and  C_4
REMARK    2  A    between atoms: C_8  and  C_9
REMARK    3  A    between atoms: C_9  and  N_10
REMARK    4  A    between atoms: C_11  and  C_13
REMARK    5  A    between atoms: C_16  and  C_17
REMARK    6  A    between atoms: C_17  and  S_18
REMARK    7  A    between atoms: S_18  and  C_19
REMARK                            x       y       z     vdW  Elec       q    Type
REMARK                         _______ _______ _______ _____ _____    ______ ____
ROOT
ATOM      1  C   UNL     1       1.845   7.818  19.502  0.00  0.00    +0.000 A 
ATOM      2  C   UNL     1       1.598   8.923  18.677  0.00  0.00    +0.000 A 
ATOM      3  C   UNL     1       0.987  10.100  19.193  0.00  0.00    +0.000 A 
ATOM      4  C   UNL     1       0.607  10.220  20.545  0.00  0.00    +0.000 A 
ATOM      5  C   UNL     1       0.818   9.087  21.351  0.00  0.00    +0.000 A 
ATOM      6  C   UNL     1       1.419   7.910  20.836  0.00  0.00    +0.000 A 
ENDROOT
BRANCH   1   8
ATOM      7  N   UNL     1       3.311   5.833  19.905  0.00  0.00    +0.000 N 
ATOM      8  C   UNL     1       2.498   6.534  19.023  0.00  0.00    +0.000 C 
ATOM      9  O   UNL     1       2.273   6.137  17.883  0.00  0.00    +0.000 OA
ATOM     10  H   UNL     1       3.420   6.167  20.852  0.00  0.00    +0.000 HD
BRANCH   7  11
ATOM     11  C   UNL     1       4.060   4.623  19.533  0.00  0.00    +0.000 C 
BRANCH  11  16
ATOM     12  C   UNL     1       6.749   4.866  16.731  0.00  0.00    +0.000 A 
ATOM     13  C   UNL     1       7.800   5.443  17.452  0.00  0.00    +0.000 A 
ATOM     14  C   UNL     1       7.651   5.713  18.816  0.00  0.00    +0.000 A 
ATOM     15  C   UNL     1       6.446   5.439  19.470  0.00  0.00    +0.000 A 
ATOM     16  C   UNL     1       5.353   4.908  18.777  0.00  0.00    +0.000 A 
ATOM     17  C   UNL     1       5.527   4.604  17.403  0.00  0.00    +0.000 A 
BRANCH  12  19
ATOM     18  N   UNL     1       6.170   3.538  14.719  0.00  0.00    +0.000 N 
ATOM     19  C   UNL     1       6.871   4.596  15.253  0.00  0.00    +0.000 C 
ATOM     20  O   UNL     1       7.580   5.304  14.553  0.00  0.00    +0.000 OA
ATOM     21  H   UNL     1       6.298   3.281  13.740  0.00  0.00    +0.000 HD
ATOM     22  H   UNL     1       5.498   2.989  15.224  0.00  0.00    +0.000 HD
ENDBRANCH  12  19
ENDBRANCH  11  16
ENDBRANCH   7  11
ENDBRANCH   1   8
BRANCH   4  23
ATOM     23  C   UNL     1       0.039  11.541  21.122  0.00  0.00    +0.000 C 
BRANCH  23  24
ATOM     24  S   UNL     1      -0.608  12.686  19.868  0.00  0.00    +0.000 S 
BRANCH  24  25
ATOM     25  C   UNL     1      -2.231  12.223  19.395  0.00  0.00    +0.000 A 
ATOM     26  N   UNL     1      -2.737  11.561  18.372  0.00  0.00    +0.000 NA
ATOM     27  C   UNL     1      -4.143  11.646  18.517  0.00  0.00    +0.000 A 
ATOM     28  C   UNL     1      -5.241  11.153  17.737  0.00  0.00    +0.000 A 
ATOM     29  C   UNL     1      -6.588  11.397  18.098  0.00  0.00    +0.000 A 
ATOM     30  C   UNL     1      -6.822  12.150  19.277  0.00  0.00    +0.000 A 
ATOM     31  C   UNL     1      -5.770  12.645  20.069  0.00  0.00    +0.000 A 
ATOM     32  C   UNL     1      -4.456  12.372  19.659  0.00  0.00    +0.000 A 
ATOM     33  N   UNL     1      -3.238  12.711  20.195  0.00  0.00    +0.000 N 
ATOM     34  H   UNL     1      -3.082  13.261  21.024  0.00  0.00    +0.000 HD
ENDBRANCH  24  25
ENDBRANCH  23  24
ENDBRANCH   4  23
TORSDOF 7
ENDMDL
MODEL 4
REMARK VINA RESULT:      -8.3      2.809      3.909
REMARK  Name = 
REMARK  7 active torsions:
REMARK  status: ('A' for Active; 'I' for Inactive)
REMARK    1  A    between atoms: C_2  and  C_4
REMARK    2  A    between atoms: C_8  and  C_9
REMARK    3  A    between atoms: C_9  and  N_10
REMARK    4  A    between atoms: C_11  and  C_13
REMARK    5  A    between atoms: C_16  and  C_17
REMARK    6  A    between atoms: C_17  and  S_18
REMARK    7  A    between atoms: S_18  and  C_19
REMARK                            x       y       z     vdW  Elec       q    Type
REMARK                         _______ _______ _______ _____ _____    ______ ____
ROOT
ATOM      1  C   UNL     1       1.739   6.575  19.727  0.00  0.00    +0.000 A 
ATOM      2  C   UNL     1       1.580   5.607  20.728  0.00  0.00    +0.000 A 
ATOM      3  C   UNL     1       1.597   4.220  20.414  0.00  0.00    +0.000 A 
ATOM      4  C   UNL     1       1.778   3.747  19.098  0.00  0.00    +0.000 A 
ATOM      5  C   UNL     1       1.890   4.729  18.097  0.00  0.00    +0.000 A 
ATOM      6  C   UNL     1       1.864   6.114  18.408  0.00  0.00    +0.000 A 
ENDROOT
BRANCH   1   8
ATOM      7  N   UNL     1       1.075   8.549  21.112  0.00  0.00    +0.000 N 
ATOM      8  C   UNL     1       1.738   8.070  19.988  0.00  0.00    +0.000 C 
ATOM      9  O   UNL     1       2.341   8.812  19.218  0.00  0.00    +0.000 OA
ATOM     10  H   UNL     1       0.643   7.895  21.749  0.00  0.00    +0.000 HD
BRANCH   7  11
ATOM     11  C   UNL     1       0.937   9.979  21.426  0.00  0.00    +0.000 C 
BRANCH  11  16
ATOM     12  C   UNL     1      -1.645  11.080  18.731  0.00  0.00    +0.000 A 
ATOM     13  C   UNL     1      -2.417  11.970  19.484  0.00  0.00    +0.000 A 
ATOM     14  C   UNL     1      -2.088  12.232  20.818  0.00  0.00    +0.000 A 
ATOM     15  C   UNL     1      -1.006  11.588  21.425  0.00  0.00    +0.000 A 
ATOM     16  C   UNL     1      -0.236  10.653  20.723  0.00  0.00    +0.000 A 
ATOM     17  C   UNL     1      -0.557  10.423  19.361  0.00  0.00    +0.000 A 
BRANCH  12  19
ATOM     18  N   UNL     1      -2.345  11.787  16.460  0.00  0.00    +0.000 N 
ATOM     19  C   UNL     1      -1.999  10.754  17.302  0.00  0.00    +0.000 C 
ATOM     20  O   UNL     1      -1.979   9.597  16.911  0.00  0.00    +0.000 OA
ATOM     21  H   UNL     1      -2.669  11.589  15.513  0.00  0.00    +0.000 HD
ATOM     22  H   UNL     1      -2.281  12.760  16.698  0.00  0.00    +0.000 HD
ENDBRANCH  12  19
ENDBRANCH  11  16
ENDBRANCH   7  11
ENDBRANCH   1   8
BRANCH   4  23
ATOM     23  C   UNL     1       1.901   2.236  18.780  0.00  0.00    +0.000 C 
BRANCH  23  24
ATOM     24  S   UNL     1       3.551   1.723  18.219  0.00  0.00    +0.000 S 
BRANCH  24  25
ATOM     25  C   UNL     1       4.548   3.125  17.882  0.00  0.00    +0.000 A 
ATOM     26  N   UNL     1       4.866   3.785  16.785  0.00  0.00    +0.000 NA
ATOM     27  C   UNL     1       5.823   4.750  17.181  0.00  0.00    +0.000 A 
ATOM     28  C   UNL     1       6.558   5.752  16.467  0.00  0.00    +0.000 A 
ATOM     29  C   UNL     1       7.493   6.599  17.110  0.00  0.00    +0.000 A 
ATOM     30  C   UNL     1       7.678   6.428  18.505  0.00  0.00    +0.000 A 
ATOM     31  C   UNL     1       6.970   5.458  19.239  0.00  0.00    +0.000 A 
ATOM     32  C   UNL     1       6.059   4.647  18.546  0.00  0.00    +0.000 A 
ATOM     33  N   UNL     1       5.237   3.628  18.961  0.00  0.00    +0.000 N 
ATOM     34  H   UNL     1       5.160   3.265  19.897  0.00  0.00    +0.000 HD
ENDBRANCH  24  25
ENDBRANCH  23  24
ENDBRANCH   4  23
TORSDOF 7
ENDMDL
MODEL 5
REMARK VINA RESULT:      -8.3      1.693      2.177
REMARK  Name = 
REMARK  7 active torsions:
REMARK  status: ('A' for Active; 'I' for Inactive)
REMARK    1  A    between atoms: C_2  and  C_4
REMARK    2  A    between atoms: C_8  and  C_9
REMARK    3  A    between atoms: C_9  and  N_10
REMARK    4  A    between atoms: C_11  and  C_13
REMARK    5  A    between atoms: C_16  and  C_17
REMARK    6  A    between atoms: C_17  and  S_18
REMARK    7  A    between atoms: S_18  and  C_19
REMARK                            x       y       z     vdW  Elec       q    Type
REMARK                         _______ _______ _______ _____ _____    ______ ____
ROOT
ATOM      1  C   UNL     1       1.439   8.905  19.499  0.00  0.00    +0.000 A 
ATOM      2  C   UNL     1       1.719   7.821  20.343  0.00  0.00    +0.000 A 
ATOM      3  C   UNL     1       2.451   6.697  19.871  0.00  0.00    +0.000 A 
ATOM      4  C   UNL     1       2.935   6.613  18.549  0.00  0.00    +0.000 A 
ATOM      5  C   UNL     1       2.608   7.686  17.701  0.00  0.00    +0.000 A 
ATOM      6  C   UNL     1       1.870   8.804  18.167  0.00  0.00    +0.000 A 
ENDROOT
BRANCH   1   8
ATOM      7  N   UNL     1       0.195  11.005  18.957  0.00  0.00    +0.000 N 
ATOM      8  C   UNL     1       0.671  10.140  19.934  0.00  0.00    +0.000 C 
ATOM      9  O   UNL     1       0.469  10.328  21.131  0.00  0.00    +0.000 OA
ATOM     10  H   UNL     1       0.334  10.778  17.983  0.00  0.00    +0.000 HD
BRANCH   7  11
ATOM     11  C   UNL     1      -0.491  12.271  19.257  0.00  0.00    +0.000 C 
BRANCH  11  16
ATOM     12  C   UNL     1      -4.285  12.507  20.087  0.00  0.00    +0.000 A 
ATOM     13  C   UNL     1      -4.824  11.968  18.915  0.00  0.00    +0.000 A 
ATOM     14  C   UNL     1      -3.979  11.510  17.899  0.00  0.00    +0.000 A 
ATOM     15  C   UNL     1      -2.591  11.609  18.026  0.00  0.00    +0.000 A 
ATOM     16  C   UNL     1      -2.010  12.187  19.161  0.00  0.00    +0.000 A 
ATOM     17  C   UNL     1      -2.875  12.615  20.200  0.00  0.00    +0.000 A 
BRANCH  12  19
ATOM     18  N   UNL     1      -4.985  12.574  22.465  0.00  0.00    +0.000 N 
ATOM     19  C   UNL     1      -5.173  13.041  21.182  0.00  0.00    +0.000 C 
ATOM     20  O   UNL     1      -6.038  13.865  20.929  0.00  0.00    +0.000 OA
ATOM     21  H   UNL     1      -5.624  12.853  23.210  0.00  0.00    +0.000 HD
ATOM     22  H   UNL     1      -4.230  11.976  22.747  0.00  0.00    +0.000 HD
ENDBRANCH  12  19
ENDBRANCH  11  16
ENDBRANCH   7  11
ENDBRANCH   1   8
BRANCH   4  23
ATOM     23  C   UNL     1       3.820   5.434  18.074  0.00  0.00    +0.000 C 
BRANCH  23  24
ATOM     24  S   UNL     1       5.582   5.844  17.906  0.00  0.00    +0.000 S 
BRANCH  24  25
ATOM     25  C   UNL     1       6.171   5.379  16.322  0.00  0.00    +0.000 A 
ATOM     26  N   UNL     1       7.184   5.764  15.568  0.00  0.00    +0.000 NA
ATOM     27  C   UNL     1       7.025   5.084  14.336  0.00  0.00    +0.000 A 
ATOM     28  C   UNL     1       7.775   5.082  13.114  0.00  0.00    +0.000 A 
ATOM     29  C   UNL     1       7.384   4.308  11.995  0.00  0.00    +0.000 A 
ATOM     30  C   UNL     1       6.214   3.517  12.124  0.00  0.00    +0.000 A 
ATOM     31  C   UNL     1       5.457   3.491  13.309  0.00  0.00    +0.000 A 
ATOM     32  C   UNL     1       5.893   4.281  14.384  0.00  0.00    +0.000 A 
ATOM     33  N   UNL     1       5.385   4.477  15.645  0.00  0.00    +0.000 N 
ATOM     34  H   UNL     1       4.549   4.063  16.023  0.00  0.00    +0.000 HD
ENDBRANCH  24  25
ENDBRANCH  23  24
ENDBRANCH   4  23
TORSDOF 7
ENDMDL
MODEL 6
REMARK VINA RESULT:      -8.2      2.469      3.608
REMARK  Name = 
REMARK  7 active torsions:
REMARK  status: ('A' for Active; 'I' for Inactive)
REMARK    1  A    between atoms: C_2  and  C_4
REMARK    2  A    between atoms: C_8  and  C_9
REMARK    3  A    between atoms: C_9  and  N_10
REMARK    4  A    between atoms: C_11  and  C_13
REMARK    5  A    between atoms: C_16  and  C_17
REMARK    6  A    between atoms: C_17  and  S_18
REMARK    7  A    between atoms: S_18  and  C_19
REMARK                            x       y       z     vdW  Elec       q    Type
REMARK                         _______ _______ _______ _____ _____    ______ ____
ROOT
ATOM      1  C   UNL     1       1.808   7.187  19.224  0.00  0.00    +0.000 A 
ATOM      2  C   UNL     1       1.958   6.416  18.063  0.00  0.00    +0.000 A 
ATOM      3  C   UNL     1       2.044   4.998  18.132  0.00  0.00    +0.000 A 
ATOM      4  C   UNL     1       1.979   4.298  19.354  0.00  0.00    +0.000 A 
ATOM      5  C   UNL     1       1.874   5.085  20.514  0.00  0.00    +0.000 A 
ATOM      6  C   UNL     1       1.798   6.501  20.448  0.00  0.00    +0.000 A 
ENDROOT
BRANCH   1   8
ATOM      7  N   UNL     1       1.023   9.318  20.270  0.00  0.00    +0.000 N 
ATOM      8  C   UNL     1       1.703   8.701  19.227  0.00  0.00    +0.000 C 
ATOM      9  O   UNL     1       2.239   9.340  18.326  0.00  0.00    +0.000 OA
ATOM     10  H   UNL     1       0.648   8.755  21.020  0.00  0.00    +0.000 HD
BRANCH   7  11
ATOM     11  C   UNL     1       0.785  10.768  20.340  0.00  0.00    +0.000 C 
BRANCH  11  16
ATOM     12  C   UNL     1      -2.377  11.242  18.123  0.00  0.00    +0.000 A 
ATOM     13  C   UNL     1      -3.148  12.047  18.968  0.00  0.00    +0.000 A 
ATOM     14  C   UNL     1      -2.641  12.452  20.207  0.00  0.00    +0.000 A 
ATOM     15  C   UNL     1      -1.375  12.037  20.630  0.00  0.00    +0.000 A 
ATOM     16  C   UNL     1      -0.590  11.192  19.837  0.00  0.00    +0.000 A 
ATOM     17  C   UNL     1      -1.099  10.816  18.568  0.00  0.00    +0.000 A 
BRANCH  12  19
ATOM     18  N   UNL     1      -3.764  11.588  16.097  0.00  0.00    +0.000 N 
ATOM     19  C   UNL     1      -2.913  10.763  16.798  0.00  0.00    +0.000 C 
ATOM     20  O   UNL     1      -2.596   9.665  16.365  0.00  0.00    +0.000 OA
ATOM     21  H   UNL     1      -4.207  11.256  15.239  0.00  0.00    +0.000 HD
ATOM     22  H   UNL     1      -3.978  12.534  16.354  0.00  0.00    +0.000 HD
ENDBRANCH  12  19
ENDBRANCH  11  16
ENDBRANCH   7  11
ENDBRANCH   1   8
BRANCH   4  23
ATOM     23  C   UNL     1       1.968   2.750  19.411  0.00  0.00    +0.000 C 
BRANCH  23  24
ATOM     24  S   UNL     1       3.583   1.980  19.097  0.00  0.00    +0.000 S 
BRANCH  24  25
ATOM     25  C   UNL     1       4.795   3.205  18.775  0.00  0.00    +0.000 A 
ATOM     26  N   UNL     1       5.519   4.003  19.536  0.00  0.00    +0.000 NA
ATOM     27  C   UNL     1       6.217   4.853  18.645  0.00  0.00    +0.000 A 
ATOM     28  C   UNL     1       7.142   5.932  18.841  0.00  0.00    +0.000 A 
ATOM     29  C   UNL     1       7.696   6.651  17.755  0.00  0.00    +0.000 A 
ATOM     30  C   UNL     1       7.309   6.263  16.447  0.00  0.00    +0.000 A 
ATOM     31  C   UNL     1       6.408   5.206  16.218  0.00  0.00    +0.000 A 
ATOM     32  C   UNL     1       5.890   4.532  17.334  0.00  0.00    +0.000 A 
ATOM     33  N   UNL     1       5.006   3.487  17.447  0.00  0.00    +0.000 N 
ATOM     34  H   UNL     1       4.544   3.011  16.689  0.00  0.00    +0.000 HD
ENDBRANCH  24  25
ENDBRANCH  23  24
ENDBRANCH   4  23
TORSDOF 7
ENDMDL
MODEL 7
REMARK VINA RESULT:      -8.2      1.005      1.509
REMARK  Name = 
REMARK  7 active torsions:
REMARK  status: ('A' for Active; 'I' for Inactive)
REMARK    1  A    between atoms: C_2  and  C_4
REMARK    2  A    between atoms: C_8  and  C_9
REMARK    3  A    between atoms: C_9  and  N_10
REMARK    4  A    between atoms: C_11  and  C_13
REMARK    5  A    between atoms: C_16  and  C_17
REMARK    6  A    between atoms: C_17  and  S_18
REMARK    7  A    between atoms: S_18  and  C_19
REMARK                            x       y       z     vdW  Elec       q    Type
REMARK                         _______ _______ _______ _____ _____    ______ ____
ROOT
ATOM      1  C   UNL     1       2.149   8.710  18.529  0.00  0.00    +0.000 A 
ATOM      2  C   UNL     1       1.930   7.785  19.558  0.00  0.00    +0.000 A 
ATOM      3  C   UNL     1       2.589   6.525  19.562  0.00  0.00    +0.000 A 
ATOM      4  C   UNL     1       3.490   6.142  18.548  0.00  0.00    +0.000 A 
ATOM      5  C   UNL     1       3.666   7.060  17.497  0.00  0.00    +0.000 A 
ATOM      6  C   UNL     1       3.002   8.315  17.487  0.00  0.00    +0.000 A 
ENDROOT
BRANCH   1   8
ATOM      7  N   UNL     1       0.115  10.159  18.662  0.00  0.00    +0.000 N 
ATOM      8  C   UNL     1       1.488  10.075  18.462  0.00  0.00    +0.000 C 
ATOM      9  O   UNL     1       2.183  11.067  18.260  0.00  0.00    +0.000 OA
ATOM     10  H   UNL     1      -0.406   9.323  18.884  0.00  0.00    +0.000 HD
BRANCH   7  11
ATOM     11  C   UNL     1      -0.648  11.411  18.542  0.00  0.00    +0.000 C 
BRANCH  11  16
ATOM     12  C   UNL     1      -4.501  11.802  18.917  0.00  0.00    +0.000 A 
ATOM     13  C   UNL     1      -4.932  10.735  18.123  0.00  0.00    +0.000 A 
ATOM     14  C   UNL     1      -3.998   9.891  17.512  0.00  0.00    +0.000 A 
ATOM     15  C   UNL     1      -2.627  10.119  17.661  0.00  0.00    +0.000 A 
ATOM     16  C   UNL     1      -2.152  11.204  18.406  0.00  0.00    +0.000 A 
ATOM     17  C   UNL     1      -3.107  12.031  19.050  0.00  0.00    +0.000 A 
BRANCH  12  19
ATOM     18  N   UNL     1      -5.653  13.996  19.003  0.00  0.00    +0.000 N 
ATOM     19  C   UNL     1      -5.485  12.747  19.558  0.00  0.00    +0.000 C 
ATOM     20  O   UNL     1      -6.113  12.405  20.548  0.00  0.00    +0.000 OA
ATOM     21  H   UNL     1      -6.248  14.685  19.463  0.00  0.00    +0.000 HD
ATOM     22  H   UNL     1      -5.241  14.293  18.137  0.00  0.00    +0.000 HD
ENDBRANCH  12  19
ENDBRANCH  11  16
ENDBRANCH   7  11
ENDBRANCH   1   8
BRANCH   4  23
ATOM     23  C   UNL     1       4.282   4.813  18.614  0.00  0.00    +0.000 C 
BRANCH  23  24
ATOM     24  S   UNL     1       6.077   5.001  18.398  0.00  0.00    +0.000 S 
BRANCH  24  25
ATOM     25  C   UNL     1       6.511   4.842  16.708  0.00  0.00    +0.000 A 
ATOM     26  N   UNL     1       7.403   5.423  15.929  0.00  0.00    +0.000 NA
ATOM     27  C   UNL     1       7.151   4.935  14.624  0.00  0.00    +0.000 A 
ATOM     28  C   UNL     1       7.755   5.188  13.349  0.00  0.00    +0.000 A 
ATOM     29  C   UNL     1       7.291   4.569  12.163  0.00  0.00    +0.000 A 
ATOM     30  C   UNL     1       6.198   3.673  12.277  0.00  0.00    +0.000 A 
ATOM     31  C   UNL     1       5.585   3.397  13.513  0.00  0.00    +0.000 A 
ATOM     32  C   UNL     1       6.087   4.042  14.653  0.00  0.00    +0.000 A 
ATOM     33  N   UNL     1       5.714   3.995  15.974  0.00  0.00    +0.000 N 
ATOM     34  H   UNL     1       4.956   3.458  16.362  0.00  0.00    +0.000 HD
ENDBRANCH  24  25
ENDBRANCH  23  24
ENDBRANCH   4  23
TORSDOF 7
ENDMDL
MODEL 8
REMARK VINA RESULT:      -8.2      4.217     10.965
REMARK  Name = 
REMARK  7 active torsions:
REMARK  status: ('A' for Active; 'I' for Inactive)
REMARK    1  A    between atoms: C_2  and  C_4
REMARK    2  A    between atoms: C_8  and  C_9
REMARK    3  A    between atoms: C_9  and  N_10
REMARK    4  A    between atoms: C_11  and  C_13
REMARK    5  A    between atoms: C_16  and  C_17
REMARK    6  A    between atoms: C_17  and  S_18
REMARK    7  A    between atoms: S_18  and  C_19
REMARK                            x       y       z     vdW  Elec       q    Type
REMARK                         _______ _______ _______ _____ _____    ______ ____
ROOT
ATOM      1  C   UNL     1       2.029   7.104  19.725  0.00  0.00    +0.000 A 
ATOM      2  C   UNL     1       1.422   7.301  20.972  0.00  0.00    +0.000 A 
ATOM      3  C   UNL     1       0.728   8.508  21.266  0.00  0.00    +0.000 A 
ATOM      4  C   UNL     1       0.610   9.556  20.331  0.00  0.00    +0.000 A 
ATOM      5  C   UNL     1       1.263   9.364  19.100  0.00  0.00    +0.000 A 
ATOM      6  C   UNL     1       1.963   8.164  18.809  0.00  0.00    +0.000 A 
ENDROOT
BRANCH   1   8
ATOM      7  N   UNL     1       2.745   5.428  18.013  0.00  0.00    +0.000 N 
ATOM      8  C   UNL     1       2.778   5.842  19.339  0.00  0.00    +0.000 C 
ATOM      9  O   UNL     1       3.412   5.236  20.198  0.00  0.00    +0.000 OA
ATOM     10  H   UNL     1       2.259   5.991  17.329  0.00  0.00    +0.000 HD
BRANCH   7  11
ATOM     11  C   UNL     1       3.363   4.182  17.534  0.00  0.00    +0.000 C 
BRANCH  11  16
ATOM     12  C   UNL     1       6.526   4.457  15.285  0.00  0.00    +0.000 A 
ATOM     13  C   UNL     1       7.506   4.643  16.265  0.00  0.00    +0.000 A 
ATOM     14  C   UNL     1       7.154   4.644  17.619  0.00  0.00    +0.000 A 
ATOM     15  C   UNL     1       5.821   4.490  18.010  0.00  0.00    +0.000 A 
ATOM     16  C   UNL     1       4.802   4.350  17.060  0.00  0.00    +0.000 A 
ATOM     17  C   UNL     1       5.174   4.314  15.693  0.00  0.00    +0.000 A 
BRANCH  12  19
ATOM     18  N   UNL     1       6.352   3.506  13.001  0.00  0.00    +0.000 N 
ATOM     19  C   UNL     1       6.872   4.485  13.818  0.00  0.00    +0.000 C 
ATOM     20  O   UNL     1       7.601   5.359  13.373  0.00  0.00    +0.000 OA
ATOM     21  H   UNL     1       6.636   3.451  12.023  0.00  0.00    +0.000 HD
ATOM     22  H   UNL     1       5.672   2.826  13.291  0.00  0.00    +0.000 HD
ENDBRANCH  12  19
ENDBRANCH  11  16
ENDBRANCH   7  11
ENDBRANCH   1   8
BRANCH   4  23
ATOM     23  C   UNL     1      -0.235  10.821  20.621  0.00  0.00    +0.000 C 
BRANCH  23  24
ATOM     24  S   UNL     1      -0.881  11.644  19.135  0.00  0.00    +0.000 S 
BRANCH  24  25
ATOM     25  C   UNL     1      -0.060  13.171  18.874  0.00  0.00    +0.000 A 
ATOM     26  N   UNL     1       1.207  13.531  18.795  0.00  0.00    +0.000 NA
ATOM     27  C   UNL     1       1.199  14.944  18.701  0.00  0.00    +0.000 A 
ATOM     28  C   UNL     1       2.239  15.926  18.604  0.00  0.00    +0.000 A 
ATOM     29  C   UNL     1       1.959  17.313  18.541  0.00  0.00    +0.000 A 
ATOM     30  C   UNL     1       0.596  17.706  18.569  0.00  0.00    +0.000 A 
ATOM     31  C   UNL     1      -0.450  16.769  18.658  0.00  0.00    +0.000 A 
ATOM     32  C   UNL     1      -0.110  15.410  18.720  0.00  0.00    +0.000 A 
ATOM     33  N   UNL     1      -0.877  14.275  18.817  0.00  0.00    +0.000 N 
ATOM     34  H   UNL     1      -1.882  14.236  18.876  0.00  0.00    +0.000 HD
ENDBRANCH  24  25
ENDBRANCH  23  24
ENDBRANCH   4  23
TORSDOF 7
ENDMDL
MODEL 9
REMARK VINA RESULT:      -8.2      2.701      3.794
REMARK  Name = 
REMARK  7 active torsions:
REMARK  status: ('A' for Active; 'I' for Inactive)
REMARK    1  A    between atoms: C_2  and  C_4
REMARK    2  A    between atoms: C_8  and  C_9
REMARK    3  A    between atoms: C_9  and  N_10
REMARK    4  A    between atoms: C_11  and  C_13
REMARK    5  A    between atoms: C_16  and  C_17
REMARK    6  A    between atoms: C_17  and  S_18
REMARK    7  A    between atoms: S_18  and  C_19
REMARK                            x       y       z     vdW  Elec       q    Type
REMARK                         _______ _______ _______ _____ _____    ______ ____
ROOT
ATOM      1  C   UNL     1       1.633   6.796  20.071  0.00  0.00    +0.000 A 
ATOM      2  C   UNL     1       1.956   6.487  18.743  0.00  0.00    +0.000 A 
ATOM      3  C   UNL     1       2.132   5.138  18.327  0.00  0.00    +0.000 A 
ATOM      4  C   UNL     1       1.989   4.052  19.214  0.00  0.00    +0.000 A 
ATOM      5  C   UNL     1       1.710   4.378  20.553  0.00  0.00    +0.000 A 
ATOM      6  C   UNL     1       1.543   5.723  20.971  0.00  0.00    +0.000 A 
ENDROOT
BRANCH   1   8
ATOM      7  N   UNL     1       1.082   9.203  19.675  0.00  0.00    +0.000 N 
ATOM      8  C   UNL     1       1.423   8.209  20.584  0.00  0.00    +0.000 C 
ATOM      9  O   UNL     1       1.535   8.431  21.787  0.00  0.00    +0.000 OA
ATOM     10  H   UNL     1       0.943   8.961  18.705  0.00  0.00    +0.000 HD
BRANCH   7  11
ATOM     11  C   UNL     1       0.932  10.620  20.039  0.00  0.00    +0.000 C 
BRANCH  11  16
ATOM     12  C   UNL     1      -2.450  11.521  18.338  0.00  0.00    +0.000 A 
ATOM     13  C   UNL     1      -3.037  12.283  19.353  0.00  0.00    +0.000 A 
ATOM     14  C   UNL     1      -2.340  12.526  20.541  0.00  0.00    +0.000 A 
ATOM     15  C   UNL     1      -1.066  11.989  20.744  0.00  0.00    +0.000 A 
ATOM     16  C   UNL     1      -0.460  11.180  19.775  0.00  0.00    +0.000 A 
ATOM     17  C   UNL     1      -1.160  10.970  18.560  0.00  0.00    +0.000 A 
BRANCH  12  19
ATOM     18  N   UNL     1      -4.549  10.991  17.129  0.00  0.00    +0.000 N 
ATOM     19  C   UNL     1      -3.191  11.215  17.062  0.00  0.00    +0.000 C 
ATOM     20  O   UNL     1      -2.594  11.165  15.998  0.00  0.00    +0.000 OA
ATOM     21  H   UNL     1      -5.061  10.699  16.296  0.00  0.00    +0.000 HD
ATOM     22  H   UNL     1      -5.105  11.116  17.955  0.00  0.00    +0.000 HD
ENDBRANCH  12  19
ENDBRANCH  11  16
ENDBRANCH   7  11
ENDBRANCH   1   8
BRANCH   4  23
ATOM     23  C   UNL     1       2.079   2.583  18.730  0.00  0.00    +0.000 C 
BRANCH  23  24
ATOM     24  S   UNL     1       3.700   2.117  18.055  0.00  0.00    +0.000 S 
BRANCH  24  25
ATOM     25  C   UNL     1       4.709   3.536  17.850  0.00  0.00    +0.000 A 
ATOM     26  N   UNL     1       4.962   4.345  16.839  0.00  0.00    +0.000 NA
ATOM     27  C   UNL     1       5.975   5.224  17.296  0.00  0.00    +0.000 A 
ATOM     28  C   UNL     1       6.683   6.308  16.680  0.00  0.00    +0.000 A 
ATOM     29  C   UNL     1       7.688   7.034  17.365  0.00  0.00    +0.000 A 
ATOM     30  C   UNL     1       7.972   6.654  18.701  0.00  0.00    +0.000 A 
ATOM     31  C   UNL     1       7.293   5.599  19.338  0.00  0.00    +0.000 A 
ATOM     32  C   UNL     1       6.309   4.916  18.608  0.00  0.00    +0.000 A 
ATOM     33  N   UNL     1       5.492   3.861  18.932  0.00  0.00    +0.000 N 
ATOM     34  H   UNL     1       5.475   3.365  19.809  0.00  0.00    +0.000 HD
ENDBRANCH  24  25
ENDBRANCH  23  24
ENDBRANCH   4  23
TORSDOF 7
ENDMDL
