MODEL 1
REMARK VINA RESULT:      -7.7      0.000      0.000
REMARK  Name = 
REMARK  2 active torsions:
REMARK  status: ('A' for Active; 'I' for Inactive)
REMARK    1  A    between atoms: C_1  and  C_2
REMARK    2  A    between atoms: C_13  and  C_14
REMARK                            x       y       z     vdW  Elec       q    Type
REMARK                         _______ _______ _______ _____ _____    ______ ____
ROOT
ATOM      1  C   UNL     1      -3.049  10.022  14.729  0.00  0.00    +0.000 C 
ATOM      2  C   UNL     1      -3.278  10.671  16.062  0.00  0.00    +0.000 A 
ATOM      3  N   UNL     1      -2.204  10.839  16.867  0.00  0.00    +0.000 NA
ATOM      4  C   UNL     1      -2.353  11.412  18.096  0.00  0.00    +0.000 A 
ATOM      5  N   UNL     1      -1.226  11.582  18.918  0.00  0.00    +0.000 N 
ATOM      6  C   UNL     1      -1.016  12.526  19.965  0.00  0.00    +0.000 C 
ATOM      7  C   UNL     1       0.411  12.761  19.428  0.00  0.00    +0.000 C 
ATOM      8  C   UNL     1       1.557  12.628  20.438  0.00  0.00    +0.000 C 
ATOM      9  C   UNL     1       1.616  13.865  21.323  0.00  0.00    +0.000 C 
ATOM     10  O   UNL     1       1.770  15.040  20.528  0.00  0.00    +0.000 OA
ATOM     11  C   UNL     1       0.650  15.241  19.665  0.00  0.00    +0.000 C 
ATOM     12  C   UNL     1       0.538  14.094  18.665  0.00  0.00    +0.000 C 
ATOM     13  C   UNL     1       0.152  11.521  18.509  0.00  0.00    +0.000 C 
ATOM     14  C   UNL     1      -3.653  11.795  18.471  0.00  0.00    +0.000 A 
ATOM     15  C   UNL     1      -4.284  12.370  19.615  0.00  0.00    +0.000 A 
ATOM     16  C   UNL     1      -5.619  12.546  19.324  0.00  0.00    +0.000 A 
ATOM     17  N   UNL     1      -5.834  12.057  18.062  0.00  0.00    +0.000 N 
ATOM     18  C   UNL     1      -4.660  11.591  17.539  0.00  0.00    +0.000 A 
ATOM     19  N   UNL     1      -4.543  11.042  16.325  0.00  0.00    +0.000 NA
ATOM     20  H   UNL     1      -6.714  12.034  17.567  0.00  0.00    +0.000 HD
ENDROOT
BRANCH  13  21
ATOM     21  C   UNL     1       0.822  10.117  18.894  0.00  0.00    +0.000 A 
ATOM     22  C   UNL     1       0.704   9.515  20.167  0.00  0.00    +0.000 A 
ATOM     23  C   UNL     1       1.344   8.316  20.493  0.00  0.00    +0.000 A 
ATOM     24  C   UNL     1       2.128   7.669  19.547  0.00  0.00    +0.000 A 
ATOM     25  C   UNL     1       2.265   8.219  18.278  0.00  0.00    +0.000 A 
ATOM     26  C   UNL     1       1.618   9.419  17.961  0.00  0.00    +0.000 A 
ENDBRANCH  13  21
TORSDOF 1
ENDMDL
MODEL 2
REMARK VINA RESULT:      -7.3      1.067      1.206
REMARK  Name = 
REMARK  2 active torsions:
REMARK  status: ('A' for Active; 'I' for Inactive)
REMARK    1  A    between atoms: C_1  and  C_2
REMARK    2  A    between atoms: C_13  and  C_14
REMARK                            x       y       z     vdW  Elec       q    Type
REMARK                         _______ _______ _______ _____ _____    ______ ____
ROOT
ATOM      1  C   UNL     1      -2.839  10.078  14.888  0.00  0.00    +0.000 C 
ATOM      2  C   UNL     1      -3.394  10.729  16.120  0.00  0.00    +0.000 A 
ATOM      3  N   UNL     1      -2.537  10.972  17.138  0.00  0.00    +0.000 NA
ATOM      4  C   UNL     1      -2.986  11.550  18.289  0.00  0.00    +0.000 A 
ATOM      5  N   UNL     1      -2.081  11.798  19.334  0.00  0.00    +0.000 N 
ATOM      6  C   UNL     1      -2.162  12.767  20.378  0.00  0.00    +0.000 C 
ATOM      7  C   UNL     1      -0.667  13.081  20.162  0.00  0.00    +0.000 C 
ATOM      8  C   UNL     1       0.232  13.031  21.403  0.00  0.00    +0.000 C 
ATOM      9  C   UNL     1       0.024  14.280  22.248  0.00  0.00    +0.000 C 
ATOM     10  O   UNL     1       0.283  15.453  21.476  0.00  0.00    +0.000 OA
ATOM     11  C   UNL     1      -0.627  15.574  20.383  0.00  0.00    +0.000 C 
ATOM     12  C   UNL     1      -0.450  14.410  19.412  0.00  0.00    +0.000 C 
ATOM     13  C   UNL     1      -0.646  11.817  19.241  0.00  0.00    +0.000 C 
ATOM     14  C   UNL     1      -4.357  11.858  18.358  0.00  0.00    +0.000 A 
ATOM     15  C   UNL     1      -5.257  12.408  19.320  0.00  0.00    +0.000 A 
ATOM     16  C   UNL     1      -6.502  12.498  18.737  0.00  0.00    +0.000 A 
ATOM     17  N   UNL     1      -6.404  11.982  17.471  0.00  0.00    +0.000 N 
ATOM     18  C   UNL     1      -5.119  11.581  17.233  0.00  0.00    +0.000 A 
ATOM     19  N   UNL     1      -4.705  11.025  16.089  0.00  0.00    +0.000 NA
ATOM     20  H   UNL     1      -7.150  11.899  16.796  0.00  0.00    +0.000 HD
ENDROOT
BRANCH  13  21
ATOM     21  C   UNL     1       0.001  10.461  19.800  0.00  0.00    +0.000 A 
ATOM     22  C   UNL     1      -0.414   9.829  20.993  0.00  0.00    +0.000 A 
ATOM     23  C   UNL     1       0.203   8.676  21.488  0.00  0.00    +0.000 A 
ATOM     24  C   UNL     1       1.265   8.108  20.796  0.00  0.00    +0.000 A 
ATOM     25  C   UNL     1       1.701   8.690  19.611  0.00  0.00    +0.000 A 
ATOM     26  C   UNL     1       1.075   9.843  19.124  0.00  0.00    +0.000 A 
ENDBRANCH  13  21
TORSDOF 1
ENDMDL
MODEL 3
REMARK VINA RESULT:      -6.9      0.961      1.494
REMARK  Name = 
REMARK  2 active torsions:
REMARK  status: ('A' for Active; 'I' for Inactive)
REMARK    1  A    between atoms: C_1  and  C_2
REMARK    2  A    between atoms: C_13  and  C_14
REMARK                            x       y       z     vdW  Elec       q    Type
REMARK                         _______ _______ _______ _____ _____    ______ ____
ROOT
ATOM      1  C   UNL     1      -3.876  10.747  15.943  0.00  0.00    +0.000 C 
ATOM      2  C   UNL     1      -3.714  11.339  17.312  0.00  0.00    +0.000 A 
ATOM      3  N   UNL     1      -2.458  11.444  17.802  0.00  0.00    +0.000 NA
ATOM      4  C   UNL     1      -2.250  11.962  19.047  0.00  0.00    +0.000 A 
ATOM      5  N   UNL     1      -0.938  12.068  19.539  0.00  0.00    +0.000 N 
ATOM      6  C   UNL     1      -0.421  12.957  20.526  0.00  0.00    +0.000 C 
ATOM      7  C   UNL     1       0.815  13.184  19.632  0.00  0.00    +0.000 C 
ATOM      8  C   UNL     1       2.186  12.978  20.288  0.00  0.00    +0.000 C 
ATOM      9  C   UNL     1       2.525  14.171  21.172  0.00  0.00    +0.000 C 
ATOM     10  O   UNL     1       2.499  15.378  20.410  0.00  0.00    +0.000 OA
ATOM     11  C   UNL     1       1.196  15.645  19.892  0.00  0.00    +0.000 C 
ATOM     12  C   UNL     1       0.778  14.548  18.916  0.00  0.00    +0.000 C 
ATOM     13  C   UNL     1       0.275  11.995  18.770  0.00  0.00    +0.000 C 
ATOM     14  C   UNL     1      -3.387  12.357  19.774  0.00  0.00    +0.000 A 
ATOM     15  C   UNL     1      -3.666  12.893  21.068  0.00  0.00    +0.000 A 
ATOM     16  C   UNL     1      -5.023  13.112  21.156  0.00  0.00    +0.000 A 
ATOM     17  N   UNL     1      -5.587  12.688  19.981  0.00  0.00    +0.000 N 
ATOM     18  C   UNL     1      -4.615  12.220  19.143  0.00  0.00    +0.000 A 
ATOM     19  N   UNL     1      -4.847  11.726  17.922  0.00  0.00    +0.000 NA
ATOM     20  H   UNL     1      -6.568  12.708  19.743  0.00  0.00    +0.000 HD
ENDROOT
BRANCH  13  21
ATOM     21  C   UNL     1       0.975  10.559  18.905  0.00  0.00    +0.000 A 
ATOM     22  C   UNL     1       1.769   9.977  17.892  0.00  0.00    +0.000 A 
ATOM     23  C   UNL     1       2.323   8.699  18.013  0.00  0.00    +0.000 A 
ATOM     24  C   UNL     1       2.104   7.955  19.165  0.00  0.00    +0.000 A 
ATOM     25  C   UNL     1       1.338   8.492  20.193  0.00  0.00    +0.000 A 
ATOM     26  C   UNL     1       0.789   9.773  20.062  0.00  0.00    +0.000 A 
ENDBRANCH  13  21
TORSDOF 1
ENDMDL
MODEL 4
REMARK VINA RESULT:      -6.9      2.073      2.563
REMARK  Name = 
REMARK  2 active torsions:
REMARK  status: ('A' for Active; 'I' for Inactive)
REMARK    1  A    between atoms: C_1  and  C_2
REMARK    2  A    between atoms: C_13  and  C_14
REMARK                            x       y       z     vdW  Elec       q    Type
REMARK                         _______ _______ _______ _____ _____    ______ ____
ROOT
ATOM      1  C   UNL     1      -2.667  10.663  15.693  0.00  0.00    +0.000 C 
ATOM      2  C   UNL     1      -3.489  11.151  16.849  0.00  0.00    +0.000 A 
ATOM      3  N   UNL     1      -2.839  11.446  17.997  0.00  0.00    +0.000 NA
ATOM      4  C   UNL     1      -3.536  11.881  19.087  0.00  0.00    +0.000 A 
ATOM      5  N   UNL     1      -2.844  12.186  20.271  0.00  0.00    +0.000 N 
ATOM      6  C   UNL     1      -3.222  13.066  21.327  0.00  0.00    +0.000 C 
ATOM      7  C   UNL     1      -1.775  13.599  21.362  0.00  0.00    +0.000 C 
ATOM      8  C   UNL     1      -1.073  13.597  22.726  0.00  0.00    +0.000 C 
ATOM      9  C   UNL     1      -1.588  14.748  23.578  0.00  0.00    +0.000 C 
ATOM     10  O   UNL     1      -1.392  15.992  22.906  0.00  0.00    +0.000 OA
ATOM     11  C   UNL     1      -2.137  16.054  21.689  0.00  0.00    +0.000 C 
ATOM     12  C   UNL     1      -1.647  14.990  20.711  0.00  0.00    +0.000 C 
ATOM     13  C   UNL     1      -1.429  12.411  20.404  0.00  0.00    +0.000 C 
ATOM     14  C   UNL     1      -4.932  11.989  18.953  0.00  0.00    +0.000 A 
ATOM     15  C   UNL     1      -6.037  12.345  19.784  0.00  0.00    +0.000 A 
ATOM     16  C   UNL     1      -7.180  12.297  19.017  0.00  0.00    +0.000 A 
ATOM     17  N   UNL     1      -6.819  11.881  17.762  0.00  0.00    +0.000 N 
ATOM     18  C   UNL     1      -5.468  11.681  17.711  0.00  0.00    +0.000 A 
ATOM     19  N   UNL     1      -4.810  11.262  16.625  0.00  0.00    +0.000 NA
ATOM     20  H   UNL     1      -7.435  11.738  16.975  0.00  0.00    +0.000 HD
ENDROOT
BRANCH  13  21
ATOM     21  C   UNL     1      -0.680  11.126  21.001  0.00  0.00    +0.000 A 
ATOM     22  C   UNL     1      -0.792  10.708  22.346  0.00  0.00    +0.000 A 
ATOM     23  C   UNL     1      -0.084   9.615  22.855  0.00  0.00    +0.000 A 
ATOM     24  C   UNL     1       0.765   8.893  22.026  0.00  0.00    +0.000 A 
ATOM     25  C   UNL     1       0.899   9.261  20.692  0.00  0.00    +0.000 A 
ATOM     26  C   UNL     1       0.185  10.356  20.193  0.00  0.00    +0.000 A 
ENDBRANCH  13  21
TORSDOF 1
ENDMDL
MODEL 5
REMARK VINA RESULT:      -6.9      1.303      1.716
REMARK  Name = 
REMARK  2 active torsions:
REMARK  status: ('A' for Active; 'I' for Inactive)
REMARK    1  A    between atoms: C_1  and  C_2
REMARK    2  A    between atoms: C_13  and  C_14
REMARK                            x       y       z     vdW  Elec       q    Type
REMARK                         _______ _______ _______ _____ _____    ______ ____
ROOT
ATOM      1  C   UNL     1      -4.410  10.912  16.828  0.00  0.00    +0.000 C 
ATOM      2  C   UNL     1      -4.029  11.568  18.122  0.00  0.00    +0.000 A 
ATOM      3  N   UNL     1      -2.714  11.614  18.435  0.00  0.00    +0.000 NA
ATOM      4  C   UNL     1      -2.308  12.186  19.605  0.00  0.00    +0.000 A 
ATOM      5  N   UNL     1      -0.938  12.229  19.913  0.00  0.00    +0.000 N 
ATOM      6  C   UNL     1      -0.238  13.135  20.762  0.00  0.00    +0.000 C 
ATOM      7  C   UNL     1       0.877  13.224  19.701  0.00  0.00    +0.000 C 
ATOM      8  C   UNL     1       2.309  12.961  20.183  0.00  0.00    +0.000 C 
ATOM      9  C   UNL     1       2.837  14.176  20.934  0.00  0.00    +0.000 C 
ATOM     10  O   UNL     1       2.782  15.337  20.105  0.00  0.00    +0.000 OA
ATOM     11  C   UNL     1       1.439  15.663  19.745  0.00  0.00    +0.000 C 
ATOM     12  C   UNL     1       0.827  14.544  18.907  0.00  0.00    +0.000 C 
ATOM     13  C   UNL     1       0.154  12.028  18.998  0.00  0.00    +0.000 C 
ATOM     14  C   UNL     1      -3.310  12.701  20.448  0.00  0.00    +0.000 A 
ATOM     15  C   UNL     1      -3.377  13.327  21.729  0.00  0.00    +0.000 A 
ATOM     16  C   UNL     1      -4.694  13.645  21.980  0.00  0.00    +0.000 A 
ATOM     17  N   UNL     1      -5.437  13.195  20.920  0.00  0.00    +0.000 N 
ATOM     18  C   UNL     1      -4.617  12.613  19.994  0.00  0.00    +0.000 A 
ATOM     19  N   UNL     1      -5.043  12.067  18.849  0.00  0.00    +0.000 NA
ATOM     20  H   UNL     1      -6.438  13.269  20.812  0.00  0.00    +0.000 HD
ENDROOT
BRANCH  13  21
ATOM     21  C   UNL     1       0.777  10.557  19.134  0.00  0.00    +0.000 A 
ATOM     22  C   UNL     1       0.700   9.780  20.310  0.00  0.00    +0.000 A 
ATOM     23  C   UNL     1       1.299   8.521  20.420  0.00  0.00    +0.000 A 
ATOM     24  C   UNL     1       1.999   7.991  19.344  0.00  0.00    +0.000 A 
ATOM     25  C   UNL     1       2.091   8.716  18.161  0.00  0.00    +0.000 A 
ATOM     26  C   UNL     1       1.486   9.974  18.062  0.00  0.00    +0.000 A 
ENDBRANCH  13  21
TORSDOF 1
ENDMDL
MODEL 6
REMARK VINA RESULT:      -6.8      1.644      2.207
REMARK  Name = 
REMARK  2 active torsions:
REMARK  status: ('A' for Active; 'I' for Inactive)
REMARK    1  A    between atoms: C_1  and  C_2
REMARK    2  A    between atoms: C_13  and  C_14
REMARK                            x       y       z     vdW  Elec       q    Type
REMARK                         _______ _______ _______ _____ _____    ______ ____
ROOT
ATOM      1  C   UNL     1      -2.659  10.426  15.321  0.00  0.00    +0.000 C 
ATOM      2  C   UNL     1      -3.387  10.971  16.514  0.00  0.00    +0.000 A 
ATOM      3  N   UNL     1      -2.655  11.260  17.614  0.00  0.00    +0.000 NA
ATOM      4  C   UNL     1      -3.264  11.745  18.734  0.00  0.00    +0.000 A 
ATOM      5  N   UNL     1      -2.487  12.043  19.866  0.00  0.00    +0.000 N 
ATOM      6  C   UNL     1      -2.762  12.958  20.925  0.00  0.00    +0.000 C 
ATOM      7  C   UNL     1      -1.295  13.429  20.859  0.00  0.00    +0.000 C 
ATOM      8  C   UNL     1      -0.510  13.423  22.177  0.00  0.00    +0.000 C 
ATOM      9  C   UNL     1      -0.923  14.611  23.034  0.00  0.00    +0.000 C 
ATOM     10  O   UNL     1      -0.718  15.833  22.324  0.00  0.00    +0.000 OA
ATOM     11  C   UNL     1      -1.533  15.904  21.154  0.00  0.00    +0.000 C 
ATOM     12  C   UNL     1      -1.150  14.801  20.171  0.00  0.00    +0.000 C 
ATOM     13  C   UNL     1      -1.059  12.210  19.908  0.00  0.00    +0.000 C 
ATOM     14  C   UNL     1      -4.659  11.911  18.683  0.00  0.00    +0.000 A 
ATOM     15  C   UNL     1      -5.695  12.330  19.573  0.00  0.00    +0.000 A 
ATOM     16  C   UNL     1      -6.885  12.316  18.879  0.00  0.00    +0.000 A 
ATOM     17  N   UNL     1      -6.620  11.861  17.613  0.00  0.00    +0.000 N 
ATOM     18  C   UNL     1      -5.285  11.602  17.484  0.00  0.00    +0.000 A 
ATOM     19  N   UNL     1      -4.713  11.135  16.369  0.00  0.00    +0.000 NA
ATOM     20  H   UNL     1      -7.289  11.730  16.869  0.00  0.00    +0.000 HD
ENDROOT
BRANCH  13  21
ATOM     21  C   UNL     1      -0.328  10.905  20.486  0.00  0.00    +0.000 A 
ATOM     22  C   UNL     1       0.597  10.134  19.748  0.00  0.00    +0.000 A 
ATOM     23  C   UNL     1       1.179   8.969  20.257  0.00  0.00    +0.000 A 
ATOM     24  C   UNL     1       0.855   8.534  21.535  0.00  0.00    +0.000 A 
ATOM     25  C   UNL     1      -0.043   9.268  22.303  0.00  0.00    +0.000 A 
ATOM     26  C   UNL     1      -0.618  10.433  21.784  0.00  0.00    +0.000 A 
ENDBRANCH  13  21
TORSDOF 1
ENDMDL
MODEL 7
REMARK VINA RESULT:      -6.6      2.813      5.480
REMARK  Name = 
REMARK  2 active torsions:
REMARK  status: ('A' for Active; 'I' for Inactive)
REMARK    1  A    between atoms: C_1  and  C_2
REMARK    2  A    between atoms: C_13  and  C_14
REMARK                            x       y       z     vdW  Elec       q    Type
REMARK                         _______ _______ _______ _____ _____    ______ ____
ROOT
ATOM      1  C   UNL     1      -1.313  14.146  23.830  0.00  0.00    +0.000 C 
ATOM      2  C   UNL     1      -1.104  14.421  22.370  0.00  0.00    +0.000 A 
ATOM      3  N   UNL     1      -1.140  13.365  21.524  0.00  0.00    +0.000 NA
ATOM      4  C   UNL     1      -0.944  13.552  20.187  0.00  0.00    +0.000 A 
ATOM      5  N   UNL     1      -0.988  12.446  19.323  0.00  0.00    +0.000 N 
ATOM      6  C   UNL     1      -1.289  12.409  17.930  0.00  0.00    +0.000 C 
ATOM      7  C   UNL     1      -2.158  11.160  18.179  0.00  0.00    +0.000 C 
ATOM      8  C   UNL     1      -1.867   9.933  17.307  0.00  0.00    +0.000 C 
ATOM      9  C   UNL     1      -2.444  10.137  15.913  0.00  0.00    +0.000 C 
ATOM     10  O   UNL     1      -3.847  10.389  15.987  0.00  0.00    +0.000 OA
ATOM     11  C   UNL     1      -4.127  11.596  16.697  0.00  0.00    +0.000 C 
ATOM     12  C   UNL     1      -3.666  11.478  18.147  0.00  0.00    +0.000 C 
ATOM     13  C   UNL     1      -1.539  11.149  19.616  0.00  0.00    +0.000 C 
ATOM     14  C   UNL     1      -0.696  14.867  19.754  0.00  0.00    +0.000 A 
ATOM     15  C   UNL     1      -0.407  15.524  18.520  0.00  0.00    +0.000 A 
ATOM     16  C   UNL     1      -0.316  16.876  18.766  0.00  0.00    +0.000 A 
ATOM     17  N   UNL     1      -0.494  17.064  20.112  0.00  0.00    +0.000 N 
ATOM     18  C   UNL     1      -0.713  15.860  20.722  0.00  0.00    +0.000 A 
ATOM     19  N   UNL     1      -0.913  15.708  22.036  0.00  0.00    +0.000 NA
ATOM     20  H   UNL     1      -0.475  17.945  20.604  0.00  0.00    +0.000 HD
ENDROOT
BRANCH  13  21
ATOM     21  C   UNL     1      -0.391  10.083  19.958  0.00  0.00    +0.000 A 
ATOM     22  C   UNL     1       0.672   9.769  19.083  0.00  0.00    +0.000 A 
ATOM     23  C   UNL     1       1.630   8.795  19.382  0.00  0.00    +0.000 A 
ATOM     24  C   UNL     1       1.558   8.099  20.582  0.00  0.00    +0.000 A 
ATOM     25  C   UNL     1       0.534   8.382  21.479  0.00  0.00    +0.000 A 
ATOM     26  C   UNL     1      -0.418   9.360  21.170  0.00  0.00    +0.000 A 
ENDBRANCH  13  21
TORSDOF 1
ENDMDL
MODEL 8
REMARK VINA RESULT:      -6.6      8.011     10.117
REMARK  Name = 
REMARK  2 active torsions:
REMARK  status: ('A' for Active; 'I' for Inactive)
REMARK    1  A    between atoms: C_1  and  C_2
REMARK    2  A    between atoms: C_13  and  C_14
REMARK                            x       y       z     vdW  Elec       q    Type
REMARK                         _______ _______ _______ _____ _____    ______ ____
ROOT
ATOM      1  C   UNL     1       3.533  14.619  17.736  0.00  0.00    +0.000 C 
ATOM      2  C   UNL     1       4.485  15.420  18.573  0.00  0.00    +0.000 A 
ATOM      3  N   UNL     1       5.791  15.071  18.541  0.00  0.00    +0.000 NA
ATOM      4  C   UNL     1       6.702  15.755  19.293  0.00  0.00    +0.000 A 
ATOM      5  N   UNL     1       8.055  15.382  19.244  0.00  0.00    +0.000 N 
ATOM      6  C   UNL     1       9.212  16.169  19.517  0.00  0.00    +0.000 C 
ATOM      7  C   UNL     1       9.888  15.554  18.275  0.00  0.00    +0.000 C 
ATOM      8  C   UNL     1      11.275  14.935  18.482  0.00  0.00    +0.000 C 
ATOM      9  C   UNL     1      12.325  16.032  18.592  0.00  0.00    +0.000 C 
ATOM     10  O   UNL     1      12.304  16.859  17.428  0.00  0.00    +0.000 OA
ATOM     11  C   UNL     1      11.055  17.537  17.288  0.00  0.00    +0.000 C 
ATOM     12  C   UNL     1       9.925  16.531  17.084  0.00  0.00    +0.000 C 
ATOM     13  C   UNL     1       8.683  14.557  18.246  0.00  0.00    +0.000 C 
ATOM     14  C   UNL     1       6.214  16.806  20.090  0.00  0.00    +0.000 A 
ATOM     15  C   UNL     1       6.747  17.740  21.029  0.00  0.00    +0.000 A 
ATOM     16  C   UNL     1       5.724  18.568  21.436  0.00  0.00    +0.000 A 
ATOM     17  N   UNL     1       4.578  18.145  20.815  0.00  0.00    +0.000 N 
ATOM     18  C   UNL     1       4.856  17.076  20.009  0.00  0.00    +0.000 A 
ATOM     19  N   UNL     1       3.943  16.431  19.275  0.00  0.00    +0.000 NA
ATOM     20  H   UNL     1       3.657  18.544  20.916  0.00  0.00    +0.000 HD
ENDROOT
BRANCH  13  21
ATOM     21  C   UNL     1       8.903  13.058  18.770  0.00  0.00    +0.000 A 
ATOM     22  C   UNL     1       9.126  12.727  20.124  0.00  0.00    +0.000 A 
ATOM     23  C   UNL     1       9.369  11.416  20.547  0.00  0.00    +0.000 A 
ATOM     24  C   UNL     1       9.395  10.383  19.620  0.00  0.00    +0.000 A 
ATOM     25  C   UNL     1       9.171  10.661  18.277  0.00  0.00    +0.000 A 
ATOM     26  C   UNL     1       8.926  11.975  17.864  0.00  0.00    +0.000 A 
ENDBRANCH  13  21
TORSDOF 1
ENDMDL
MODEL 9
REMARK VINA RESULT:      -6.4      4.442      7.523
REMARK  Name = 
REMARK  2 active torsions:
REMARK  status: ('A' for Active; 'I' for Inactive)
REMARK    1  A    between atoms: C_1  and  C_2
REMARK    2  A    between atoms: C_13  and  C_14
REMARK                            x       y       z     vdW  Elec       q    Type
REMARK                         _______ _______ _______ _____ _____    ______ ____
ROOT
ATOM      1  C   UNL     1      -0.599   9.531  23.112  0.00  0.00    +0.000 C 
ATOM      2  C   UNL     1      -0.574  10.922  22.552  0.00  0.00    +0.000 A 
ATOM      3  N   UNL     1      -1.612  11.735  22.854  0.00  0.00    +0.000 NA
ATOM      4  C   UNL     1      -1.651  13.007  22.363  0.00  0.00    +0.000 A 
ATOM      5  N   UNL     1      -2.734  13.840  22.690  0.00  0.00    +0.000 N 
ATOM      6  C   UNL     1      -2.791  15.264  22.725  0.00  0.00    +0.000 C 
ATOM      7  C   UNL     1      -3.575  15.171  24.050  0.00  0.00    +0.000 C 
ATOM      8  C   UNL     1      -4.899  15.940  24.122  0.00  0.00    +0.000 C 
ATOM      9  C   UNL     1      -4.629  17.427  24.309  0.00  0.00    +0.000 C 
ATOM     10  O   UNL     1      -3.847  17.646  25.484  0.00  0.00    +0.000 OA
ATOM     11  C   UNL     1      -2.562  17.034  25.381  0.00  0.00    +0.000 C 
ATOM     12  C   UNL     1      -2.703  15.518  25.273  0.00  0.00    +0.000 C 
ATOM     13  C   UNL     1      -3.680  13.638  23.755  0.00  0.00    +0.000 C 
ATOM     14  C   UNL     1      -0.585  13.408  21.538  0.00  0.00    +0.000 A 
ATOM     15  C   UNL     1      -0.219  14.571  20.794  0.00  0.00    +0.000 A 
ATOM     16  C   UNL     1       1.010  14.339  20.217  0.00  0.00    +0.000 A 
ATOM     17  N   UNL     1       1.386  13.062  20.544  0.00  0.00    +0.000 N 
ATOM     18  C   UNL     1       0.429  12.484  21.330  0.00  0.00    +0.000 A 
ATOM     19  N   UNL     1       0.499  11.236  21.806  0.00  0.00    +0.000 NA
ATOM     20  H   UNL     1       2.235  12.594  20.262  0.00  0.00    +0.000 HD
ENDROOT
BRANCH  13  21
ATOM     21  C   UNL     1      -5.067  13.047  23.210  0.00  0.00    +0.000 A 
ATOM     22  C   UNL     1      -5.327  12.788  21.846  0.00  0.00    +0.000 A 
ATOM     23  C   UNL     1      -6.565  12.324  21.391  0.00  0.00    +0.000 A 
ATOM     24  C   UNL     1      -7.594  12.096  22.295  0.00  0.00    +0.000 A 
ATOM     25  C   UNL     1      -7.381  12.327  23.650  0.00  0.00    +0.000 A 
ATOM     26  C   UNL     1      -6.137  12.790  24.094  0.00  0.00    +0.000 A 
ENDBRANCH  13  21
TORSDOF 1
ENDMDL
