MODEL 1
REMARK VINA RESULT:      -9.3      0.000      0.000
REMARK  Name = 
REMARK  5 active torsions:
REMARK  status: ('A' for Active; 'I' for Inactive)
REMARK    1  A    between atoms: C_2  and  C_18
REMARK    2  A    between atoms: N_3  and  C_4
REMARK    3  A    between atoms: C_8  and  C_9
REMARK    4  A    between atoms: N_13  and  C_14
REMARK    5  A    between atoms: C_21  and  C_22
REMARK                            x       y       z     vdW  Elec       q    Type
REMARK                         _______ _______ _______ _____ _____    ______ ____
ROOT
ATOM      1  O   UNL     1       2.252   8.057  18.901  0.00  0.00    +0.000 OA
ATOM      2  C   UNL     1       1.738   7.787  19.981  0.00  0.00    +0.000 C 
ATOM      3  N   UNL     1       1.760   6.557  20.624  0.00  0.00    +0.000 N 
ATOM      4  H   UNL     1       1.150   6.430  21.421  0.00  0.00    +0.000 HD
ENDROOT
BRANCH   3   5
ATOM      5  C   UNL     1       2.444   5.405  20.153  0.00  0.00    +0.000 A 
ATOM      6  C   UNL     1       1.848   4.145  20.092  0.00  0.00    +0.000 A 
ATOM      7  C   UNL     1       2.555   3.042  19.619  0.00  0.00    +0.000 A 
ATOM      8  C   UNL     1       3.873   3.182  19.192  0.00  0.00    +0.000 A 
ATOM      9  C   UNL     1       4.519   4.420  19.257  0.00  0.00    +0.000 A 
ATOM     10  C   UNL     1       3.776   5.533  19.721  0.00  0.00    +0.000 A 
BRANCH   9  11
ATOM     11  C   UNL     1       5.903   4.624  18.799  0.00  0.00    +0.000 A 
ATOM     12  N   UNL     1       6.902   4.966  19.599  0.00  0.00    +0.000 NA
ATOM     13  N   UNL     1       8.011   5.150  18.819  0.00  0.00    +0.000 NA
ATOM     14  N   UNL     1       7.733   4.914  17.549  0.00  0.00    +0.000 NA
ATOM     15  N   UNL     1       6.442   4.537  17.521  0.00  0.00    +0.000 N 
BRANCH  15  16
ATOM     16  C   UNL     1       5.817   4.088  16.290  0.00  0.00    +0.000 C 
ATOM     17  C   UNL     1       6.511   4.190  14.938  0.00  0.00    +0.000 C 
ATOM     18  C   UNL     1       5.375   5.102  15.240  0.00  0.00    +0.000 C 
ENDBRANCH  15  16
ENDBRANCH   9  11
ENDBRANCH   3   5
BRANCH   2  19
ATOM     19  C   UNL     1       0.950   8.869  20.633  0.00  0.00    +0.000 A 
ATOM     20  C   UNL     1       0.708   8.755  22.011  0.00  0.00    +0.000 A 
ATOM     21  C   UNL     1      -0.073   9.699  22.675  0.00  0.00    +0.000 A 
ATOM     22  C   UNL     1      -0.638  10.771  21.971  0.00  0.00    +0.000 A 
ATOM     23  C   UNL     1      -0.404  10.873  20.587  0.00  0.00    +0.000 A 
ATOM     24  C   UNL     1       0.385   9.928  19.917  0.00  0.00    +0.000 A 
BRANCH  22  25
ATOM     25  C   UNL     1      -1.496  11.794  22.678  0.00  0.00    +0.000 C 
ATOM     26  F   UNL     1      -0.783  12.800  23.257  0.00  0.00    +0.000 F 
ATOM     27  F   UNL     1      -2.379  12.399  21.836  0.00  0.00    +0.000 F 
ATOM     28  F   UNL     1      -2.246  11.246  23.675  0.00  0.00    +0.000 F 
ENDBRANCH  22  25
ENDBRANCH   2  19
TORSDOF 5
ENDMDL
MODEL 2
REMARK VINA RESULT:      -9.1      0.200      1.205
REMARK  Name = 
REMARK  5 active torsions:
REMARK  status: ('A' for Active; 'I' for Inactive)
REMARK    1  A    between atoms: C_2  and  C_18
REMARK    2  A    between atoms: N_3  and  C_4
REMARK    3  A    between atoms: C_8  and  C_9
REMARK    4  A    between atoms: N_13  and  C_14
REMARK    5  A    between atoms: C_21  and  C_22
REMARK                            x       y       z     vdW  Elec       q    Type
REMARK                         _______ _______ _______ _____ _____    ______ ____
ROOT
ATOM      1  O   UNL     1       2.235   8.080  19.162  0.00  0.00    +0.000 OA
ATOM      2  C   UNL     1       1.650   7.725  20.180  0.00  0.00    +0.000 C 
ATOM      3  N   UNL     1       1.642   6.451  20.730  0.00  0.00    +0.000 N 
ATOM      4  H   UNL     1       0.979   6.260  21.470  0.00  0.00    +0.000 HD
ENDROOT
BRANCH   3   5
ATOM      5  C   UNL     1       2.371   5.343  20.224  0.00  0.00    +0.000 A 
ATOM      6  C   UNL     1       1.825   4.063  20.122  0.00  0.00    +0.000 A 
ATOM      7  C   UNL     1       2.576   3.004  19.616  0.00  0.00    +0.000 A 
ATOM      8  C   UNL     1       3.888   3.209  19.197  0.00  0.00    +0.000 A 
ATOM      9  C   UNL     1       4.485   4.469  19.304  0.00  0.00    +0.000 A 
ATOM     10  C   UNL     1       3.697   5.536  19.801  0.00  0.00    +0.000 A 
BRANCH   9  11
ATOM     11  C   UNL     1       5.860   4.742  18.855  0.00  0.00    +0.000 A 
ATOM     12  N   UNL     1       6.843   5.099  19.669  0.00  0.00    +0.000 NA
ATOM     13  N   UNL     1       7.945   5.351  18.897  0.00  0.00    +0.000 NA
ATOM     14  N   UNL     1       7.679   5.142  17.620  0.00  0.00    +0.000 NA
ATOM     15  N   UNL     1       6.404   4.715  17.577  0.00  0.00    +0.000 N 
BRANCH  15  16
ATOM     16  C   UNL     1       5.801   4.278  16.331  0.00  0.00    +0.000 C 
ATOM     17  C   UNL     1       6.552   4.302  15.007  0.00  0.00    +0.000 C 
ATOM     18  C   UNL     1       5.469   5.294  15.243  0.00  0.00    +0.000 C 
ENDBRANCH  15  16
ENDBRANCH   9  11
ENDBRANCH   3   5
BRANCH   2  19
ATOM     19  C   UNL     1       0.805   8.750  20.854  0.00  0.00    +0.000 A 
ATOM     20  C   UNL     1       0.178   9.709  20.043  0.00  0.00    +0.000 A 
ATOM     21  C   UNL     1      -0.578  10.733  20.611  0.00  0.00    +0.000 A 
ATOM     22  C   UNL     1      -0.712  10.826  22.002  0.00  0.00    +0.000 A 
ATOM     23  C   UNL     1      -0.069   9.870  22.812  0.00  0.00    +0.000 A 
ATOM     24  C   UNL     1       0.687   8.836  22.245  0.00  0.00    +0.000 A 
BRANCH  22  25
ATOM     25  C   UNL     1      -1.519  11.939  22.629  0.00  0.00    +0.000 C 
ATOM     26  F   UNL     1      -2.413  11.508  23.562  0.00  0.00    +0.000 F 
ATOM     27  F   UNL     1      -0.734  12.855  23.260  0.00  0.00    +0.000 F 
ATOM     28  F   UNL     1      -2.245  12.637  21.712  0.00  0.00    +0.000 F 
ENDBRANCH  22  25
ENDBRANCH   2  19
TORSDOF 5
ENDMDL
MODEL 3
REMARK VINA RESULT:      -8.7      1.343      1.598
REMARK  Name = 
REMARK  5 active torsions:
REMARK  status: ('A' for Active; 'I' for Inactive)
REMARK    1  A    between atoms: C_2  and  C_18
REMARK    2  A    between atoms: N_3  and  C_4
REMARK    3  A    between atoms: C_8  and  C_9
REMARK    4  A    between atoms: N_13  and  C_14
REMARK    5  A    between atoms: C_21  and  C_22
REMARK                            x       y       z     vdW  Elec       q    Type
REMARK                         _______ _______ _______ _____ _____    ______ ____
ROOT
ATOM      1  O   UNL     1       1.562   6.466  21.182  0.00  0.00    +0.000 OA
ATOM      2  C   UNL     1       1.551   7.325  20.306  0.00  0.00    +0.000 C 
ATOM      3  N   UNL     1       2.002   7.183  19.001  0.00  0.00    +0.000 N 
ATOM      4  H   UNL     1       2.094   8.019  18.440  0.00  0.00    +0.000 HD
ENDROOT
BRANCH   3   5
ATOM      5  C   UNL     1       2.506   5.980  18.442  0.00  0.00    +0.000 A 
ATOM      6  C   UNL     1       1.679   4.965  17.958  0.00  0.00    +0.000 A 
ATOM      7  C   UNL     1       2.218   3.802  17.414  0.00  0.00    +0.000 A 
ATOM      8  C   UNL     1       3.598   3.634  17.339  0.00  0.00    +0.000 A 
ATOM      9  C   UNL     1       4.466   4.612  17.833  0.00  0.00    +0.000 A 
ATOM     10  C   UNL     1       3.898   5.797  18.363  0.00  0.00    +0.000 A 
BRANCH   9  11
ATOM     11  C   UNL     1       5.931   4.492  17.758  0.00  0.00    +0.000 A 
ATOM     12  N   UNL     1       6.735   4.603  18.805  0.00  0.00    +0.000 NA
ATOM     13  N   UNL     1       8.022   4.524  18.348  0.00  0.00    +0.000 NA
ATOM     14  N   UNL     1       8.042   4.347  17.038  0.00  0.00    +0.000 NA
ATOM     15  N   UNL     1       6.754   4.275  16.659  0.00  0.00    +0.000 N 
BRANCH  15  16
ATOM     16  C   UNL     1       6.391   3.971  15.287  0.00  0.00    +0.000 C 
ATOM     17  C   UNL     1       6.998   4.706  14.099  0.00  0.00    +0.000 C 
ATOM     18  C   UNL     1       5.581   4.972  14.468  0.00  0.00    +0.000 C 
ENDBRANCH  15  16
ENDBRANCH   9  11
ENDBRANCH   3   5
BRANCH   2  19
ATOM     19  C   UNL     1       1.071   8.677  20.705  0.00  0.00    +0.000 A 
ATOM     20  C   UNL     1       0.526   8.819  21.991  0.00  0.00    +0.000 A 
ATOM     21  C   UNL     1       0.002  10.041  22.409  0.00  0.00    +0.000 A 
ATOM     22  C   UNL     1       0.001  11.143  21.543  0.00  0.00    +0.000 A 
ATOM     23  C   UNL     1       0.536  10.992  20.249  0.00  0.00    +0.000 A 
ATOM     24  C   UNL     1       1.068   9.766  19.829  0.00  0.00    +0.000 A 
BRANCH  22  25
ATOM     25  C   UNL     1      -0.575  12.470  21.981  0.00  0.00    +0.000 C 
ATOM     26  F   UNL     1      -1.698  12.830  21.299  0.00  0.00    +0.000 F 
ATOM     27  F   UNL     1      -0.922  12.473  23.298  0.00  0.00    +0.000 F 
ATOM     28  F   UNL     1       0.304  13.498  21.823  0.00  0.00    +0.000 F 
ENDBRANCH  22  25
ENDBRANCH   2  19
TORSDOF 5
ENDMDL
MODEL 4
REMARK VINA RESULT:      -8.7      1.537      2.020
REMARK  Name = 
REMARK  5 active torsions:
REMARK  status: ('A' for Active; 'I' for Inactive)
REMARK    1  A    between atoms: C_2  and  C_18
REMARK    2  A    between atoms: N_3  and  C_4
REMARK    3  A    between atoms: C_8  and  C_9
REMARK    4  A    between atoms: N_13  and  C_14
REMARK    5  A    between atoms: C_21  and  C_22
REMARK                            x       y       z     vdW  Elec       q    Type
REMARK                         _______ _______ _______ _____ _____    ______ ____
ROOT
ATOM      1  O   UNL     1       2.389   8.615  17.323  0.00  0.00    +0.000 OA
ATOM      2  C   UNL     1       1.984   8.349  18.449  0.00  0.00    +0.000 C 
ATOM      3  N   UNL     1       1.969   7.099  19.051  0.00  0.00    +0.000 N 
ATOM      4  H   UNL     1       1.448   6.995  19.913  0.00  0.00    +0.000 HD
ENDROOT
BRANCH   3   5
ATOM      5  C   UNL     1       2.483   5.910  18.469  0.00  0.00    +0.000 A 
ATOM      6  C   UNL     1       1.663   4.894  17.976  0.00  0.00    +0.000 A 
ATOM      7  C   UNL     1       2.211   3.746  17.410  0.00  0.00    +0.000 A 
ATOM      8  C   UNL     1       3.592   3.595  17.322  0.00  0.00    +0.000 A 
ATOM      9  C   UNL     1       4.453   4.575  17.824  0.00  0.00    +0.000 A 
ATOM     10  C   UNL     1       3.876   5.745  18.377  0.00  0.00    +0.000 A 
BRANCH   9  11
ATOM     11  C   UNL     1       5.919   4.473  17.735  0.00  0.00    +0.000 A 
ATOM     12  N   UNL     1       6.731   4.614  18.772  0.00  0.00    +0.000 NA
ATOM     13  N   UNL     1       8.015   4.543  18.303  0.00  0.00    +0.000 NA
ATOM     14  N   UNL     1       8.024   4.343  16.997  0.00  0.00    +0.000 NA
ATOM     15  N   UNL     1       6.733   4.247  16.632  0.00  0.00    +0.000 N 
BRANCH  15  16
ATOM     16  C   UNL     1       6.360   3.912  15.270  0.00  0.00    +0.000 C 
ATOM     17  C   UNL     1       6.961   4.619  14.062  0.00  0.00    +0.000 C 
ATOM     18  C   UNL     1       5.548   4.897  14.434  0.00  0.00    +0.000 C 
ENDBRANCH  15  16
ENDBRANCH   9  11
ENDBRANCH   3   5
BRANCH   2  19
ATOM     19  C   UNL     1       1.381   9.471  19.222  0.00  0.00    +0.000 A 
ATOM     20  C   UNL     1       1.366  10.739  18.620  0.00  0.00    +0.000 A 
ATOM     21  C   UNL     1       0.873  11.846  19.309  0.00  0.00    +0.000 A 
ATOM     22  C   UNL     1       0.397  11.708  20.619  0.00  0.00    +0.000 A 
ATOM     23  C   UNL     1       0.427  10.437  21.224  0.00  0.00    +0.000 A 
ATOM     24  C   UNL     1       0.917   9.322  20.532  0.00  0.00    +0.000 A 
BRANCH  22  25
ATOM     25  C   UNL     1      -0.129  12.904  21.381  0.00  0.00    +0.000 C 
ATOM     26  F   UNL     1      -0.453  12.629  22.675  0.00  0.00    +0.000 F 
ATOM     27  F   UNL     1       0.773  13.922  21.430  0.00  0.00    +0.000 F 
ATOM     28  F   UNL     1      -1.253  13.427  20.817  0.00  0.00    +0.000 F 
ENDBRANCH  22  25
ENDBRANCH   2  19
TORSDOF 5
ENDMDL
MODEL 5
REMARK VINA RESULT:      -8.7      0.870      1.498
REMARK  Name = 
REMARK  5 active torsions:
REMARK  status: ('A' for Active; 'I' for Inactive)
REMARK    1  A    between atoms: C_2  and  C_18
REMARK    2  A    between atoms: N_3  and  C_4
REMARK    3  A    between atoms: C_8  and  C_9
REMARK    4  A    between atoms: N_13  and  C_14
REMARK    5  A    between atoms: C_21  and  C_22
REMARK                            x       y       z     vdW  Elec       q    Type
REMARK                         _______ _______ _______ _____ _____    ______ ____
ROOT
ATOM      1  O   UNL     1       2.412   8.205  18.243  0.00  0.00    +0.000 OA
ATOM      2  C   UNL     1       1.879   7.846  19.288  0.00  0.00    +0.000 C 
ATOM      3  N   UNL     1       1.813   6.551  19.781  0.00  0.00    +0.000 N 
ATOM      4  H   UNL     1       1.194   6.374  20.563  0.00  0.00    +0.000 HD
ENDROOT
BRANCH   3   5
ATOM      5  C   UNL     1       2.412   5.417  19.173  0.00  0.00    +0.000 A 
ATOM      6  C   UNL     1       1.684   4.287  18.796  0.00  0.00    +0.000 A 
ATOM      7  C   UNL     1       2.313   3.198  18.199  0.00  0.00    +0.000 A 
ATOM      8  C   UNL     1       3.685   3.222  17.961  0.00  0.00    +0.000 A 
ATOM      9  C   UNL     1       4.459   4.322  18.342  0.00  0.00    +0.000 A 
ATOM     10  C   UNL     1       3.797   5.428  18.929  0.00  0.00    +0.000 A 
BRANCH   9  11
ATOM     11  C   UNL     1       5.908   4.404  18.093  0.00  0.00    +0.000 A 
ATOM     12  N   UNL     1       6.806   4.639  19.038  0.00  0.00    +0.000 NA
ATOM     13  N   UNL     1       8.028   4.732  18.431  0.00  0.00    +0.000 NA
ATOM     14  N   UNL     1       7.919   4.544  17.128  0.00  0.00    +0.000 NA
ATOM     15  N   UNL     1       6.617   4.289  16.903  0.00  0.00    +0.000 N 
BRANCH  15  16
ATOM     16  C   UNL     1       6.141   3.920  15.583  0.00  0.00    +0.000 C 
ATOM     17  C   UNL     1       6.778   4.454  14.306  0.00  0.00    +0.000 C 
ATOM     18  C   UNL     1       5.434   4.951  14.708  0.00  0.00    +0.000 C 
ENDBRANCH  15  16
ENDBRANCH   9  11
ENDBRANCH   3   5
BRANCH   2  19
ATOM     19  C   UNL     1       1.170   8.897  20.069  0.00  0.00    +0.000 A 
ATOM     20  C   UNL     1       0.738  10.039  19.377  0.00  0.00    +0.000 A 
ATOM     21  C   UNL     1       0.121  11.089  20.056  0.00  0.00    +0.000 A 
ATOM     22  C   UNL     1      -0.064  11.022  21.443  0.00  0.00    +0.000 A 
ATOM     23  C   UNL     1       0.384   9.881  22.135  0.00  0.00    +0.000 A 
ATOM     24  C   UNL     1       0.999   8.822  21.455  0.00  0.00    +0.000 A 
BRANCH  22  25
ATOM     25  C   UNL     1      -0.720  12.160  22.192  0.00  0.00    +0.000 C 
ATOM     26  F   UNL     1      -1.873  12.600  21.616  0.00  0.00    +0.000 F 
ATOM     27  F   UNL     1      -1.048  11.818  23.468  0.00  0.00    +0.000 F 
ATOM     28  F   UNL     1       0.088  13.252  22.292  0.00  0.00    +0.000 F 
ENDBRANCH  22  25
ENDBRANCH   2  19
TORSDOF 5
ENDMDL
MODEL 6
REMARK VINA RESULT:      -8.6      1.441      1.731
REMARK  Name = 
REMARK  5 active torsions:
REMARK  status: ('A' for Active; 'I' for Inactive)
REMARK    1  A    between atoms: C_2  and  C_18
REMARK    2  A    between atoms: N_3  and  C_4
REMARK    3  A    between atoms: C_8  and  C_9
REMARK    4  A    between atoms: N_13  and  C_14
REMARK    5  A    between atoms: C_21  and  C_22
REMARK                            x       y       z     vdW  Elec       q    Type
REMARK                         _______ _______ _______ _____ _____    ______ ____
ROOT
ATOM      1  O   UNL     1       2.380   8.684  17.454  0.00  0.00    +0.000 OA
ATOM      2  C   UNL     1       1.971   8.361  18.565  0.00  0.00    +0.000 C 
ATOM      3  N   UNL     1       1.933   7.079  19.093  0.00  0.00    +0.000 N 
ATOM      4  H   UNL     1       1.411   6.936  19.949  0.00  0.00    +0.000 HD
ENDROOT
BRANCH   3   5
ATOM      5  C   UNL     1       2.423   5.916  18.442  0.00  0.00    +0.000 A 
ATOM      6  C   UNL     1       1.587   4.896  17.988  0.00  0.00    +0.000 A 
ATOM      7  C   UNL     1       2.111   3.773  17.351  0.00  0.00    +0.000 A 
ATOM      8  C   UNL     1       3.484   3.654  17.152  0.00  0.00    +0.000 A 
ATOM      9  C   UNL     1       4.362   4.640  17.612  0.00  0.00    +0.000 A 
ATOM     10  C   UNL     1       3.807   5.783  18.238  0.00  0.00    +0.000 A 
BRANCH   9  11
ATOM     11  C   UNL     1       5.818   4.571  17.407  0.00  0.00    +0.000 A 
ATOM     12  N   UNL     1       6.683   4.266  18.363  0.00  0.00    +0.000 NA
ATOM     13  N   UNL     1       7.940   4.384  17.835  0.00  0.00    +0.000 NA
ATOM     14  N   UNL     1       7.881   4.740  16.563  0.00  0.00    +0.000 NA
ATOM     15  N   UNL     1       6.571   4.812  16.264  0.00  0.00    +0.000 N 
BRANCH  15  16
ATOM     16  C   UNL     1       6.124   5.072  14.908  0.00  0.00    +0.000 C 
ATOM     17  C   UNL     1       5.710   3.956  13.957  0.00  0.00    +0.000 C 
ATOM     18  C   UNL     1       6.996   4.668  13.723  0.00  0.00    +0.000 C 
ENDBRANCH  15  16
ENDBRANCH   9  11
ENDBRANCH   3   5
BRANCH   2  19
ATOM     19  C   UNL     1       1.392   9.448  19.402  0.00  0.00    +0.000 A 
ATOM     20  C   UNL     1       0.972   9.114  20.700  0.00  0.00    +0.000 A 
ATOM     21  C   UNL     1       0.366  10.066  21.517  0.00  0.00    +0.000 A 
ATOM     22  C   UNL     1       0.155  11.369  21.048  0.00  0.00    +0.000 A 
ATOM     23  C   UNL     1       0.565  11.696  19.741  0.00  0.00    +0.000 A 
ATOM     24  C   UNL     1       1.180  10.743  18.919  0.00  0.00    +0.000 A 
BRANCH  22  25
ATOM     25  C   UNL     1      -0.513  12.407  21.921  0.00  0.00    +0.000 C 
ATOM     26  F   UNL     1      -0.874  11.939  23.148  0.00  0.00    +0.000 F 
ATOM     27  F   UNL     1       0.291  13.481  22.154  0.00  0.00    +0.000 F 
ATOM     28  F   UNL     1      -1.650  12.906  21.361  0.00  0.00    +0.000 F 
ENDBRANCH  22  25
ENDBRANCH   2  19
TORSDOF 5
ENDMDL
MODEL 7
REMARK VINA RESULT:      -8.5      1.567      2.232
REMARK  Name = 
REMARK  5 active torsions:
REMARK  status: ('A' for Active; 'I' for Inactive)
REMARK    1  A    between atoms: C_2  and  C_18
REMARK    2  A    between atoms: N_3  and  C_4
REMARK    3  A    between atoms: C_8  and  C_9
REMARK    4  A    between atoms: N_13  and  C_14
REMARK    5  A    between atoms: C_21  and  C_22
REMARK                            x       y       z     vdW  Elec       q    Type
REMARK                         _______ _______ _______ _____ _____    ______ ____
ROOT
ATOM      1  O   UNL     1       2.685   8.333  17.934  0.00  0.00    +0.000 OA
ATOM      2  C   UNL     1       2.081   7.885  18.903  0.00  0.00    +0.000 C 
ATOM      3  N   UNL     1       1.950   6.549  19.254  0.00  0.00    +0.000 N 
ATOM      4  H   UNL     1       1.282   6.313  19.976  0.00  0.00    +0.000 HD
ENDROOT
BRANCH   3   5
ATOM      5  C   UNL     1       2.555   5.465  18.564  0.00  0.00    +0.000 A 
ATOM      6  C   UNL     1       2.070   4.159  18.637  0.00  0.00    +0.000 A 
ATOM      7  C   UNL     1       2.693   3.126  17.941  0.00  0.00    +0.000 A 
ATOM      8  C   UNL     1       3.812   3.383  17.153  0.00  0.00    +0.000 A 
ATOM      9  C   UNL     1       4.348   4.671  17.069  0.00  0.00    +0.000 A 
ATOM     10  C   UNL     1       3.687   5.711  17.767  0.00  0.00    +0.000 A 
BRANCH   9  11
ATOM     11  C   UNL     1       5.514   4.999  16.233  0.00  0.00    +0.000 A 
ATOM     12  N   UNL     1       5.445   5.239  14.932  0.00  0.00    +0.000 NA
ATOM     13  N   UNL     1       6.723   5.418  14.477  0.00  0.00    +0.000 NA
ATOM     14  N   UNL     1       7.591   5.313  15.469  0.00  0.00    +0.000 NA
ATOM     15  N   UNL     1       6.857   5.103  16.576  0.00  0.00    +0.000 N 
BRANCH  15  16
ATOM     16  C   UNL     1       7.476   5.049  17.888  0.00  0.00    +0.000 C 
ATOM     17  C   UNL     1       6.734   5.444  19.158  0.00  0.00    +0.000 C 
ATOM     18  C   UNL     1       7.802   6.338  18.635  0.00  0.00    +0.000 C 
ENDBRANCH  15  16
ENDBRANCH   9  11
ENDBRANCH   3   5
BRANCH   2  19
ATOM     19  C   UNL     1       1.355   8.873  19.749  0.00  0.00    +0.000 A 
ATOM     20  C   UNL     1       1.227   8.585  21.117  0.00  0.00    +0.000 A 
ATOM     21  C   UNL     1       0.507   9.435  21.956  0.00  0.00    +0.000 A 
ATOM     22  C   UNL     1      -0.109  10.583  21.441  0.00  0.00    +0.000 A 
ATOM     23  C   UNL     1       0.011  10.860  20.066  0.00  0.00    +0.000 A 
ATOM     24  C   UNL     1       0.737  10.011  19.221  0.00  0.00    +0.000 A 
BRANCH  22  25
ATOM     25  C   UNL     1      -0.901  11.505  22.340  0.00  0.00    +0.000 C 
ATOM     26  F   UNL     1      -0.294  12.703  22.566  0.00  0.00    +0.000 F 
ATOM     27  F   UNL     1      -2.127  11.799  21.826  0.00  0.00    +0.000 F 
ATOM     28  F   UNL     1      -1.130  10.964  23.569  0.00  0.00    +0.000 F 
ENDBRANCH  22  25
ENDBRANCH   2  19
TORSDOF 5
ENDMDL
MODEL 8
REMARK VINA RESULT:      -8.5      1.737      2.445
REMARK  Name = 
REMARK  5 active torsions:
REMARK  status: ('A' for Active; 'I' for Inactive)
REMARK    1  A    between atoms: C_2  and  C_18
REMARK    2  A    between atoms: N_3  and  C_4
REMARK    3  A    between atoms: C_8  and  C_9
REMARK    4  A    between atoms: N_13  and  C_14
REMARK    5  A    between atoms: C_21  and  C_22
REMARK                            x       y       z     vdW  Elec       q    Type
REMARK                         _______ _______ _______ _____ _____    ______ ____
ROOT
ATOM      1  O   UNL     1       1.836   6.392  21.061  0.00  0.00    +0.000 OA
ATOM      2  C   UNL     1       1.706   7.245  20.189  0.00  0.00    +0.000 C 
ATOM      3  N   UNL     1       2.064   7.124  18.853  0.00  0.00    +0.000 N 
ATOM      4  H   UNL     1       2.063   7.962  18.287  0.00  0.00    +0.000 HD
ENDROOT
BRANCH   3   5
ATOM      5  C   UNL     1       2.595   5.951  18.257  0.00  0.00    +0.000 A 
ATOM      6  C   UNL     1       1.991   4.699  18.381  0.00  0.00    +0.000 A 
ATOM      7  C   UNL     1       2.545   3.574  17.776  0.00  0.00    +0.000 A 
ATOM      8  C   UNL     1       3.715   3.682  17.029  0.00  0.00    +0.000 A 
ATOM      9  C   UNL     1       4.370   4.911  16.896  0.00  0.00    +0.000 A 
ATOM     10  C   UNL     1       3.777   6.046  17.502  0.00  0.00    +0.000 A 
BRANCH   9  11
ATOM     11  C   UNL     1       5.595   5.082  16.100  0.00  0.00    +0.000 A 
ATOM     12  N   UNL     1       5.602   5.266  14.788  0.00  0.00    +0.000 NA
ATOM     13  N   UNL     1       6.908   5.296  14.382  0.00  0.00    +0.000 NA
ATOM     14  N   UNL     1       7.721   5.153  15.415  0.00  0.00    +0.000 NA
ATOM     15  N   UNL     1       6.927   5.068  16.497  0.00  0.00    +0.000 N 
BRANCH  15  16
ATOM     16  C   UNL     1       7.485   5.015  17.836  0.00  0.00    +0.000 C 
ATOM     17  C   UNL     1       6.702   5.457  19.065  0.00  0.00    +0.000 C 
ATOM     18  C   UNL     1       7.822   6.306  18.577  0.00  0.00    +0.000 C 
ENDBRANCH  15  16
ENDBRANCH   9  11
ENDBRANCH   3   5
BRANCH   2  19
ATOM     19  C   UNL     1       1.178   8.568  20.623  0.00  0.00    +0.000 A 
ATOM     20  C   UNL     1       0.772   8.697  21.961  0.00  0.00    +0.000 A 
ATOM     21  C   UNL     1       0.212   9.888  22.421  0.00  0.00    +0.000 A 
ATOM     22  C   UNL     1       0.036  10.969  21.548  0.00  0.00    +0.000 A 
ATOM     23  C   UNL     1       0.432  10.830  20.204  0.00  0.00    +0.000 A 
ATOM     24  C   UNL     1       1.000   9.637  19.740  0.00  0.00    +0.000 A 
BRANCH  22  25
ATOM     25  C   UNL     1      -0.582  12.261  22.033  0.00  0.00    +0.000 C 
ATOM     26  F   UNL     1      -1.017  12.209  23.323  0.00  0.00    +0.000 F 
ATOM     27  F   UNL     1       0.291  13.305  21.975  0.00  0.00    +0.000 F 
ATOM     28  F   UNL     1      -1.661  12.634  21.290  0.00  0.00    +0.000 F 
ENDBRANCH  22  25
ENDBRANCH   2  19
TORSDOF 5
ENDMDL
MODEL 9
REMARK VINA RESULT:      -8.5      1.281      1.979
REMARK  Name = 
REMARK  5 active torsions:
REMARK  status: ('A' for Active; 'I' for Inactive)
REMARK    1  A    between atoms: C_2  and  C_18
REMARK    2  A    between atoms: N_3  and  C_4
REMARK    3  A    between atoms: C_8  and  C_9
REMARK    4  A    between atoms: N_13  and  C_14
REMARK    5  A    between atoms: C_21  and  C_22
REMARK                            x       y       z     vdW  Elec       q    Type
REMARK                         _______ _______ _______ _____ _____    ______ ____
ROOT
ATOM      1  O   UNL     1       2.280   7.835  19.237  0.00  0.00    +0.000 OA
ATOM      2  C   UNL     1       1.695   7.629  20.296  0.00  0.00    +0.000 C 
ATOM      3  N   UNL     1       1.639   6.430  20.992  0.00  0.00    +0.000 N 
ATOM      4  H   UNL     1       0.979   6.358  21.756  0.00  0.00    +0.000 HD
ENDROOT
BRANCH   3   5
ATOM      5  C   UNL     1       2.310   5.238  20.613  0.00  0.00    +0.000 A 
ATOM      6  C   UNL     1       2.132   4.026  21.281  0.00  0.00    +0.000 A 
ATOM      7  C   UNL     1       2.809   2.879  20.873  0.00  0.00    +0.000 A 
ATOM      8  C   UNL     1       3.675   2.924  19.784  0.00  0.00    +0.000 A 
ATOM      9  C   UNL     1       3.904   4.121  19.099  0.00  0.00    +0.000 A 
ATOM     10  C   UNL     1       3.189   5.271  19.516  0.00  0.00    +0.000 A 
BRANCH   9  11
ATOM     11  C   UNL     1       4.792   4.216  17.929  0.00  0.00    +0.000 A 
ATOM     12  N   UNL     1       4.608   3.534  16.808  0.00  0.00    +0.000 NA
ATOM     13  N   UNL     1       5.666   3.805  15.983  0.00  0.00    +0.000 NA
ATOM     14  N   UNL     1       6.499   4.656  16.556  0.00  0.00    +0.000 NA
ATOM     15  N   UNL     1       5.949   4.962  17.745  0.00  0.00    +0.000 N 
BRANCH  15  16
ATOM     16  C   UNL     1       6.541   5.966  18.609  0.00  0.00    +0.000 C 
ATOM     17  C   UNL     1       7.782   6.756  18.213  0.00  0.00    +0.000 C 
ATOM     18  C   UNL     1       7.895   5.710  19.266  0.00  0.00    +0.000 C 
ENDBRANCH  15  16
ENDBRANCH   9  11
ENDBRANCH   3   5
BRANCH   2  19
ATOM     19  C   UNL     1       0.906   8.763  20.852  0.00  0.00    +0.000 A 
ATOM     20  C   UNL     1       0.714   8.800  22.242  0.00  0.00    +0.000 A 
ATOM     21  C   UNL     1      -0.065   9.799  22.824  0.00  0.00    +0.000 A 
ATOM     22  C   UNL     1      -0.677  10.774  22.026  0.00  0.00    +0.000 A 
ATOM     23  C   UNL     1      -0.493  10.725  20.631  0.00  0.00    +0.000 A 
ATOM     24  C   UNL     1       0.293   9.725  20.043  0.00  0.00    +0.000 A 
BRANCH  22  25
ATOM     25  C   UNL     1      -1.533  11.855  22.646  0.00  0.00    +0.000 C 
ATOM     26  F   UNL     1      -2.278  12.548  21.741  0.00  0.00    +0.000 F 
ATOM     27  F   UNL     1      -2.418  11.357  23.553  0.00  0.00    +0.000 F 
ATOM     28  F   UNL     1      -0.796  12.785  23.313  0.00  0.00    +0.000 F 
ENDBRANCH  22  25
ENDBRANCH   2  19
TORSDOF 5
ENDMDL
