MODEL 1
REMARK VINA RESULT:      -8.8      0.000      0.000
REMARK  Name = 
REMARK  4 active torsions:
REMARK  status: ('A' for Active; 'I' for Inactive)
REMARK    1  A    between atoms: C_4  and  C_5
REMARK    2  A    between atoms: C_5  and  N_6
REMARK    3  A    between atoms: C_9  and  C_10
REMARK    4  A    between atoms: C_21  and  C_22
REMARK                            x       y       z     vdW  Elec       q    Type
REMARK                         _______ _______ _______ _____ _____    ______ ____
ROOT
ATOM      1  O   UNL     1       7.018   5.262  19.873  0.00  0.00    +0.000 OA
ATOM      2  C   UNL     1       6.015   5.265  19.169  0.00  0.00    +0.000 A 
ATOM      3  N   UNL     1       4.765   5.530  19.671  0.00  0.00    +0.000 N 
ATOM      4  C   UNL     1       3.635   5.568  18.900  0.00  0.00    +0.000 A 
ATOM      5  N   UNL     1       3.649   5.327  17.625  0.00  0.00    +0.000 NA
ATOM      6  C   UNL     1       4.866   4.989  17.022  0.00  0.00    +0.000 A 
ATOM      7  C   UNL     1       4.872   4.658  15.667  0.00  0.00    +0.000 A 
ATOM      8  C   UNL     1       6.066   4.328  15.000  0.00  0.00    +0.000 A 
ATOM      9  C   UNL     1       7.272   4.346  15.724  0.00  0.00    +0.000 A 
ATOM     10  C   UNL     1       7.279   4.661  17.083  0.00  0.00    +0.000 A 
ATOM     11  C   UNL     1       6.074   4.968  17.723  0.00  0.00    +0.000 A 
ATOM     12  H   UNL     1       4.723   5.714  20.663  0.00  0.00    +0.000 HD
ENDROOT
BRANCH   8  13
ATOM     13  C   UNL     1       6.060   3.958  13.538  0.00  0.00    +0.000 C 
ATOM     14  F   UNL     1       6.425   2.668  13.296  0.00  0.00    +0.000 F 
ATOM     15  F   UNL     1       4.833   4.111  12.967  0.00  0.00    +0.000 F 
ATOM     16  F   UNL     1       6.912   4.729  12.804  0.00  0.00    +0.000 F 
ENDBRANCH   8  13
BRANCH   4  17
ATOM     17  C   UNL     1       2.317   5.927  19.607  0.00  0.00    +0.000 C 
BRANCH  17  18
ATOM     18  N   UNL     1       2.155   7.369  19.873  0.00  0.00    +0.000 NA
ATOM     19  C   UNL     1       2.024   8.174  18.654  0.00  0.00    +0.000 C 
ATOM     20  C   UNL     1       1.256   9.456  18.777  0.00  0.00    +0.000 C 
ATOM     21  C   UNL     1       0.769   9.917  19.938  0.00  0.00    +0.000 C 
ATOM     22  C   UNL     1       0.993   9.167  21.214  0.00  0.00    +0.000 C 
ATOM     23  C   UNL     1       1.219   7.669  20.957  0.00  0.00    +0.000 C 
BRANCH  21  24
ATOM     24  C   UNL     1       0.002  11.162  19.994  0.00  0.00    +0.000 A 
ATOM     25  C   UNL     1      -1.302  11.219  19.492  0.00  0.00    +0.000 A 
ATOM     26  C   UNL     1      -2.034  12.405  19.574  0.00  0.00    +0.000 A 
ATOM     27  C   UNL     1      -1.463  13.539  20.151  0.00  0.00    +0.000 A 
ATOM     28  C   UNL     1      -0.157  13.491  20.637  0.00  0.00    +0.000 A 
ATOM     29  C   UNL     1       0.575  12.306  20.559  0.00  0.00    +0.000 A 
ENDBRANCH  21  24
ENDBRANCH  17  18
ENDBRANCH   4  17
TORSDOF 4
ENDMDL
MODEL 2
REMARK VINA RESULT:      -8.8      0.380      1.106
REMARK  Name = 
REMARK  4 active torsions:
REMARK  status: ('A' for Active; 'I' for Inactive)
REMARK    1  A    between atoms: C_4  and  C_5
REMARK    2  A    between atoms: C_5  and  N_6
REMARK    3  A    between atoms: C_9  and  C_10
REMARK    4  A    between atoms: C_21  and  C_22
REMARK                            x       y       z     vdW  Elec       q    Type
REMARK                         _______ _______ _______ _____ _____    ______ ____
ROOT
ATOM      1  O   UNL     1       7.030   5.275  19.873  0.00  0.00    +0.000 OA
ATOM      2  C   UNL     1       6.025   5.258  19.170  0.00  0.00    +0.000 A 
ATOM      3  N   UNL     1       4.771   5.499  19.674  0.00  0.00    +0.000 N 
ATOM      4  C   UNL     1       3.639   5.514  18.906  0.00  0.00    +0.000 A 
ATOM      5  N   UNL     1       3.655   5.273  17.631  0.00  0.00    +0.000 NA
ATOM      6  C   UNL     1       4.877   4.959  17.025  0.00  0.00    +0.000 A 
ATOM      7  C   UNL     1       4.887   4.628  15.670  0.00  0.00    +0.000 A 
ATOM      8  C   UNL     1       6.086   4.322  15.001  0.00  0.00    +0.000 A 
ATOM      9  C   UNL     1       7.293   4.364  15.722  0.00  0.00    +0.000 A 
ATOM     10  C   UNL     1       7.296   4.678  17.082  0.00  0.00    +0.000 A 
ATOM     11  C   UNL     1       6.087   4.962  17.724  0.00  0.00    +0.000 A 
ATOM     12  H   UNL     1       4.728   5.681  20.667  0.00  0.00    +0.000 HD
ENDROOT
BRANCH   8  13
ATOM     13  C   UNL     1       6.084   3.952  13.539  0.00  0.00    +0.000 C 
ATOM     14  F   UNL     1       6.993   4.644  12.796  0.00  0.00    +0.000 F 
ATOM     15  F   UNL     1       6.362   2.635  13.335  0.00  0.00    +0.000 F 
ATOM     16  F   UNL     1       4.876   4.174  12.949  0.00  0.00    +0.000 F 
ENDBRANCH   8  13
BRANCH   4  17
ATOM     17  C   UNL     1       2.316   5.847  19.616  0.00  0.00    +0.000 C 
BRANCH  17  18
ATOM     18  N   UNL     1       2.158   7.277  19.946  0.00  0.00    +0.000 NA
ATOM     19  C   UNL     1       2.025   8.134  18.763  0.00  0.00    +0.000 C 
ATOM     20  C   UNL     1       1.260   9.411  18.944  0.00  0.00    +0.000 C 
ATOM     21  C   UNL     1       0.777   9.822  20.125  0.00  0.00    +0.000 C 
ATOM     22  C   UNL     1       1.003   9.017  21.367  0.00  0.00    +0.000 C 
ATOM     23  C   UNL     1       1.225   7.530  21.044  0.00  0.00    +0.000 C 
BRANCH  21  24
ATOM     24  C   UNL     1       0.013  11.065  20.238  0.00  0.00    +0.000 A 
ATOM     25  C   UNL     1       0.026  11.804  21.425  0.00  0.00    +0.000 A 
ATOM     26  C   UNL     1      -0.686  13.002  21.514  0.00  0.00    +0.000 A 
ATOM     27  C   UNL     1      -1.418  13.461  20.419  0.00  0.00    +0.000 A 
ATOM     28  C   UNL     1      -1.447  12.718  19.240  0.00  0.00    +0.000 A 
ATOM     29  C   UNL     1      -0.735  11.522  19.148  0.00  0.00    +0.000 A 
ENDBRANCH  21  24
ENDBRANCH  17  18
ENDBRANCH   4  17
TORSDOF 4
ENDMDL
MODEL 3
REMARK VINA RESULT:      -8.7      1.062      1.459
REMARK  Name = 
REMARK  4 active torsions:
REMARK  status: ('A' for Active; 'I' for Inactive)
REMARK    1  A    between atoms: C_4  and  C_5
REMARK    2  A    between atoms: C_5  and  N_6
REMARK    3  A    between atoms: C_9  and  C_10
REMARK    4  A    between atoms: C_21  and  C_22
REMARK                            x       y       z     vdW  Elec       q    Type
REMARK                         _______ _______ _______ _____ _____    ______ ____
ROOT
ATOM      1  O   UNL     1       7.742   6.022  18.276  0.00  0.00    +0.000 OA
ATOM      2  C   UNL     1       6.653   5.639  17.863  0.00  0.00    +0.000 A 
ATOM      3  N   UNL     1       5.532   5.619  18.656  0.00  0.00    +0.000 N 
ATOM      4  C   UNL     1       4.300   5.224  18.210  0.00  0.00    +0.000 A 
ATOM      5  N   UNL     1       4.094   4.805  17.000  0.00  0.00    +0.000 NA
ATOM      6  C   UNL     1       5.184   4.730  16.124  0.00  0.00    +0.000 A 
ATOM      7  C   UNL     1       4.980   4.211  14.845  0.00  0.00    +0.000 A 
ATOM      8  C   UNL     1       6.032   4.128  13.915  0.00  0.00    +0.000 A 
ATOM      9  C   UNL     1       7.306   4.591  14.290  0.00  0.00    +0.000 A 
ATOM     10  C   UNL     1       7.527   5.098  15.571  0.00  0.00    +0.000 A 
ATOM     11  C   UNL     1       6.467   5.153  16.481  0.00  0.00    +0.000 A 
ATOM     12  H   UNL     1       5.665   5.933  19.606  0.00  0.00    +0.000 HD
ENDROOT
BRANCH   8  13
ATOM     13  C   UNL     1       5.804   3.553  12.539  0.00  0.00    +0.000 C 
ATOM     14  F   UNL     1       6.039   2.213  12.458  0.00  0.00    +0.000 F 
ATOM     15  F   UNL     1       4.526   3.733  12.104  0.00  0.00    +0.000 F 
ATOM     16  F   UNL     1       6.603   4.128  11.597  0.00  0.00    +0.000 F 
ENDBRANCH   8  13
BRANCH   4  17
ATOM     17  C   UNL     1       3.135   5.307  19.211  0.00  0.00    +0.000 C 
BRANCH  17  18
ATOM     18  N   UNL     1       2.759   6.686  19.579  0.00  0.00    +0.000 NA
ATOM     19  C   UNL     1       2.606   7.574  18.422  0.00  0.00    +0.000 C 
ATOM     20  C   UNL     1       1.664   8.729  18.585  0.00  0.00    +0.000 C 
ATOM     21  C   UNL     1       1.037   9.016  19.735  0.00  0.00    +0.000 C 
ATOM     22  C   UNL     1       1.271   8.188  20.961  0.00  0.00    +0.000 C 
ATOM     23  C   UNL     1       1.716   6.761  20.602  0.00  0.00    +0.000 C 
BRANCH  21  24
ATOM     24  C   UNL     1       0.106  10.140  19.829  0.00  0.00    +0.000 A 
ATOM     25  C   UNL     1       0.090  10.959  20.962  0.00  0.00    +0.000 A 
ATOM     26  C   UNL     1      -0.786  12.045  21.031  0.00  0.00    +0.000 A 
ATOM     27  C   UNL     1      -1.651  12.311  19.970  0.00  0.00    +0.000 A 
ATOM     28  C   UNL     1      -1.649  11.487  18.846  0.00  0.00    +0.000 A 
ATOM     29  C   UNL     1      -0.774  10.403  18.774  0.00  0.00    +0.000 A 
ENDBRANCH  21  24
ENDBRANCH  17  18
ENDBRANCH   4  17
TORSDOF 4
ENDMDL
MODEL 4
REMARK VINA RESULT:      -8.7      1.459      2.268
REMARK  Name = 
REMARK  4 active torsions:
REMARK  status: ('A' for Active; 'I' for Inactive)
REMARK    1  A    between atoms: C_4  and  C_5
REMARK    2  A    between atoms: C_5  and  N_6
REMARK    3  A    between atoms: C_9  and  C_10
REMARK    4  A    between atoms: C_21  and  C_22
REMARK                            x       y       z     vdW  Elec       q    Type
REMARK                         _______ _______ _______ _____ _____    ______ ____
ROOT
ATOM      1  O   UNL     1       7.815   6.106  18.047  0.00  0.00    +0.000 OA
ATOM      2  C   UNL     1       6.791   5.512  17.730  0.00  0.00    +0.000 A 
ATOM      3  N   UNL     1       5.798   5.223  18.633  0.00  0.00    +0.000 N 
ATOM      4  C   UNL     1       4.634   4.587  18.297  0.00  0.00    +0.000 A 
ATOM      5  N   UNL     1       4.383   4.177  17.091  0.00  0.00    +0.000 NA
ATOM      6  C   UNL     1       5.355   4.371  16.103  0.00  0.00    +0.000 A 
ATOM      7  C   UNL     1       5.120   3.866  14.824  0.00  0.00    +0.000 A 
ATOM      8  C   UNL     1       6.050   4.046  13.785  0.00  0.00    +0.000 A 
ATOM      9  C   UNL     1       7.233   4.758  14.051  0.00  0.00    +0.000 A 
ATOM     10  C   UNL     1       7.489   5.255  15.330  0.00  0.00    +0.000 A 
ATOM     11  C   UNL     1       6.553   5.048  16.348  0.00  0.00    +0.000 A 
ATOM     12  H   UNL     1       5.971   5.524  19.581  0.00  0.00    +0.000 HD
ENDROOT
BRANCH   8  13
ATOM     13  C   UNL     1       5.792   3.484  12.409  0.00  0.00    +0.000 C 
ATOM     14  F   UNL     1       5.955   2.134  12.327  0.00  0.00    +0.000 F 
ATOM     15  F   UNL     1       4.525   3.733  11.975  0.00  0.00    +0.000 F 
ATOM     16  F   UNL     1       6.620   4.016  11.467  0.00  0.00    +0.000 F 
ENDBRANCH   8  13
BRANCH   4  17
ATOM     17  C   UNL     1       3.601   4.381  19.418  0.00  0.00    +0.000 C 
BRANCH  17  18
ATOM     18  N   UNL     1       2.570   5.435  19.483  0.00  0.00    +0.000 NA
ATOM     19  C   UNL     1       1.732   5.354  20.684  0.00  0.00    +0.000 C 
ATOM     20  C   UNL     1       1.130   6.639  21.168  0.00  0.00    +0.000 C 
ATOM     21  C   UNL     1       1.260   7.806  20.521  0.00  0.00    +0.000 C 
ATOM     22  C   UNL     1       2.015   7.886  19.230  0.00  0.00    +0.000 C 
ATOM     23  C   UNL     1       3.059   6.764  19.116  0.00  0.00    +0.000 C 
BRANCH  21  24
ATOM     24  C   UNL     1       0.674   9.036  21.055  0.00  0.00    +0.000 A 
ATOM     25  C   UNL     1       0.100   9.056  22.329  0.00  0.00    +0.000 A 
ATOM     26  C   UNL     1      -0.435  10.241  22.840  0.00  0.00    +0.000 A 
ATOM     27  C   UNL     1      -0.403  11.407  22.075  0.00  0.00    +0.000 A 
ATOM     28  C   UNL     1       0.153  11.386  20.796  0.00  0.00    +0.000 A 
ATOM     29  C   UNL     1       0.690  10.204  20.286  0.00  0.00    +0.000 A 
ENDBRANCH  21  24
ENDBRANCH  17  18
ENDBRANCH   4  17
TORSDOF 4
ENDMDL
MODEL 5
REMARK VINA RESULT:      -8.6      1.152      1.458
REMARK  Name = 
REMARK  4 active torsions:
REMARK  status: ('A' for Active; 'I' for Inactive)
REMARK    1  A    between atoms: C_4  and  C_5
REMARK    2  A    between atoms: C_5  and  N_6
REMARK    3  A    between atoms: C_9  and  C_10
REMARK    4  A    between atoms: C_21  and  C_22
REMARK                            x       y       z     vdW  Elec       q    Type
REMARK                         _______ _______ _______ _____ _____    ______ ____
ROOT
ATOM      1  O   UNL     1       7.760   6.176  18.175  0.00  0.00    +0.000 OA
ATOM      2  C   UNL     1       6.672   5.768  17.783  0.00  0.00    +0.000 A 
ATOM      3  N   UNL     1       5.559   5.755  18.586  0.00  0.00    +0.000 N 
ATOM      4  C   UNL     1       4.328   5.332  18.163  0.00  0.00    +0.000 A 
ATOM      5  N   UNL     1       4.118   4.877  16.966  0.00  0.00    +0.000 NA
ATOM      6  C   UNL     1       5.200   4.793  16.083  0.00  0.00    +0.000 A 
ATOM      7  C   UNL     1       4.992   4.237  14.821  0.00  0.00    +0.000 A 
ATOM      8  C   UNL     1       6.036   4.142  13.883  0.00  0.00    +0.000 A 
ATOM      9  C   UNL     1       7.307   4.632  14.233  0.00  0.00    +0.000 A 
ATOM     10  C   UNL     1       7.533   5.176  15.498  0.00  0.00    +0.000 A 
ATOM     11  C   UNL     1       6.480   5.242  16.416  0.00  0.00    +0.000 A 
ATOM     12  H   UNL     1       5.696   6.097  19.527  0.00  0.00    +0.000 HD
ENDROOT
BRANCH   8  13
ATOM     13  C   UNL     1       5.804   3.527  12.525  0.00  0.00    +0.000 C 
ATOM     14  F   UNL     1       6.654   3.982  11.563  0.00  0.00    +0.000 F 
ATOM     15  F   UNL     1       5.946   2.173  12.537  0.00  0.00    +0.000 F 
ATOM     16  F   UNL     1       4.548   3.767  12.054  0.00  0.00    +0.000 F 
ENDBRANCH   8  13
BRANCH   4  17
ATOM     17  C   UNL     1       3.171   5.426  19.172  0.00  0.00    +0.000 C 
BRANCH  17  18
ATOM     18  N   UNL     1       2.787   6.810  19.513  0.00  0.00    +0.000 NA
ATOM     19  C   UNL     1       2.581   7.662  18.338  0.00  0.00    +0.000 C 
ATOM     20  C   UNL     1       1.627   8.807  18.500  0.00  0.00    +0.000 C 
ATOM     21  C   UNL     1       1.035   9.118  19.662  0.00  0.00    +0.000 C 
ATOM     22  C   UNL     1       1.323   8.329  20.901  0.00  0.00    +0.000 C 
ATOM     23  C   UNL     1       1.778   6.899  20.569  0.00  0.00    +0.000 C 
BRANCH  21  24
ATOM     24  C   UNL     1       0.091  10.231  19.755  0.00  0.00    +0.000 A 
ATOM     25  C   UNL     1      -0.388  10.858  18.601  0.00  0.00    +0.000 A 
ATOM     26  C   UNL     1      -1.309  11.903  18.700  0.00  0.00    +0.000 A 
ATOM     27  C   UNL     1      -1.749  12.328  19.953  0.00  0.00    +0.000 A 
ATOM     28  C   UNL     1      -1.261  11.717  21.107  0.00  0.00    +0.000 A 
ATOM     29  C   UNL     1      -0.343  10.672  21.010  0.00  0.00    +0.000 A 
ENDBRANCH  21  24
ENDBRANCH  17  18
ENDBRANCH   4  17
TORSDOF 4
ENDMDL
MODEL 6
REMARK VINA RESULT:      -8.4      1.529      2.430
REMARK  Name = 
REMARK  4 active torsions:
REMARK  status: ('A' for Active; 'I' for Inactive)
REMARK    1  A    between atoms: C_4  and  C_5
REMARK    2  A    between atoms: C_5  and  N_6
REMARK    3  A    between atoms: C_9  and  C_10
REMARK    4  A    between atoms: C_21  and  C_22
REMARK                            x       y       z     vdW  Elec       q    Type
REMARK                         _______ _______ _______ _____ _____    ______ ____
ROOT
ATOM      1  O   UNL     1       7.661   6.409  17.815  0.00  0.00    +0.000 OA
ATOM      2  C   UNL     1       6.696   5.714  17.518  0.00  0.00    +0.000 A 
ATOM      3  N   UNL     1       5.724   5.379  18.428  0.00  0.00    +0.000 N 
ATOM      4  C   UNL     1       4.623   4.629  18.114  0.00  0.00    +0.000 A 
ATOM      5  N   UNL     1       4.421   4.146  16.927  0.00  0.00    +0.000 NA
ATOM      6  C   UNL     1       5.382   4.380  15.937  0.00  0.00    +0.000 A 
ATOM      7  C   UNL     1       5.204   3.801  14.680  0.00  0.00    +0.000 A 
ATOM      8  C   UNL     1       6.126   4.015  13.639  0.00  0.00    +0.000 A 
ATOM      9  C   UNL     1       7.239   4.840  13.880  0.00  0.00    +0.000 A 
ATOM     10  C   UNL     1       7.438   5.414  15.137  0.00  0.00    +0.000 A 
ATOM     11  C   UNL     1       6.513   5.170  16.158  0.00  0.00    +0.000 A 
ATOM     12  H   UNL     1       5.860   5.735  19.363  0.00  0.00    +0.000 HD
ENDROOT
BRANCH   8  13
ATOM     13  C   UNL     1       5.931   3.373  12.288  0.00  0.00    +0.000 C 
ATOM     14  F   UNL     1       6.906   3.680  11.388  0.00  0.00    +0.000 F 
ATOM     15  F   UNL     1       5.902   2.014  12.357  0.00  0.00    +0.000 F 
ATOM     16  F   UNL     1       4.756   3.742  11.703  0.00  0.00    +0.000 F 
ENDBRANCH   8  13
BRANCH   4  17
ATOM     17  C   UNL     1       3.602   4.382  19.237  0.00  0.00    +0.000 C 
BRANCH  17  18
ATOM     18  N   UNL     1       2.575   5.436  19.354  0.00  0.00    +0.000 NA
ATOM     19  C   UNL     1       1.809   5.364  20.603  0.00  0.00    +0.000 C 
ATOM     20  C   UNL     1       1.236   6.653  21.111  0.00  0.00    +0.000 C 
ATOM     21  C   UNL     1       1.326   7.815  20.448  0.00  0.00    +0.000 C 
ATOM     22  C   UNL     1       2.003   7.884  19.114  0.00  0.00    +0.000 C 
ATOM     23  C   UNL     1       3.040   6.762  18.948  0.00  0.00    +0.000 C 
BRANCH  21  24
ATOM     24  C   UNL     1       0.770   9.048  21.005  0.00  0.00    +0.000 A 
ATOM     25  C   UNL     1       0.829  10.245  20.285  0.00  0.00    +0.000 A 
ATOM     26  C   UNL     1       0.274  11.412  20.815  0.00  0.00    +0.000 A 
ATOM     27  C   UNL     1      -0.336  11.386  22.069  0.00  0.00    +0.000 A 
ATOM     28  C   UNL     1      -0.381  10.198  22.797  0.00  0.00    +0.000 A 
ATOM     29  C   UNL     1       0.171   9.032  22.269  0.00  0.00    +0.000 A 
ENDBRANCH  21  24
ENDBRANCH  17  18
ENDBRANCH   4  17
TORSDOF 4
ENDMDL
MODEL 7
REMARK VINA RESULT:      -8.4      1.463      2.224
REMARK  Name = 
REMARK  4 active torsions:
REMARK  status: ('A' for Active; 'I' for Inactive)
REMARK    1  A    between atoms: C_4  and  C_5
REMARK    2  A    between atoms: C_5  and  N_6
REMARK    3  A    between atoms: C_9  and  C_10
REMARK    4  A    between atoms: C_21  and  C_22
REMARK                            x       y       z     vdW  Elec       q    Type
REMARK                         _______ _______ _______ _____ _____    ______ ____
ROOT
ATOM      1  O   UNL     1       7.795   6.828  16.914  0.00  0.00    +0.000 OA
ATOM      2  C   UNL     1       6.793   6.144  16.738  0.00  0.00    +0.000 A 
ATOM      3  N   UNL     1       5.804   6.032  17.684  0.00  0.00    +0.000 N 
ATOM      4  C   UNL     1       4.664   5.299  17.500  0.00  0.00    +0.000 A 
ATOM      5  N   UNL     1       4.434   4.622  16.417  0.00  0.00    +0.000 NA
ATOM      6  C   UNL     1       5.406   4.621  15.410  0.00  0.00    +0.000 A 
ATOM      7  C   UNL     1       5.195   3.836  14.276  0.00  0.00    +0.000 A 
ATOM      8  C   UNL     1       6.126   3.810  13.222  0.00  0.00    +0.000 A 
ATOM      9  C   UNL     1       7.283   4.603  13.321  0.00  0.00    +0.000 A 
ATOM     10  C   UNL     1       7.515   5.381  14.456  0.00  0.00    +0.000 A 
ATOM     11  C   UNL     1       6.579   5.375  15.496  0.00  0.00    +0.000 A 
ATOM     12  H   UNL     1       5.961   6.543  18.541  0.00  0.00    +0.000 HD
ENDROOT
BRANCH   8  13
ATOM     13  C   UNL     1       5.895   2.947  12.007  0.00  0.00    +0.000 C 
ATOM     14  F   UNL     1       4.852   3.357  11.232  0.00  0.00    +0.000 F 
ATOM     15  F   UNL     1       6.978   2.907  11.183  0.00  0.00    +0.000 F 
ATOM     16  F   UNL     1       5.627   1.651  12.334  0.00  0.00    +0.000 F 
ENDBRANCH   8  13
BRANCH   4  17
ATOM     17  C   UNL     1       3.631   5.314  18.640  0.00  0.00    +0.000 C 
BRANCH  17  18
ATOM     18  N   UNL     1       3.191   6.667  19.030  0.00  0.00    +0.000 NA
ATOM     19  C   UNL     1       2.961   7.556  17.885  0.00  0.00    +0.000 C 
ATOM     20  C   UNL     1       1.962   8.656  18.083  0.00  0.00    +0.000 C 
ATOM     21  C   UNL     1       1.350   8.899  19.250  0.00  0.00    +0.000 C 
ATOM     22  C   UNL     1       1.659   8.075  20.462  0.00  0.00    +0.000 C 
ATOM     23  C   UNL     1       2.172   6.677  20.079  0.00  0.00    +0.000 C 
BRANCH  21  24
ATOM     24  C   UNL     1       0.362   9.971  19.378  0.00  0.00    +0.000 A 
ATOM     25  C   UNL     1       0.293  10.742  20.542  0.00  0.00    +0.000 A 
ATOM     26  C   UNL     1      -0.637  11.778  20.644  0.00  0.00    +0.000 A 
ATOM     27  C   UNL     1      -1.504  12.043  19.585  0.00  0.00    +0.000 A 
ATOM     28  C   UNL     1      -1.450  11.265  18.429  0.00  0.00    +0.000 A 
ATOM     29  C   UNL     1      -0.521  10.231  18.324  0.00  0.00    +0.000 A 
ENDBRANCH  21  24
ENDBRANCH  17  18
ENDBRANCH   4  17
TORSDOF 4
ENDMDL
MODEL 8
REMARK VINA RESULT:      -8.3      1.370      2.016
REMARK  Name = 
REMARK  4 active torsions:
REMARK  status: ('A' for Active; 'I' for Inactive)
REMARK    1  A    between atoms: C_4  and  C_5
REMARK    2  A    between atoms: C_5  and  N_6
REMARK    3  A    between atoms: C_9  and  C_10
REMARK    4  A    between atoms: C_21  and  C_22
REMARK                            x       y       z     vdW  Elec       q    Type
REMARK                         _______ _______ _______ _____ _____    ______ ____
ROOT
ATOM      1  O   UNL     1       7.353   6.211  18.058  0.00  0.00    +0.000 OA
ATOM      2  C   UNL     1       6.342   5.725  17.562  0.00  0.00    +0.000 A 
ATOM      3  N   UNL     1       5.156   5.637  18.248  0.00  0.00    +0.000 N 
ATOM      4  C   UNL     1       4.008   5.126  17.707  0.00  0.00    +0.000 A 
ATOM      5  N   UNL     1       3.952   4.655  16.499  0.00  0.00    +0.000 NA
ATOM      6  C   UNL     1       5.123   4.644  15.731  0.00  0.00    +0.000 A 
ATOM      7  C   UNL     1       5.084   4.072  14.460  0.00  0.00    +0.000 A 
ATOM      8  C   UNL     1       6.222   4.049  13.634  0.00  0.00    +0.000 A 
ATOM      9  C   UNL     1       7.413   4.628  14.107  0.00  0.00    +0.000 A 
ATOM     10  C   UNL     1       7.471   5.190  15.382  0.00  0.00    +0.000 A 
ATOM     11  C   UNL     1       6.327   5.184  16.188  0.00  0.00    +0.000 A 
ATOM     12  H   UNL     1       5.172   5.989  19.194  0.00  0.00    +0.000 HD
ENDROOT
BRANCH   8  13
ATOM     13  C   UNL     1       6.173   3.415  12.266  0.00  0.00    +0.000 C 
ATOM     14  F   UNL     1       5.125   3.836  11.502  0.00  0.00    +0.000 F 
ATOM     15  F   UNL     1       7.293   3.669  11.534  0.00  0.00    +0.000 F 
ATOM     16  F   UNL     1       6.066   2.057  12.326  0.00  0.00    +0.000 F 
ENDBRANCH   8  13
BRANCH   4  17
ATOM     17  C   UNL     1       2.750   5.142  18.592  0.00  0.00    +0.000 C 
BRANCH  17  18
ATOM     18  N   UNL     1       2.607   6.364  19.407  0.00  0.00    +0.000 NA
ATOM     19  C   UNL     1       2.312   7.561  18.612  0.00  0.00    +0.000 C 
ATOM     20  C   UNL     1       1.552   8.653  19.303  0.00  0.00    +0.000 C 
ATOM     21  C   UNL     1       1.212   8.612  20.599  0.00  0.00    +0.000 C 
ATOM     22  C   UNL     1       1.607   7.449  21.456  0.00  0.00    +0.000 C 
ATOM     23  C   UNL     1       1.814   6.175  20.621  0.00  0.00    +0.000 C 
BRANCH  21  24
ATOM     24  C   UNL     1       0.445   9.695  21.214  0.00  0.00    +0.000 A 
ATOM     25  C   UNL     1       0.352  10.944  20.593  0.00  0.00    +0.000 A 
ATOM     26  C   UNL     1      -0.403  11.964  21.176  0.00  0.00    +0.000 A 
ATOM     27  C   UNL     1      -1.062  11.739  22.385  0.00  0.00    +0.000 A 
ATOM     28  C   UNL     1      -0.957  10.501  23.016  0.00  0.00    +0.000 A 
ATOM     29  C   UNL     1      -0.205   9.480  22.434  0.00  0.00    +0.000 A 
ENDBRANCH  21  24
ENDBRANCH  17  18
ENDBRANCH   4  17
TORSDOF 4
ENDMDL
MODEL 9
REMARK VINA RESULT:      -8.3      1.245      1.841
REMARK  Name = 
REMARK  4 active torsions:
REMARK  status: ('A' for Active; 'I' for Inactive)
REMARK    1  A    between atoms: C_4  and  C_5
REMARK    2  A    between atoms: C_5  and  N_6
REMARK    3  A    between atoms: C_9  and  C_10
REMARK    4  A    between atoms: C_21  and  C_22
REMARK                            x       y       z     vdW  Elec       q    Type
REMARK                         _______ _______ _______ _____ _____    ______ ____
ROOT
ATOM      1  O   UNL     1       7.815   5.706  18.435  0.00  0.00    +0.000 OA
ATOM      2  C   UNL     1       6.735   5.296  18.026  0.00  0.00    +0.000 A 
ATOM      3  N   UNL     1       5.645   5.148  18.848  0.00  0.00    +0.000 N 
ATOM      4  C   UNL     1       4.421   4.721  18.409  0.00  0.00    +0.000 A 
ATOM      5  N   UNL     1       4.197   4.391  17.174  0.00  0.00    +0.000 NA
ATOM      6  C   UNL     1       5.257   4.450  16.263  0.00  0.00    +0.000 A 
ATOM      7  C   UNL     1       5.038   4.026  14.952  0.00  0.00    +0.000 A 
ATOM      8  C   UNL     1       6.059   4.080  13.986  0.00  0.00    +0.000 A 
ATOM      9  C   UNL     1       7.318   4.582  14.359  0.00  0.00    +0.000 A 
ATOM     10  C   UNL     1       7.557   4.995  15.671  0.00  0.00    +0.000 A 
ATOM     11  C   UNL     1       6.527   4.915  16.614  0.00  0.00    +0.000 A 
ATOM     12  H   UNL     1       5.794   5.391  19.817  0.00  0.00    +0.000 HD
ENDROOT
BRANCH   8  13
ATOM     13  C   UNL     1       5.815   3.606  12.575  0.00  0.00    +0.000 C 
ATOM     14  F   UNL     1       6.203   2.319  12.352  0.00  0.00    +0.000 F 
ATOM     15  F   UNL     1       4.500   3.664  12.226  0.00  0.00    +0.000 F 
ATOM     16  F   UNL     1       6.478   4.359  11.652  0.00  0.00    +0.000 F 
ENDBRANCH   8  13
BRANCH   4  17
ATOM     17  C   UNL     1       3.290   4.655  19.448  0.00  0.00    +0.000 C 
BRANCH  17  18
ATOM     18  N   UNL     1       2.346   5.788  19.378  0.00  0.00    +0.000 NA
ATOM     19  C   UNL     1       1.834   6.200  20.689  0.00  0.00    +0.000 C 
ATOM     20  C   UNL     1       1.419   7.634  20.825  0.00  0.00    +0.000 C 
ATOM     21  C   UNL     1       1.424   8.505  19.806  0.00  0.00    +0.000 C 
ATOM     22  C   UNL     1       1.833   8.073  18.432  0.00  0.00    +0.000 C 
ATOM     23  C   UNL     1       2.775   6.859  18.478  0.00  0.00    +0.000 C 
BRANCH  21  24
ATOM     24  C   UNL     1       1.035   9.902  20.003  0.00  0.00    +0.000 A 
ATOM     25  C   UNL     1       1.198  10.838  18.978  0.00  0.00    +0.000 A 
ATOM     26  C   UNL     1       0.800  12.164  19.168  0.00  0.00    +0.000 A 
ATOM     27  C   UNL     1       0.244  12.557  20.385  0.00  0.00    +0.000 A 
ATOM     28  C   UNL     1       0.095  11.629  21.415  0.00  0.00    +0.000 A 
ATOM     29  C   UNL     1       0.489  10.305  21.227  0.00  0.00    +0.000 A 
ENDBRANCH  21  24
ENDBRANCH  17  18
ENDBRANCH   4  17
TORSDOF 4
ENDMDL
