MODEL 1
REMARK VINA RESULT:      -9.3      0.000      0.000
REMARK  Name = 
REMARK  4 active torsions:
REMARK  status: ('A' for Active; 'I' for Inactive)
REMARK    1  A    between atoms: C_2  and  C_16
REMARK    2  A    between atoms: N_3  and  C_4
REMARK    3  A    between atoms: C_9  and  C_10
REMARK    4  A    between atoms: N_21  and  C_22
REMARK                            x       y       z     vdW  Elec       q    Type
REMARK                         _______ _______ _______ _____ _____    ______ ____
ROOT
ATOM      1  O   UNL     1       2.080   8.236  18.971  0.00  0.00    +0.000 OA
ATOM      2  C   UNL     1       1.952   7.479  19.926  0.00  0.00    +0.000 C 
ATOM      3  N   UNL     1       1.287   7.737  21.111  0.00  0.00    +0.000 N 
ATOM      4  H   UNL     1       1.395   7.040  21.845  0.00  0.00    +0.000 HD
ENDROOT
BRANCH   3   5
ATOM      5  C   UNL     1       0.651   8.961  21.425  0.00  0.00    +0.000 A 
ATOM      6  C   UNL     1       0.072   9.209  22.676  0.00  0.00    +0.000 A 
ATOM      7  C   UNL     1      -0.622  10.393  22.923  0.00  0.00    +0.000 A 
ATOM      8  C   UNL     1      -0.742  11.344  21.923  0.00  0.00    +0.000 A 
ATOM      9  F   UNL     1      -1.447  12.449  22.210  0.00  0.00    +0.000 F 
ATOM     10  C   UNL     1      -0.155  11.149  20.668  0.00  0.00    +0.000 A 
ATOM     11  C   UNL     1       0.564   9.953  20.438  0.00  0.00    +0.000 A 
BRANCH  10  12
ATOM     12  C   UNL     1      -0.325  12.136  19.608  0.00  0.00    +0.000 A 
ATOM     13  N   UNL     1       0.211  13.404  19.671  0.00  0.00    +0.000 NA
ATOM     14  C   UNL     1      -0.205  13.985  18.575  0.00  0.00    +0.000 A 
ATOM     15  N   UNL     1      -0.957  13.109  17.867  0.00  0.00    +0.000 N 
ATOM     16  N   UNL     1      -1.051  11.924  18.494  0.00  0.00    +0.000 NA
ATOM     17  H   UNL     1      -1.431  13.244  16.982  0.00  0.00    +0.000 HD
ENDBRANCH  10  12
ENDBRANCH   3   5
BRANCH   2  18
ATOM     18  C   UNL     1       2.675   6.137  19.845  0.00  0.00    +0.000 A 
ATOM     19  C   UNL     1       2.167   5.109  20.774  0.00  0.00    +0.000 A 
ATOM     20  C   UNL     1       2.657   3.881  20.644  0.00  0.00    +0.000 A 
ATOM     21  C   UNL     1       3.679   3.575  19.627  0.00  0.00    +0.000 A 
ATOM     22  O   UNL     1       4.050   2.402  19.562  0.00  0.00    +0.000 OA
ATOM     23  N   UNL     1       4.157   4.664  18.883  0.00  0.00    +0.000 N 
ATOM     24  N   UNL     1       3.634   5.958  18.987  0.00  0.00    +0.000 NA
BRANCH  23  25
ATOM     25  C   UNL     1       5.146   4.509  17.856  0.00  0.00    +0.000 A 
ATOM     26  C   UNL     1       4.796   4.146  16.547  0.00  0.00    +0.000 A 
ATOM     27  C   UNL     1       5.763   4.016  15.544  0.00  0.00    +0.000 A 
ATOM     28  C   UNL     1       7.105   4.227  15.843  0.00  0.00    +0.000 A 
ATOM     29  C   UNL     1       7.477   4.575  17.138  0.00  0.00    +0.000 A 
ATOM     30  C   UNL     1       6.504   4.729  18.134  0.00  0.00    +0.000 A 
ENDBRANCH  23  25
ENDBRANCH   2  18
TORSDOF 4
ENDMDL
MODEL 2
REMARK VINA RESULT:      -9.2      1.263      1.522
REMARK  Name = 
REMARK  4 active torsions:
REMARK  status: ('A' for Active; 'I' for Inactive)
REMARK    1  A    between atoms: C_2  and  C_16
REMARK    2  A    between atoms: N_3  and  C_4
REMARK    3  A    between atoms: C_9  and  C_10
REMARK    4  A    between atoms: N_21  and  C_22
REMARK                            x       y       z     vdW  Elec       q    Type
REMARK                         _______ _______ _______ _____ _____    ______ ____
ROOT
ATOM      1  O   UNL     1       0.290   5.819  20.671  0.00  0.00    +0.000 OA
ATOM      2  C   UNL     1       1.472   6.144  20.716  0.00  0.00    +0.000 C 
ATOM      3  N   UNL     1       1.979   7.414  20.918  0.00  0.00    +0.000 N 
ATOM      4  H   UNL     1       2.983   7.519  20.794  0.00  0.00    +0.000 HD
ENDROOT
BRANCH   3   5
ATOM      5  C   UNL     1       1.190   8.577  21.087  0.00  0.00    +0.000 A 
ATOM      6  C   UNL     1       0.912   9.122  22.346  0.00  0.00    +0.000 A 
ATOM      7  C   UNL     1       0.060  10.218  22.483  0.00  0.00    +0.000 A 
ATOM      8  C   UNL     1      -0.520  10.784  21.359  0.00  0.00    +0.000 A 
ATOM      9  F   UNL     1      -1.353  11.816  21.555  0.00  0.00    +0.000 F 
ATOM     10  C   UNL     1      -0.247  10.289  20.079  0.00  0.00    +0.000 A 
ATOM     11  C   UNL     1       0.635   9.190  19.955  0.00  0.00    +0.000 A 
BRANCH  10  12
ATOM     12  C   UNL     1      -0.898  10.862  18.907  0.00  0.00    +0.000 A 
ATOM     13  N   UNL     1      -1.795  10.161  18.130  0.00  0.00    +0.000 NA
ATOM     14  C   UNL     1      -2.104  10.991  17.166  0.00  0.00    +0.000 A 
ATOM     15  N   UNL     1      -1.432  12.152  17.349  0.00  0.00    +0.000 N 
ATOM     16  N   UNL     1      -0.659  12.105  18.447  0.00  0.00    +0.000 NA
ATOM     17  H   UNL     1      -1.440  12.992  16.781  0.00  0.00    +0.000 HD
ENDBRANCH  10  12
ENDBRANCH   3   5
BRANCH   2  18
ATOM     18  C   UNL     1       2.500   5.052  20.432  0.00  0.00    +0.000 A 
ATOM     19  C   UNL     1       2.350   3.838  21.257  0.00  0.00    +0.000 A 
ATOM     20  C   UNL     1       3.121   2.800  20.951  0.00  0.00    +0.000 A 
ATOM     21  C   UNL     1       4.095   2.876  19.848  0.00  0.00    +0.000 A 
ATOM     22  O   UNL     1       4.742   1.854  19.620  0.00  0.00    +0.000 OA
ATOM     23  N   UNL     1       4.217   4.123  19.215  0.00  0.00    +0.000 N 
ATOM     24  N   UNL     1       3.396   5.219  19.505  0.00  0.00    +0.000 NA
BRANCH  23  25
ATOM     25  C   UNL     1       5.120   4.337  18.122  0.00  0.00    +0.000 A 
ATOM     26  C   UNL     1       4.744   4.078  16.795  0.00  0.00    +0.000 A 
ATOM     27  C   UNL     1       5.623   4.308  15.732  0.00  0.00    +0.000 A 
ATOM     28  C   UNL     1       6.907   4.782  15.982  0.00  0.00    +0.000 A 
ATOM     29  C   UNL     1       7.306   5.032  17.292  0.00  0.00    +0.000 A 
ATOM     30  C   UNL     1       6.416   4.825  18.353  0.00  0.00    +0.000 A 
ENDBRANCH  23  25
ENDBRANCH   2  18
TORSDOF 4
ENDMDL
MODEL 3
REMARK VINA RESULT:      -9.2      2.106      2.588
REMARK  Name = 
REMARK  4 active torsions:
REMARK  status: ('A' for Active; 'I' for Inactive)
REMARK    1  A    between atoms: C_2  and  C_16
REMARK    2  A    between atoms: N_3  and  C_4
REMARK    3  A    between atoms: C_9  and  C_10
REMARK    4  A    between atoms: N_21  and  C_22
REMARK                            x       y       z     vdW  Elec       q    Type
REMARK                         _______ _______ _______ _____ _____    ______ ____
ROOT
ATOM      1  O   UNL     1       1.383   8.233  21.059  0.00  0.00    +0.000 OA
ATOM      2  C   UNL     1       1.771   7.895  19.946  0.00  0.00    +0.000 C 
ATOM      3  N   UNL     1       1.646   8.608  18.768  0.00  0.00    +0.000 N 
ATOM      4  H   UNL     1       1.909   8.115  17.917  0.00  0.00    +0.000 HD
ENDROOT
BRANCH   3   5
ATOM      5  C   UNL     1       1.012   9.868  18.654  0.00  0.00    +0.000 A 
ATOM      6  C   UNL     1       1.610  11.055  19.094  0.00  0.00    +0.000 A 
ATOM      7  C   UNL     1       0.922  12.267  19.047  0.00  0.00    +0.000 A 
ATOM      8  C   UNL     1      -0.373  12.305  18.554  0.00  0.00    +0.000 A 
ATOM      9  F   UNL     1      -0.995  13.494  18.561  0.00  0.00    +0.000 F 
ATOM     10  C   UNL     1      -0.998  11.148  18.078  0.00  0.00    +0.000 A 
ATOM     11  C   UNL     1      -0.280   9.930  18.113  0.00  0.00    +0.000 A 
BRANCH  10  12
ATOM     12  C   UNL     1      -2.377  11.191  17.604  0.00  0.00    +0.000 A 
ATOM     13  N   UNL     1      -2.722  10.986  16.286  0.00  0.00    +0.000 NA
ATOM     14  C   UNL     1      -4.020  11.159  16.262  0.00  0.00    +0.000 A 
ATOM     15  N   UNL     1      -4.451  11.449  17.512  0.00  0.00    +0.000 N 
ATOM     16  N   UNL     1      -3.433  11.476  18.389  0.00  0.00    +0.000 NA
ATOM     17  H   UNL     1      -5.391  11.645  17.834  0.00  0.00    +0.000 HD
ENDBRANCH  10  12
ENDBRANCH   3   5
BRANCH   2  18
ATOM     18  C   UNL     1       2.379   6.500  19.821  0.00  0.00    +0.000 A 
ATOM     19  C   UNL     1       1.678   5.454  20.590  0.00  0.00    +0.000 A 
ATOM     20  C   UNL     1       2.072   4.199  20.401  0.00  0.00    +0.000 A 
ATOM     21  C   UNL     1       3.175   3.880  19.478  0.00  0.00    +0.000 A 
ATOM     22  O   UNL     1       3.448   2.686  19.346  0.00  0.00    +0.000 OA
ATOM     23  N   UNL     1       3.831   4.975  18.894  0.00  0.00    +0.000 N 
ATOM     24  N   UNL     1       3.413   6.301  19.060  0.00  0.00    +0.000 NA
BRANCH  23  25
ATOM     25  C   UNL     1       4.915   4.811  17.971  0.00  0.00    +0.000 A 
ATOM     26  C   UNL     1       4.691   4.596  16.603  0.00  0.00    +0.000 A 
ATOM     27  C   UNL     1       5.754   4.456  15.704  0.00  0.00    +0.000 A 
ATOM     28  C   UNL     1       7.065   4.506  16.167  0.00  0.00    +0.000 A 
ATOM     29  C   UNL     1       7.311   4.703  17.523  0.00  0.00    +0.000 A 
ATOM     30  C   UNL     1       6.245   4.869  18.416  0.00  0.00    +0.000 A 
ENDBRANCH  23  25
ENDBRANCH   2  18
TORSDOF 4
ENDMDL
MODEL 4
REMARK VINA RESULT:      -9.2      2.079      2.683
REMARK  Name = 
REMARK  4 active torsions:
REMARK  status: ('A' for Active; 'I' for Inactive)
REMARK    1  A    between atoms: C_2  and  C_16
REMARK    2  A    between atoms: N_3  and  C_4
REMARK    3  A    between atoms: C_9  and  C_10
REMARK    4  A    between atoms: N_21  and  C_22
REMARK                            x       y       z     vdW  Elec       q    Type
REMARK                         _______ _______ _______ _____ _____    ______ ____
ROOT
ATOM      1  O   UNL     1       1.367   8.160  21.076  0.00  0.00    +0.000 OA
ATOM      2  C   UNL     1       1.790   7.858  19.965  0.00  0.00    +0.000 C 
ATOM      3  N   UNL     1       1.684   8.600  18.803  0.00  0.00    +0.000 N 
ATOM      4  H   UNL     1       1.977   8.135  17.948  0.00  0.00    +0.000 HD
ENDROOT
BRANCH   3   5
ATOM      5  C   UNL     1       1.030   9.852  18.706  0.00  0.00    +0.000 A 
ATOM      6  C   UNL     1       1.570  11.027  19.241  0.00  0.00    +0.000 A 
ATOM      7  C   UNL     1       0.859  12.226  19.203  0.00  0.00    +0.000 A 
ATOM      8  C   UNL     1      -0.399  12.263  18.624  0.00  0.00    +0.000 A 
ATOM      9  F   UNL     1      -1.047  13.438  18.645  0.00  0.00    +0.000 F 
ATOM     10  C   UNL     1      -0.965  11.118  18.053  0.00  0.00    +0.000 A 
ATOM     11  C   UNL     1      -0.223   9.914  18.080  0.00  0.00    +0.000 A 
BRANCH  10  12
ATOM     12  C   UNL     1      -2.308  11.158  17.487  0.00  0.00    +0.000 A 
ATOM     13  N   UNL     1      -3.439  11.341  18.254  0.00  0.00    +0.000 NA
ATOM     14  C   UNL     1      -4.426  11.261  17.398  0.00  0.00    +0.000 A 
ATOM     15  N   UNL     1      -3.922  11.047  16.160  0.00  0.00    +0.000 N 
ATOM     16  N   UNL     1      -2.580  10.978  16.181  0.00  0.00    +0.000 NA
ATOM     17  H   UNL     1      -4.413  10.930  15.281  0.00  0.00    +0.000 HD
ENDBRANCH  10  12
ENDBRANCH   3   5
BRANCH   2  18
ATOM     18  C   UNL     1       2.427   6.478  19.820  0.00  0.00    +0.000 A 
ATOM     19  C   UNL     1       1.775   5.416  20.611  0.00  0.00    +0.000 A 
ATOM     20  C   UNL     1       2.192   4.170  20.410  0.00  0.00    +0.000 A 
ATOM     21  C   UNL     1       3.272   3.877  19.451  0.00  0.00    +0.000 A 
ATOM     22  O   UNL     1       3.568   2.690  19.310  0.00  0.00    +0.000 OA
ATOM     23  N   UNL     1       3.883   4.987  18.847  0.00  0.00    +0.000 N 
ATOM     24  N   UNL     1       3.440   6.303  19.026  0.00  0.00    +0.000 NA
BRANCH  23  25
ATOM     25  C   UNL     1       4.940   4.847  17.890  0.00  0.00    +0.000 A 
ATOM     26  C   UNL     1       6.290   4.882  18.273  0.00  0.00    +0.000 A 
ATOM     27  C   UNL     1       7.317   4.725  17.336  0.00  0.00    +0.000 A 
ATOM     28  C   UNL     1       7.009   4.553  15.991  0.00  0.00    +0.000 A 
ATOM     29  C   UNL     1       5.677   4.530  15.586  0.00  0.00    +0.000 A 
ATOM     30  C   UNL     1       4.650   4.661  16.529  0.00  0.00    +0.000 A 
ENDBRANCH  23  25
ENDBRANCH   2  18
TORSDOF 4
ENDMDL
MODEL 5
REMARK VINA RESULT:      -9.1      2.561      3.937
REMARK  Name = 
REMARK  4 active torsions:
REMARK  status: ('A' for Active; 'I' for Inactive)
REMARK    1  A    between atoms: C_2  and  C_16
REMARK    2  A    between atoms: N_3  and  C_4
REMARK    3  A    between atoms: C_9  and  C_10
REMARK    4  A    between atoms: N_21  and  C_22
REMARK                            x       y       z     vdW  Elec       q    Type
REMARK                         _______ _______ _______ _____ _____    ______ ____
ROOT
ATOM      1  O   UNL     1       2.257   5.723  17.800  0.00  0.00    +0.000 OA
ATOM      2  C   UNL     1       3.192   6.505  17.931  0.00  0.00    +0.000 C 
ATOM      3  N   UNL     1       3.117   7.844  18.265  0.00  0.00    +0.000 N 
ATOM      4  H   UNL     1       3.985   8.370  18.199  0.00  0.00    +0.000 HD
ENDROOT
BRANCH   3   5
ATOM      5  C   UNL     1       1.911   8.550  18.492  0.00  0.00    +0.000 A 
ATOM      6  C   UNL     1       1.203   9.181  17.463  0.00  0.00    +0.000 A 
ATOM      7  C   UNL     1       0.066   9.940  17.735  0.00  0.00    +0.000 A 
ATOM      8  C   UNL     1      -0.379  10.072  19.041  0.00  0.00    +0.000 A 
ATOM      9  F   UNL     1      -1.461  10.840  19.244  0.00  0.00    +0.000 F 
ATOM     10  C   UNL     1       0.282   9.436  20.096  0.00  0.00    +0.000 A 
ATOM     11  C   UNL     1       1.422   8.652  19.802  0.00  0.00    +0.000 A 
BRANCH  10  12
ATOM     12  C   UNL     1      -0.167   9.618  21.472  0.00  0.00    +0.000 A 
ATOM     13  N   UNL     1      -0.312  10.860  22.053  0.00  0.00    +0.000 NA
ATOM     14  C   UNL     1      -0.673  10.598  23.284  0.00  0.00    +0.000 A 
ATOM     15  N   UNL     1      -0.752   9.257  23.447  0.00  0.00    +0.000 N 
ATOM     16  N   UNL     1      -0.439   8.605  22.315  0.00  0.00    +0.000 NA
ATOM     17  H   UNL     1      -0.995   8.727  24.276  0.00  0.00    +0.000 HD
ENDBRANCH  10  12
ENDBRANCH   3   5
BRANCH   2  18
ATOM     18  C   UNL     1       4.586   5.974  17.606  0.00  0.00    +0.000 A 
ATOM     19  C   UNL     1       5.450   5.760  18.783  0.00  0.00    +0.000 A 
ATOM     20  C   UNL     1       6.618   5.161  18.575  0.00  0.00    +0.000 A 
ATOM     21  C   UNL     1       7.031   4.752  17.221  0.00  0.00    +0.000 A 
ATOM     22  O   UNL     1       8.116   4.177  17.131  0.00  0.00    +0.000 OA
ATOM     23  N   UNL     1       6.168   5.114  16.175  0.00  0.00    +0.000 N 
ATOM     24  N   UNL     1       4.922   5.720  16.377  0.00  0.00    +0.000 NA
BRANCH  23  25
ATOM     25  C   UNL     1       6.441   4.774  14.809  0.00  0.00    +0.000 A 
ATOM     26  C   UNL     1       5.671   3.826  14.118  0.00  0.00    +0.000 A 
ATOM     27  C   UNL     1       5.931   3.512  12.780  0.00  0.00    +0.000 A 
ATOM     28  C   UNL     1       6.985   4.129  12.114  0.00  0.00    +0.000 A 
ATOM     29  C   UNL     1       7.772   5.063  12.784  0.00  0.00    +0.000 A 
ATOM     30  C   UNL     1       7.494   5.393  14.117  0.00  0.00    +0.000 A 
ENDBRANCH  23  25
ENDBRANCH   2  18
TORSDOF 4
ENDMDL
MODEL 6
REMARK VINA RESULT:      -9.1      3.039      8.976
REMARK  Name = 
REMARK  4 active torsions:
REMARK  status: ('A' for Active; 'I' for Inactive)
REMARK    1  A    between atoms: C_2  and  C_16
REMARK    2  A    between atoms: N_3  and  C_4
REMARK    3  A    between atoms: C_9  and  C_10
REMARK    4  A    between atoms: N_21  and  C_22
REMARK                            x       y       z     vdW  Elec       q    Type
REMARK                         _______ _______ _______ _____ _____    ______ ____
ROOT
ATOM      1  O   UNL     1       1.852   8.237  18.749  0.00  0.00    +0.000 OA
ATOM      2  C   UNL     1       1.613   8.061  19.939  0.00  0.00    +0.000 C 
ATOM      3  N   UNL     1       1.854   6.918  20.677  0.00  0.00    +0.000 N 
ATOM      4  H   UNL     1       1.470   6.905  21.619  0.00  0.00    +0.000 HD
ENDROOT
BRANCH   3   5
ATOM      5  C   UNL     1       2.411   5.726  20.154  0.00  0.00    +0.000 A 
ATOM      6  C   UNL     1       1.760   4.490  20.239  0.00  0.00    +0.000 A 
ATOM      7  C   UNL     1       2.375   3.322  19.792  0.00  0.00    +0.000 A 
ATOM      8  C   UNL     1       3.649   3.378  19.248  0.00  0.00    +0.000 A 
ATOM      9  F   UNL     1       4.201   2.218  18.863  0.00  0.00    +0.000 F 
ATOM     10  C   UNL     1       4.325   4.596  19.119  0.00  0.00    +0.000 A 
ATOM     11  C   UNL     1       3.680   5.775  19.559  0.00  0.00    +0.000 A 
BRANCH  10  12
ATOM     12  C   UNL     1       5.683   4.639  18.589  0.00  0.00    +0.000 A 
ATOM     13  N   UNL     1       5.973   4.438  17.256  0.00  0.00    +0.000 NA
ATOM     14  C   UNL     1       7.279   4.501  17.198  0.00  0.00    +0.000 A 
ATOM     15  N   UNL     1       7.767   4.736  18.439  0.00  0.00    +0.000 N 
ATOM     16  N   UNL     1       6.779   4.832  19.345  0.00  0.00    +0.000 NA
ATOM     17  H   UNL     1       8.730   4.833  18.739  0.00  0.00    +0.000 HD
ENDBRANCH  10  12
ENDBRANCH   3   5
BRANCH   2  18
ATOM     18  C   UNL     1       0.889   9.189  20.671  0.00  0.00    +0.000 A 
ATOM     19  C   UNL     1       0.216   8.777  21.918  0.00  0.00    +0.000 A 
ATOM     20  C   UNL     1      -0.302   9.741  22.673  0.00  0.00    +0.000 A 
ATOM     21  C   UNL     1      -0.218  11.153  22.262  0.00  0.00    +0.000 A 
ATOM     22  O   UNL     1      -0.700  11.977  23.041  0.00  0.00    +0.000 OA
ATOM     23  N   UNL     1       0.349  11.400  21.002  0.00  0.00    +0.000 N 
ATOM     24  N   UNL     1       0.923  10.401  20.206  0.00  0.00    +0.000 NA
BRANCH  23  25
ATOM     25  C   UNL     1       0.499  12.727  20.481  0.00  0.00    +0.000 A 
ATOM     26  C   UNL     1      -0.522  13.350  19.748  0.00  0.00    +0.000 A 
ATOM     27  C   UNL     1      -0.375  14.653  19.259  0.00  0.00    +0.000 A 
ATOM     28  C   UNL     1       0.809  15.348  19.477  0.00  0.00    +0.000 A 
ATOM     29  C   UNL     1       1.842  14.743  20.190  0.00  0.00    +0.000 A 
ATOM     30  C   UNL     1       1.683  13.449  20.700  0.00  0.00    +0.000 A 
ENDBRANCH  23  25
ENDBRANCH   2  18
TORSDOF 4
ENDMDL
MODEL 7
REMARK VINA RESULT:      -9.1      3.047      8.897
REMARK  Name = 
REMARK  4 active torsions:
REMARK  status: ('A' for Active; 'I' for Inactive)
REMARK    1  A    between atoms: C_2  and  C_16
REMARK    2  A    between atoms: N_3  and  C_4
REMARK    3  A    between atoms: C_9  and  C_10
REMARK    4  A    between atoms: N_21  and  C_22
REMARK                            x       y       z     vdW  Elec       q    Type
REMARK                         _______ _______ _______ _____ _____    ______ ____
ROOT
ATOM      1  O   UNL     1       2.147   7.977  19.021  0.00  0.00    +0.000 OA
ATOM      2  C   UNL     1       1.749   7.811  20.169  0.00  0.00    +0.000 C 
ATOM      3  N   UNL     1       1.831   6.652  20.920  0.00  0.00    +0.000 N 
ATOM      4  H   UNL     1       1.330   6.658  21.805  0.00  0.00    +0.000 HD
ENDROOT
BRANCH   3   5
ATOM      5  C   UNL     1       2.384   5.434  20.459  0.00  0.00    +0.000 A 
ATOM      6  C   UNL     1       1.874   4.186  20.837  0.00  0.00    +0.000 A 
ATOM      7  C   UNL     1       2.495   3.004  20.434  0.00  0.00    +0.000 A 
ATOM      8  C   UNL     1       3.633   3.058  19.644  0.00  0.00    +0.000 A 
ATOM      9  F   UNL     1       4.204   1.890  19.313  0.00  0.00    +0.000 F 
ATOM     10  C   UNL     1       4.160   4.283  19.221  0.00  0.00    +0.000 A 
ATOM     11  C   UNL     1       3.506   5.472  19.620  0.00  0.00    +0.000 A 
BRANCH  10  12
ATOM     12  C   UNL     1       5.383   4.331  18.428  0.00  0.00    +0.000 A 
ATOM     13  N   UNL     1       6.601   4.710  18.951  0.00  0.00    +0.000 NA
ATOM     14  C   UNL     1       7.416   4.674  17.929  0.00  0.00    +0.000 A 
ATOM     15  N   UNL     1       6.730   4.283  16.829  0.00  0.00    +0.000 N 
ATOM     16  N   UNL     1       5.437   4.055  17.112  0.00  0.00    +0.000 NA
ATOM     17  H   UNL     1       7.061   4.161  15.879  0.00  0.00    +0.000 HD
ENDBRANCH  10  12
ENDBRANCH   3   5
BRANCH   2  18
ATOM     18  C   UNL     1       1.002   8.974  20.816  0.00  0.00    +0.000 A 
ATOM     19  C   UNL     1       0.327   8.640  22.085  0.00  0.00    +0.000 A 
ATOM     20  C   UNL     1      -0.211   9.645  22.767  0.00  0.00    +0.000 A 
ATOM     21  C   UNL     1      -0.150  11.027  22.258  0.00  0.00    +0.000 A 
ATOM     22  O   UNL     1      -0.651  11.895  22.974  0.00  0.00    +0.000 OA
ATOM     23  N   UNL     1       0.420  11.193  20.987  0.00  0.00    +0.000 N 
ATOM     24  N   UNL     1       1.017  10.151  20.266  0.00  0.00    +0.000 NA
BRANCH  23  25
ATOM     25  C   UNL     1       0.552  12.482  20.373  0.00  0.00    +0.000 A 
ATOM     26  C   UNL     1       1.642  13.321  20.648  0.00  0.00    +0.000 A 
ATOM     27  C   UNL     1       1.774  14.570  20.032  0.00  0.00    +0.000 A 
ATOM     28  C   UNL     1       0.800  15.011  19.142  0.00  0.00    +0.000 A 
ATOM     29  C   UNL     1      -0.298  14.202  18.865  0.00  0.00    +0.000 A 
ATOM     30  C   UNL     1      -0.415  12.941  19.464  0.00  0.00    +0.000 A 
ENDBRANCH  23  25
ENDBRANCH   2  18
TORSDOF 4
ENDMDL
MODEL 8
REMARK VINA RESULT:      -9.0      3.417      9.169
REMARK  Name = 
REMARK  4 active torsions:
REMARK  status: ('A' for Active; 'I' for Inactive)
REMARK    1  A    between atoms: C_2  and  C_16
REMARK    2  A    between atoms: N_3  and  C_4
REMARK    3  A    between atoms: C_9  and  C_10
REMARK    4  A    between atoms: N_21  and  C_22
REMARK                            x       y       z     vdW  Elec       q    Type
REMARK                         _______ _______ _______ _____ _____    ______ ____
ROOT
ATOM      1  O   UNL     1       2.310   8.481  17.297  0.00  0.00    +0.000 OA
ATOM      2  C   UNL     1       1.842   8.773  18.392  0.00  0.00    +0.000 C 
ATOM      3  N   UNL     1       1.847   7.994  19.535  0.00  0.00    +0.000 N 
ATOM      4  H   UNL     1       1.296   8.343  20.315  0.00  0.00    +0.000 HD
ENDROOT
BRANCH   3   5
ATOM      5  C   UNL     1       2.390   6.690  19.616  0.00  0.00    +0.000 A 
ATOM      6  C   UNL     1       1.798   5.674  20.376  0.00  0.00    +0.000 A 
ATOM      7  C   UNL     1       2.406   4.426  20.504  0.00  0.00    +0.000 A 
ATOM      8  C   UNL     1       3.612   4.178  19.867  0.00  0.00    +0.000 A 
ATOM      9  F   UNL     1       4.163   2.969  20.052  0.00  0.00    +0.000 F 
ATOM     10  C   UNL     1       4.223   5.155  19.075  0.00  0.00    +0.000 A 
ATOM     11  C   UNL     1       3.585   6.409  18.938  0.00  0.00    +0.000 A 
BRANCH  10  12
ATOM     12  C   UNL     1       5.515   4.900  18.447  0.00  0.00    +0.000 A 
ATOM     13  N   UNL     1       5.666   4.730  17.087  0.00  0.00    +0.000 NA
ATOM     14  C   UNL     1       6.940   4.473  16.934  0.00  0.00    +0.000 A 
ATOM     15  N   UNL     1       7.544   4.492  18.146  0.00  0.00    +0.000 N 
ATOM     16  N   UNL     1       6.668   4.762  19.128  0.00  0.00    +0.000 NA
ATOM     17  H   UNL     1       8.517   4.326  18.378  0.00  0.00    +0.000 HD
ENDBRANCH  10  12
ENDBRANCH   3   5
BRANCH   2  18
ATOM     18  C   UNL     1       1.092  10.099  18.491  0.00  0.00    +0.000 A 
ATOM     19  C   UNL     1       1.940  11.259  18.825  0.00  0.00    +0.000 A 
ATOM     20  C   UNL     1       1.370  12.459  18.779  0.00  0.00    +0.000 A 
ATOM     21  C   UNL     1      -0.053  12.610  18.428  0.00  0.00    +0.000 A 
ATOM     22  O   UNL     1      -0.485  13.762  18.381  0.00  0.00    +0.000 OA
ATOM     23  N   UNL     1      -0.774  11.420  18.242  0.00  0.00    +0.000 N 
ATOM     24  N   UNL     1      -0.185  10.150  18.260  0.00  0.00    +0.000 NA
BRANCH  23  25
ATOM     25  C   UNL     1      -2.164  11.419  17.889  0.00  0.00    +0.000 A 
ATOM     26  C   UNL     1      -2.597  11.059  16.604  0.00  0.00    +0.000 A 
ATOM     27  C   UNL     1      -3.956  11.041  16.272  0.00  0.00    +0.000 A 
ATOM     28  C   UNL     1      -4.907  11.406  17.219  0.00  0.00    +0.000 A 
ATOM     29  C   UNL     1      -4.499  11.781  18.496  0.00  0.00    +0.000 A 
ATOM     30  C   UNL     1      -3.140  11.773  18.834  0.00  0.00    +0.000 A 
ENDBRANCH  23  25
ENDBRANCH   2  18
TORSDOF 4
ENDMDL
MODEL 9
REMARK VINA RESULT:      -9.0      1.837      2.465
REMARK  Name = 
REMARK  4 active torsions:
REMARK  status: ('A' for Active; 'I' for Inactive)
REMARK    1  A    between atoms: C_2  and  C_16
REMARK    2  A    between atoms: N_3  and  C_4
REMARK    3  A    between atoms: C_9  and  C_10
REMARK    4  A    between atoms: N_21  and  C_22
REMARK                            x       y       z     vdW  Elec       q    Type
REMARK                         _______ _______ _______ _____ _____    ______ ____
ROOT
ATOM      1  O   UNL     1       2.058   8.868  17.530  0.00  0.00    +0.000 OA
ATOM      2  C   UNL     1       1.859   8.375  18.635  0.00  0.00    +0.000 C 
ATOM      3  N   UNL     1       1.101   8.910  19.661  0.00  0.00    +0.000 N 
ATOM      4  H   UNL     1       1.154   8.426  20.554  0.00  0.00    +0.000 HD
ENDROOT
BRANCH   3   5
ATOM      5  C   UNL     1       0.437  10.158  19.603  0.00  0.00    +0.000 A 
ATOM      6  C   UNL     1       0.844  11.263  20.360  0.00  0.00    +0.000 A 
ATOM      7  C   UNL     1       0.116  12.452  20.344  0.00  0.00    +0.000 A 
ATOM      8  C   UNL     1      -1.028  12.550  19.567  0.00  0.00    +0.000 A 
ATOM      9  F   UNL     1      -1.704  13.707  19.617  0.00  0.00    +0.000 F 
ATOM     10  C   UNL     1      -1.455  11.479  18.775  0.00  0.00    +0.000 A 
ATOM     11  C   UNL     1      -0.694  10.287  18.785  0.00  0.00    +0.000 A 
BRANCH  10  12
ATOM     12  C   UNL     1      -2.685  11.576  17.997  0.00  0.00    +0.000 A 
ATOM     13  N   UNL     1      -3.924  11.754  18.573  0.00  0.00    +0.000 NA
ATOM     14  C   UNL     1      -4.755  11.736  17.562  0.00  0.00    +0.000 A 
ATOM     15  N   UNL     1      -4.056  11.562  16.417  0.00  0.00    +0.000 N 
ATOM     16  N   UNL     1      -2.737  11.459  16.657  0.00  0.00    +0.000 NA
ATOM     17  H   UNL     1      -4.395  11.496  15.464  0.00  0.00    +0.000 HD
ENDBRANCH  10  12
ENDBRANCH   3   5
BRANCH   2  18
ATOM     18  C   UNL     1       2.592   7.075  18.954  0.00  0.00    +0.000 A 
ATOM     19  C   UNL     1       2.061   6.342  20.120  0.00  0.00    +0.000 A 
ATOM     20  C   UNL     1       2.562   5.133  20.354  0.00  0.00    +0.000 A 
ATOM     21  C   UNL     1       3.616   4.569  19.492  0.00  0.00    +0.000 A 
ATOM     22  O   UNL     1       3.996   3.431  19.770  0.00  0.00    +0.000 OA
ATOM     23  N   UNL     1       4.111   5.413  18.486  0.00  0.00    +0.000 N 
ATOM     24  N   UNL     1       3.578   6.677  18.208  0.00  0.00    +0.000 NA
BRANCH  23  25
ATOM     25  C   UNL     1       5.131   4.990  17.572  0.00  0.00    +0.000 A 
ATOM     26  C   UNL     1       6.493   5.056  17.906  0.00  0.00    +0.000 A 
ATOM     27  C   UNL     1       7.482   4.624  17.016  0.00  0.00    +0.000 A 
ATOM     28  C   UNL     1       7.125   4.138  15.762  0.00  0.00    +0.000 A 
ATOM     29  C   UNL     1       5.781   4.077  15.404  0.00  0.00    +0.000 A 
ATOM     30  C   UNL     1       4.791   4.486  16.306  0.00  0.00    +0.000 A 
ENDBRANCH  23  25
ENDBRANCH   2  18
TORSDOF 4
ENDMDL
