MODEL 1
REMARK VINA RESULT:      -7.2      0.000      0.000
REMARK  Name = 
REMARK  4 active torsions:
REMARK  status: ('A' for Active; 'I' for Inactive)
REMARK    1  A    between atoms: C_1  and  C_2
REMARK    2  A    between atoms: N_4  and  C_5
REMARK    3  A    between atoms: C_11  and  C_12
REMARK    4  A    between atoms: C_13  and  C_14
REMARK                            x       y       z     vdW  Elec       q    Type
REMARK                         _______ _______ _______ _____ _____    ______ ____
ROOT
ATOM      1  C   UNL     1       3.839   5.317  17.266  0.00  0.00    +0.000 C 
ATOM      2  C   UNL     1       4.562   3.943  17.160  0.00  0.00    +0.000 C 
ATOM      3  O   UNL     1       5.030   3.680  15.817  0.00  0.00    +0.000 OA
ATOM      4  C   UNL     1       5.913   4.713  15.357  0.00  0.00    +0.000 C 
ATOM      5  C   UNL     1       5.203   6.078  15.374  0.00  0.00    +0.000 C 
ATOM      6  N   UNL     1       4.768   6.390  16.771  0.00  0.00    +0.000 N 
ATOM      7  C   UNL     1       5.792   6.906  17.543  0.00  0.00    +0.000 A 
ATOM      8  N   UNL     1       6.471   7.926  17.045  0.00  0.00    +0.000 NA
ATOM      9  C   UNL     1       7.730   8.211  17.526  0.00  0.00    +0.000 A 
ATOM     10  C   UNL     1       8.437   7.320  18.244  0.00  0.00    +0.000 A 
ATOM     11  N   UNL     1       7.702   6.392  18.960  0.00  0.00    +0.000 N 
ATOM     12  N   UNL     1       8.057   5.448  19.836  0.00  0.00    +0.000 NA
ATOM     13  N   UNL     1       6.937   4.897  20.263  0.00  0.00    +0.000 NA
ATOM     14  N   UNL     1       5.862   5.362  19.551  0.00  0.00    +0.000 NA
ATOM     15  C   UNL     1       6.355   6.277  18.747  0.00  0.00    +0.000 A 
ENDROOT
BRANCH   1  22
ATOM     16  C   UNL     1       2.841   3.343  19.933  0.00  0.00    +0.000 C 
ATOM     17  C   UNL     1       2.611   4.774  19.604  0.00  0.00    +0.000 A 
ATOM     18  N   UNL     1       1.817   5.426  20.452  0.00  0.00    +0.000 NA
ATOM     19  N   UNL     1       1.835   6.717  20.070  0.00  0.00    +0.000 N 
ATOM     20  C   UNL     1       2.405   6.836  18.810  0.00  0.00    +0.000 A 
ATOM     21  C   UNL     1       2.241   8.017  17.914  0.00  0.00    +0.000 C 
ATOM     22  C   UNL     1       3.035   5.614  18.529  0.00  0.00    +0.000 A 
BRANCH  19  23
ATOM     23  C   UNL     1       1.288   7.686  20.959  0.00  0.00    +0.000 A 
ATOM     24  C   UNL     1       2.095   8.516  21.743  0.00  0.00    +0.000 A 
ATOM     25  C   UNL     1       1.503   9.434  22.625  0.00  0.00    +0.000 A 
ATOM     26  C   UNL     1       0.113   9.516  22.729  0.00  0.00    +0.000 A 
ATOM     27  C   UNL     1      -0.693   8.678  21.964  0.00  0.00    +0.000 A 
ATOM     28  C   UNL     1      -0.110   7.761  21.091  0.00  0.00    +0.000 A 
ENDBRANCH  19  23
ENDBRANCH   1  22
TORSDOF 2
ENDMDL
MODEL 2
REMARK VINA RESULT:      -7.1      1.881      2.784
REMARK  Name = 
REMARK  4 active torsions:
REMARK  status: ('A' for Active; 'I' for Inactive)
REMARK    1  A    between atoms: C_1  and  C_2
REMARK    2  A    between atoms: N_4  and  C_5
REMARK    3  A    between atoms: C_11  and  C_12
REMARK    4  A    between atoms: C_13  and  C_14
REMARK                            x       y       z     vdW  Elec       q    Type
REMARK                         _______ _______ _______ _____ _____    ______ ____
ROOT
ATOM      1  C   UNL     1       2.673   4.407  18.411  0.00  0.00    +0.000 C 
ATOM      2  C   UNL     1       3.160   3.439  19.528  0.00  0.00    +0.000 C 
ATOM      3  O   UNL     1       3.044   2.053  19.129  0.00  0.00    +0.000 OA
ATOM      4  C   UNL     1       3.777   1.789  17.925  0.00  0.00    +0.000 C 
ATOM      5  C   UNL     1       3.266   2.677  16.776  0.00  0.00    +0.000 C 
ATOM      6  N   UNL     1       3.439   4.115  17.151  0.00  0.00    +0.000 N 
ATOM      7  C   UNL     1       4.727   4.569  16.937  0.00  0.00    +0.000 A 
ATOM      8  N   UNL     1       5.257   4.349  15.746  0.00  0.00    +0.000 NA
ATOM      9  C   UNL     1       6.625   4.373  15.590  0.00  0.00    +0.000 A 
ATOM     10  C   UNL     1       7.463   4.291  16.638  0.00  0.00    +0.000 A 
ATOM     11  N   UNL     1       6.976   4.750  17.849  0.00  0.00    +0.000 N 
ATOM     12  N   UNL     1       7.547   4.909  19.046  0.00  0.00    +0.000 NA
ATOM     13  N   UNL     1       6.632   5.449  19.826  0.00  0.00    +0.000 NA
ATOM     14  N   UNL     1       5.416   5.493  19.194  0.00  0.00    +0.000 NA
ATOM     15  C   UNL     1       5.647   5.051  17.978  0.00  0.00    +0.000 A 
ENDROOT
BRANCH   1  22
ATOM     16  C   UNL     1       3.513   7.371  16.823  0.00  0.00    +0.000 C 
ATOM     17  C   UNL     1       2.835   7.083  18.114  0.00  0.00    +0.000 A 
ATOM     18  N   UNL     1       2.543   8.155  18.848  0.00  0.00    +0.000 NA
ATOM     19  N   UNL     1       1.827   7.711  19.898  0.00  0.00    +0.000 N 
ATOM     20  C   UNL     1       1.912   6.329  19.986  0.00  0.00    +0.000 A 
ATOM     21  C   UNL     1       1.593   5.535  21.207  0.00  0.00    +0.000 C 
ATOM     22  C   UNL     1       2.453   5.874  18.773  0.00  0.00    +0.000 A 
BRANCH  19  23
ATOM     23  C   UNL     1       1.152   8.672  20.705  0.00  0.00    +0.000 A 
ATOM     24  C   UNL     1       1.229   8.658  22.100  0.00  0.00    +0.000 A 
ATOM     25  C   UNL     1       0.519   9.612  22.848  0.00  0.00    +0.000 A 
ATOM     26  C   UNL     1      -0.268  10.569  22.204  0.00  0.00    +0.000 A 
ATOM     27  C   UNL     1      -0.361  10.574  20.815  0.00  0.00    +0.000 A 
ATOM     28  C   UNL     1       0.337   9.625  20.069  0.00  0.00    +0.000 A 
ENDBRANCH  19  23
ENDBRANCH   1  22
TORSDOF 2
ENDMDL
MODEL 3
REMARK VINA RESULT:      -6.6      7.640     12.178
REMARK  Name = 
REMARK  4 active torsions:
REMARK  status: ('A' for Active; 'I' for Inactive)
REMARK    1  A    between atoms: C_1  and  C_2
REMARK    2  A    between atoms: N_4  and  C_5
REMARK    3  A    between atoms: C_11  and  C_12
REMARK    4  A    between atoms: C_13  and  C_14
REMARK                            x       y       z     vdW  Elec       q    Type
REMARK                         _______ _______ _______ _____ _____    ______ ____
ROOT
ATOM      1  C   UNL     1      -3.749  14.672  21.525  0.00  0.00    +0.000 C 
ATOM      2  C   UNL     1      -4.427  15.555  22.614  0.00  0.00    +0.000 C 
ATOM      3  O   UNL     1      -5.262  16.583  22.032  0.00  0.00    +0.000 OA
ATOM      4  C   UNL     1      -6.273  16.021  21.185  0.00  0.00    +0.000 C 
ATOM      5  C   UNL     1      -5.634  15.204  20.048  0.00  0.00    +0.000 C 
ATOM      6  N   UNL     1      -4.816  14.098  20.637  0.00  0.00    +0.000 N 
ATOM      7  C   UNL     1      -5.582  13.006  20.999  0.00  0.00    +0.000 A 
ATOM      8  N   UNL     1      -6.410  12.518  20.090  0.00  0.00    +0.000 NA
ATOM      9  C   UNL     1      -7.479  11.743  20.483  0.00  0.00    +0.000 A 
ATOM     10  C   UNL     1      -7.913  11.721  21.755  0.00  0.00    +0.000 A 
ATOM     11  N   UNL     1      -6.971  12.004  22.728  0.00  0.00    +0.000 N 
ATOM     12  N   UNL     1      -7.021  11.976  24.063  0.00  0.00    +0.000 NA
ATOM     13  N   UNL     1      -5.809  12.274  24.486  0.00  0.00    +0.000 NA
ATOM     14  N   UNL     1      -5.007  12.657  23.442  0.00  0.00    +0.000 NA
ATOM     15  C   UNL     1      -5.744  12.491  22.367  0.00  0.00    +0.000 A 
ENDROOT
BRANCH   1  22
ATOM     16  C   UNL     1      -1.761  14.541  24.361  0.00  0.00    +0.000 C 
ATOM     17  C   UNL     1      -1.791  13.724  23.119  0.00  0.00    +0.000 A 
ATOM     18  N   UNL     1      -0.837  12.799  23.032  0.00  0.00    +0.000 NA
ATOM     19  N   UNL     1      -1.104  12.086  21.921  0.00  0.00    +0.000 N 
ATOM     20  C   UNL     1      -2.055  12.739  21.149  0.00  0.00    +0.000 A 
ATOM     21  C   UNL     1      -2.304  12.469  19.704  0.00  0.00    +0.000 C 
ATOM     22  C   UNL     1      -2.618  13.741  21.954  0.00  0.00    +0.000 A 
BRANCH  19  23
ATOM     23  C   UNL     1      -0.401  10.862  21.725  0.00  0.00    +0.000 A 
ATOM     24  C   UNL     1       0.405  10.638  20.605  0.00  0.00    +0.000 A 
ATOM     25  C   UNL     1       1.051   9.401  20.448  0.00  0.00    +0.000 A 
ATOM     26  C   UNL     1       0.886   8.393  21.400  0.00  0.00    +0.000 A 
ATOM     27  C   UNL     1       0.069   8.607  22.506  0.00  0.00    +0.000 A 
ATOM     28  C   UNL     1      -0.579   9.831  22.664  0.00  0.00    +0.000 A 
ENDBRANCH  19  23
ENDBRANCH   1  22
TORSDOF 2
ENDMDL
MODEL 4
REMARK VINA RESULT:      -6.6      6.157      8.952
REMARK  Name = 
REMARK  4 active torsions:
REMARK  status: ('A' for Active; 'I' for Inactive)
REMARK    1  A    between atoms: C_1  and  C_2
REMARK    2  A    between atoms: N_4  and  C_5
REMARK    3  A    between atoms: C_11  and  C_12
REMARK    4  A    between atoms: C_13  and  C_14
REMARK                            x       y       z     vdW  Elec       q    Type
REMARK                         _______ _______ _______ _____ _____    ______ ____
ROOT
ATOM      1  C   UNL     1      -0.405  12.518  18.680  0.00  0.00    +0.000 C 
ATOM      2  C   UNL     1      -1.864  12.481  19.221  0.00  0.00    +0.000 C 
ATOM      3  O   UNL     1      -2.691  11.552  18.482  0.00  0.00    +0.000 OA
ATOM      4  C   UNL     1      -2.145  10.226  18.509  0.00  0.00    +0.000 C 
ATOM      5  C   UNL     1      -0.728  10.212  17.908  0.00  0.00    +0.000 C 
ATOM      6  N   UNL     1       0.153  11.123  18.703  0.00  0.00    +0.000 N 
ATOM      7  C   UNL     1       0.630  10.527  19.856  0.00  0.00    +0.000 A 
ATOM      8  N   UNL     1       1.203   9.342  19.732  0.00  0.00    +0.000 NA
ATOM      9  C   UNL     1       1.310   8.515  20.830  0.00  0.00    +0.000 A 
ATOM     10  C   UNL     1       0.580   8.711  21.942  0.00  0.00    +0.000 A 
ATOM     11  N   UNL     1       0.180  10.011  22.191  0.00  0.00    +0.000 N 
ATOM     12  N   UNL     1      -0.453  10.575  23.223  0.00  0.00    +0.000 NA
ATOM     13  N   UNL     1      -0.516  11.866  22.961  0.00  0.00    +0.000 NA
ATOM     14  N   UNL     1      -0.075  12.128  21.689  0.00  0.00    +0.000 NA
ATOM     15  C   UNL     1       0.343  10.971  21.228  0.00  0.00    +0.000 A 
ENDROOT
BRANCH   1  22
ATOM     16  C   UNL     1      -1.017  15.509  20.321  0.00  0.00    +0.000 C 
ATOM     17  C   UNL     1       0.230  14.887  19.801  0.00  0.00    +0.000 A 
ATOM     18  N   UNL     1       1.324  15.636  19.922  0.00  0.00    +0.000 NA
ATOM     19  N   UNL     1       2.355  14.865  19.524  0.00  0.00    +0.000 N 
ATOM     20  C   UNL     1       1.884  13.731  18.879  0.00  0.00    +0.000 A 
ATOM     21  C   UNL     1       2.700  12.868  17.978  0.00  0.00    +0.000 C 
ATOM     22  C   UNL     1       0.509  13.646  19.149  0.00  0.00    +0.000 A 
BRANCH  19  23
ATOM     23  C   UNL     1       3.676  15.319  19.803  0.00  0.00    +0.000 A 
ATOM     24  C   UNL     1       4.425  14.818  20.872  0.00  0.00    +0.000 A 
ATOM     25  C   UNL     1       5.712  15.323  21.119  0.00  0.00    +0.000 A 
ATOM     26  C   UNL     1       6.244  16.326  20.307  0.00  0.00    +0.000 A 
ATOM     27  C   UNL     1       5.494  16.839  19.253  0.00  0.00    +0.000 A 
ATOM     28  C   UNL     1       4.213  16.346  19.007  0.00  0.00    +0.000 A 
ENDBRANCH  19  23
ENDBRANCH   1  22
TORSDOF 2
ENDMDL
MODEL 5
REMARK VINA RESULT:      -6.3      7.133     11.567
REMARK  Name = 
REMARK  4 active torsions:
REMARK  status: ('A' for Active; 'I' for Inactive)
REMARK    1  A    between atoms: C_1  and  C_2
REMARK    2  A    between atoms: N_4  and  C_5
REMARK    3  A    between atoms: C_11  and  C_12
REMARK    4  A    between atoms: C_13  and  C_14
REMARK                            x       y       z     vdW  Elec       q    Type
REMARK                         _______ _______ _______ _____ _____    ______ ____
ROOT
ATOM      1  C   UNL     1      -2.694  14.339  20.774  0.00  0.00    +0.000 C 
ATOM      2  C   UNL     1      -2.025  14.820  22.094  0.00  0.00    +0.000 C 
ATOM      3  O   UNL     1      -2.266  16.226  22.340  0.00  0.00    +0.000 OA
ATOM      4  C   UNL     1      -3.670  16.517  22.390  0.00  0.00    +0.000 C 
ATOM      5  C   UNL     1      -4.351  16.124  21.068  0.00  0.00    +0.000 C 
ATOM      6  N   UNL     1      -4.161  14.659  20.832  0.00  0.00    +0.000 N 
ATOM      7  C   UNL     1      -5.067  13.887  21.535  0.00  0.00    +0.000 A 
ATOM      8  N   UNL     1      -6.348  14.199  21.419  0.00  0.00    +0.000 NA
ATOM      9  C   UNL     1      -7.243  13.783  22.380  0.00  0.00    +0.000 A 
ATOM     10  C   UNL     1      -6.842  13.355  23.590  0.00  0.00    +0.000 A 
ATOM     11  N   UNL     1      -5.574  12.805  23.655  0.00  0.00    +0.000 N 
ATOM     12  N   UNL     1      -4.905  12.203  24.642  0.00  0.00    +0.000 NA
ATOM     13  N   UNL     1      -3.755  11.813  24.128  0.00  0.00    +0.000 NA
ATOM     14  N   UNL     1      -3.599  12.299  22.855  0.00  0.00    +0.000 NA
ATOM     15  C   UNL     1      -4.728  12.914  22.585  0.00  0.00    +0.000 A 
ENDROOT
BRANCH   1  22
ATOM     16  C   UNL     1      -4.290  12.106  18.657  0.00  0.00    +0.000 C 
ATOM     17  C   UNL     1      -2.985  12.056  19.368  0.00  0.00    +0.000 A 
ATOM     18  N   UNL     1      -2.313  10.914  19.230  0.00  0.00    +0.000 NA
ATOM     19  N   UNL     1      -1.120  11.104  19.826  0.00  0.00    +0.000 N 
ATOM     20  C   UNL     1      -1.146  12.261  20.591  0.00  0.00    +0.000 A 
ATOM     21  C   UNL     1      -0.176  12.579  21.678  0.00  0.00    +0.000 C 
ATOM     22  C   UNL     1      -2.296  12.973  20.220  0.00  0.00    +0.000 A 
BRANCH  19  23
ATOM     23  C   UNL     1      -0.096  10.140  19.596  0.00  0.00    +0.000 A 
ATOM     24  C   UNL     1       0.389   9.314  20.614  0.00  0.00    +0.000 A 
ATOM     25  C   UNL     1       1.421   8.402  20.339  0.00  0.00    +0.000 A 
ATOM     26  C   UNL     1       1.969   8.322  19.058  0.00  0.00    +0.000 A 
ATOM     27  C   UNL     1       1.501   9.157  18.047  0.00  0.00    +0.000 A 
ATOM     28  C   UNL     1       0.481  10.068  18.316  0.00  0.00    +0.000 A 
ENDBRANCH  19  23
ENDBRANCH   1  22
TORSDOF 2
ENDMDL
MODEL 6
REMARK VINA RESULT:      -6.2      7.652     10.627
REMARK  Name = 
REMARK  4 active torsions:
REMARK  status: ('A' for Active; 'I' for Inactive)
REMARK    1  A    between atoms: C_1  and  C_2
REMARK    2  A    between atoms: N_4  and  C_5
REMARK    3  A    between atoms: C_11  and  C_12
REMARK    4  A    between atoms: C_13  and  C_14
REMARK                            x       y       z     vdW  Elec       q    Type
REMARK                         _______ _______ _______ _____ _____    ______ ____
ROOT
ATOM      1  C   UNL     1       4.785  16.417  18.920  0.00  0.00    +0.000 C 
ATOM      2  C   UNL     1       3.785  17.329  19.687  0.00  0.00    +0.000 C 
ATOM      3  O   UNL     1       2.821  17.941  18.798  0.00  0.00    +0.000 OA
ATOM      4  C   UNL     1       2.087  16.955  18.059  0.00  0.00    +0.000 C 
ATOM      5  C   UNL     1       3.043  16.082  17.226  0.00  0.00    +0.000 C 
ATOM      6  N   UNL     1       4.006  15.395  18.141  0.00  0.00    +0.000 N 
ATOM      7  C   UNL     1       3.469  14.262  18.723  0.00  0.00    +0.000 A 
ATOM      8  N   UNL     1       2.905  13.377  17.918  0.00  0.00    +0.000 NA
ATOM      9  C   UNL     1       1.998  12.471  18.424  0.00  0.00    +0.000 A 
ATOM     10  C   UNL     1       1.415  12.642  19.624  0.00  0.00    +0.000 A 
ATOM     11  N   UNL     1       2.129  13.379  20.552  0.00  0.00    +0.000 N 
ATOM     12  N   UNL     1       1.910  13.657  21.840  0.00  0.00    +0.000 NA
ATOM     13  N   UNL     1       2.954  14.347  22.254  0.00  0.00    +0.000 NA
ATOM     14  N   UNL     1       3.779  14.663  21.205  0.00  0.00    +0.000 NA
ATOM     15  C   UNL     1       3.249  14.063  20.163  0.00  0.00    +0.000 A 
ENDROOT
BRANCH   1  22
ATOM     16  C   UNL     1       6.166  17.244  21.989  0.00  0.00    +0.000 C 
ATOM     17  C   UNL     1       6.598  16.313  20.913  0.00  0.00    +0.000 A 
ATOM     18  N   UNL     1       7.773  15.720  21.121  0.00  0.00    +0.000 NA
ATOM     19  N   UNL     1       7.929  14.831  20.121  0.00  0.00    +0.000 N 
ATOM     20  C   UNL     1       6.994  15.063  19.123  0.00  0.00    +0.000 A 
ATOM     21  C   UNL     1       7.104  14.558  17.725  0.00  0.00    +0.000 C 
ATOM     22  C   UNL     1       6.032  15.935  19.657  0.00  0.00    +0.000 A 
BRANCH  19  23
ATOM     23  C   UNL     1       8.971  13.867  20.240  0.00  0.00    +0.000 A 
ATOM     24  C   UNL     1       8.798  12.666  20.935  0.00  0.00    +0.000 A 
ATOM     25  C   UNL     1       9.869  11.764  21.046  0.00  0.00    +0.000 A 
ATOM     26  C   UNL     1      11.106  12.064  20.473  0.00  0.00    +0.000 A 
ATOM     27  C   UNL     1      11.286  13.267  19.796  0.00  0.00    +0.000 A 
ATOM     28  C   UNL     1      10.228  14.168  19.687  0.00  0.00    +0.000 A 
ENDBRANCH  19  23
ENDBRANCH   1  22
TORSDOF 2
ENDMDL
MODEL 7
REMARK VINA RESULT:      -6.2      2.259      4.023
REMARK  Name = 
REMARK  4 active torsions:
REMARK  status: ('A' for Active; 'I' for Inactive)
REMARK    1  A    between atoms: C_1  and  C_2
REMARK    2  A    between atoms: N_4  and  C_5
REMARK    3  A    between atoms: C_11  and  C_12
REMARK    4  A    between atoms: C_13  and  C_14
REMARK                            x       y       z     vdW  Elec       q    Type
REMARK                         _______ _______ _______ _____ _____    ______ ____
ROOT
ATOM      1  C   UNL     1       4.228   6.518  18.583  0.00  0.00    +0.000 C 
ATOM      2  C   UNL     1       4.141   6.428  17.032  0.00  0.00    +0.000 C 
ATOM      3  O   UNL     1       5.439   6.205  16.430  0.00  0.00    +0.000 OA
ATOM      4  C   UNL     1       6.055   5.014  16.937  0.00  0.00    +0.000 C 
ATOM      5  C   UNL     1       6.228   5.102  18.464  0.00  0.00    +0.000 C 
ATOM      6  N   UNL     1       4.885   5.270  19.103  0.00  0.00    +0.000 N 
ATOM      7  C   UNL     1       4.210   4.072  19.242  0.00  0.00    +0.000 A 
ATOM      8  N   UNL     1       4.860   3.074  19.818  0.00  0.00    +0.000 NA
ATOM      9  C   UNL     1       4.442   1.777  19.614  0.00  0.00    +0.000 A 
ATOM     10  C   UNL     1       3.611   1.446  18.610  0.00  0.00    +0.000 A 
ATOM     11  N   UNL     1       2.758   2.441  18.168  0.00  0.00    +0.000 N 
ATOM     12  N   UNL     1       1.759   2.441  17.282  0.00  0.00    +0.000 NA
ATOM     13  N   UNL     1       1.242   3.653  17.303  0.00  0.00    +0.000 NA
ATOM     14  N   UNL     1       2.000   4.494  18.077  0.00  0.00    +0.000 NA
ATOM     15  C   UNL     1       2.935   3.730  18.595  0.00  0.00    +0.000 A 
ENDROOT
BRANCH   1  22
ATOM     16  C   UNL     1       2.427   5.270  21.268  0.00  0.00    +0.000 C 
ATOM     17  C   UNL     1       2.267   6.490  20.434  0.00  0.00    +0.000 A 
ATOM     18  N   UNL     1       1.193   7.225  20.714  0.00  0.00    +0.000 NA
ATOM     19  N   UNL     1       1.288   8.336  19.958  0.00  0.00    +0.000 N 
ATOM     20  C   UNL     1       2.267   8.173  18.989  0.00  0.00    +0.000 A 
ATOM     21  C   UNL     1       2.384   9.002  17.755  0.00  0.00    +0.000 C 
ATOM     22  C   UNL     1       3.011   7.038  19.344  0.00  0.00    +0.000 A 
BRANCH  19  23
ATOM     23  C   UNL     1       0.415   9.423  20.252  0.00  0.00    +0.000 A 
ATOM     24  C   UNL     1      -0.342  10.057  19.262  0.00  0.00    +0.000 A 
ATOM     25  C   UNL     1      -1.164  11.144  19.602  0.00  0.00    +0.000 A 
ATOM     26  C   UNL     1      -1.222  11.598  20.921  0.00  0.00    +0.000 A 
ATOM     27  C   UNL     1      -0.455  10.981  21.905  0.00  0.00    +0.000 A 
ATOM     28  C   UNL     1       0.367   9.906  21.572  0.00  0.00    +0.000 A 
ENDBRANCH  19  23
ENDBRANCH   1  22
TORSDOF 2
ENDMDL
MODEL 8
REMARK VINA RESULT:      -6.1      5.729      8.599
REMARK  Name = 
REMARK  4 active torsions:
REMARK  status: ('A' for Active; 'I' for Inactive)
REMARK    1  A    between atoms: C_1  and  C_2
REMARK    2  A    between atoms: N_4  and  C_5
REMARK    3  A    between atoms: C_11  and  C_12
REMARK    4  A    between atoms: C_13  and  C_14
REMARK                            x       y       z     vdW  Elec       q    Type
REMARK                         _______ _______ _______ _____ _____    ______ ____
ROOT
ATOM      1  C   UNL     1      -0.389  12.443  19.226  0.00  0.00    +0.000 C 
ATOM      2  C   UNL     1      -1.814  12.177  19.794  0.00  0.00    +0.000 C 
ATOM      3  O   UNL     1      -2.635  11.431  18.864  0.00  0.00    +0.000 OA
ATOM      4  C   UNL     1      -2.027  10.181  18.512  0.00  0.00    +0.000 C 
ATOM      5  C   UNL     1      -0.645  10.412  17.875  0.00  0.00    +0.000 C 
ATOM      6  N   UNL     1       0.234  11.128  18.851  0.00  0.00    +0.000 N 
ATOM      7  C   UNL     1       0.799  10.276  19.781  0.00  0.00    +0.000 A 
ATOM      8  N   UNL     1       1.419   9.202  19.320  0.00  0.00    +0.000 NA
ATOM      9  C   UNL     1       1.623   8.121  20.149  0.00  0.00    +0.000 A 
ATOM     10  C   UNL     1       0.945   7.968  21.301  0.00  0.00    +0.000 A 
ATOM     11  N   UNL     1       0.499   9.130  21.906  0.00  0.00    +0.000 N 
ATOM     12  N   UNL     1      -0.104   9.359  23.076  0.00  0.00    +0.000 NA
ATOM     13  N   UNL     1      -0.241  10.667  23.174  0.00  0.00    +0.000 NA
ATOM     14  N   UNL     1       0.119  11.284  22.004  0.00  0.00    +0.000 NA
ATOM     15  C   UNL     1       0.566  10.319  21.232  0.00  0.00    +0.000 A 
ENDROOT
BRANCH   1  22
ATOM     16  C   UNL     1      -1.020  14.746  21.738  0.00  0.00    +0.000 C 
ATOM     17  C   UNL     1       0.205  14.419  20.962  0.00  0.00    +0.000 A 
ATOM     18  N   UNL     1       1.258  15.192  21.222  0.00  0.00    +0.000 NA
ATOM     19  N   UNL     1       2.291  14.668  20.534  0.00  0.00    +0.000 N 
ATOM     20  C   UNL     1       1.829  13.739  19.612  0.00  0.00    +0.000 A 
ATOM     21  C   UNL     1       2.605  13.259  18.433  0.00  0.00    +0.000 C 
ATOM     22  C   UNL     1       0.496  13.457  19.946  0.00  0.00    +0.000 A 
BRANCH  19  23
ATOM     23  C   UNL     1       3.603  15.133  20.837  0.00  0.00    +0.000 A 
ATOM     24  C   UNL     1       4.139  16.282  20.249  0.00  0.00    +0.000 A 
ATOM     25  C   UNL     1       5.450  16.678  20.561  0.00  0.00    +0.000 A 
ATOM     26  C   UNL     1       6.221  15.926  21.449  0.00  0.00    +0.000 A 
ATOM     27  C   UNL     1       5.697  14.771  22.022  0.00  0.00    +0.000 A 
ATOM     28  C   UNL     1       4.398  14.370  21.711  0.00  0.00    +0.000 A 
ENDBRANCH  19  23
ENDBRANCH   1  22
TORSDOF 2
ENDMDL
MODEL 9
REMARK VINA RESULT:      -6.1      4.605      7.911
REMARK  Name = 
REMARK  4 active torsions:
REMARK  status: ('A' for Active; 'I' for Inactive)
REMARK    1  A    between atoms: C_1  and  C_2
REMARK    2  A    between atoms: N_4  and  C_5
REMARK    3  A    between atoms: C_11  and  C_12
REMARK    4  A    between atoms: C_13  and  C_14
REMARK                            x       y       z     vdW  Elec       q    Type
REMARK                         _______ _______ _______ _____ _____    ______ ____
ROOT
ATOM      1  C   UNL     1      -0.853  10.747  20.147  0.00  0.00    +0.000 C 
ATOM      2  C   UNL     1      -1.171  11.272  18.716  0.00  0.00    +0.000 C 
ATOM      3  O   UNL     1      -2.385  12.060  18.688  0.00  0.00    +0.000 OA
ATOM      4  C   UNL     1      -2.311  13.171  19.592  0.00  0.00    +0.000 C 
ATOM      5  C   UNL     1      -2.073  12.682  21.032  0.00  0.00    +0.000 C 
ATOM      6  N   UNL     1      -0.788  11.917  21.087  0.00  0.00    +0.000 N 
ATOM      7  C   UNL     1       0.317  12.742  21.179  0.00  0.00    +0.000 A 
ATOM      8  N   UNL     1       0.304  13.669  22.123  0.00  0.00    +0.000 NA
ATOM      9  C   UNL     1       1.128  14.767  22.015  0.00  0.00    +0.000 A 
ATOM     10  C   UNL     1       1.708  15.111  20.851  0.00  0.00    +0.000 A 
ATOM     11  N   UNL     1       1.937  14.083  19.955  0.00  0.00    +0.000 N 
ATOM     12  N   UNL     1       2.566  14.040  18.777  0.00  0.00    +0.000 NA
ATOM     13  N   UNL     1       2.542  12.781  18.388  0.00  0.00    +0.000 NA
ATOM     14  N   UNL     1       1.760  12.026  19.223  0.00  0.00    +0.000 NA
ATOM     15  C   UNL     1       1.389  12.849  20.179  0.00  0.00    +0.000 A 
ENDROOT
BRANCH   1  22
ATOM     16  C   UNL     1       0.719   9.365  22.909  0.00  0.00    +0.000 C 
ATOM     17  C   UNL     1       0.871   9.133  21.448  0.00  0.00    +0.000 A 
ATOM     18  N   UNL     1       1.837   8.280  21.112  0.00  0.00    +0.000 NA
ATOM     19  N   UNL     1       1.736   8.100  19.781  0.00  0.00    +0.000 N 
ATOM     20  C   UNL     1       0.896   9.057  19.231  0.00  0.00    +0.000 A 
ATOM     21  C   UNL     1       0.855   9.418  17.785  0.00  0.00    +0.000 C 
ATOM     22  C   UNL     1       0.216   9.668  20.296  0.00  0.00    +0.000 A 
BRANCH  19  23
ATOM     23  C   UNL     1       2.471   7.032  19.192  0.00  0.00    +0.000 A 
ATOM     24  C   UNL     1       3.284   7.218  18.069  0.00  0.00    +0.000 A 
ATOM     25  C   UNL     1       3.963   6.123  17.511  0.00  0.00    +0.000 A 
ATOM     26  C   UNL     1       3.824   4.850  18.066  0.00  0.00    +0.000 A 
ATOM     27  C   UNL     1       3.002   4.657  19.171  0.00  0.00    +0.000 A 
ATOM     28  C   UNL     1       2.320   5.740  19.727  0.00  0.00    +0.000 A 
ENDBRANCH  19  23
ENDBRANCH   1  22
TORSDOF 2
ENDMDL
