MODEL 1
REMARK VINA RESULT:      -8.8      0.000      0.000
REMARK  Name = 
REMARK  5 active torsions:
REMARK  status: ('A' for Active; 'I' for Inactive)
REMARK    1  A    between atoms: C_2  and  C_3
REMARK    2  A    between atoms: C_7  and  C_8
REMARK    3  A    between atoms: C_15  and  C_16
REMARK    4  A    between atoms: N_23  and  C_24
REMARK    5  A    between atoms: C_24  and  C_25
REMARK                            x       y       z     vdW  Elec       q    Type
REMARK                         _______ _______ _______ _____ _____    ______ ____
ROOT
ATOM      1  C   UNL     1       0.996   9.381  19.816  0.00  0.00    +0.000 C 
ATOM      2  O   UNL     1       1.749   9.363  20.785  0.00  0.00    +0.000 OA
ATOM      3  N   UNL     1       1.141   8.584  18.693  0.00  0.00    +0.000 N 
ATOM      4  C   UNL     1       2.205   7.710  18.600  0.00  0.00    +0.000 A 
ATOM      5  N   UNL     1       3.016   7.711  17.565  0.00  0.00    +0.000 NA
ATOM      6  C   UNL     1       3.944   6.734  17.816  0.00  0.00    +0.000 A 
ATOM      7  C   UNL     1       5.098   6.392  17.090  0.00  0.00    +0.000 A 
ATOM      8  C   UNL     1       5.886   5.306  17.515  0.00  0.00    +0.000 A 
ATOM      9  C   UNL     1       5.479   4.553  18.629  0.00  0.00    +0.000 A 
ATOM     10  C   UNL     1       4.339   4.889  19.372  0.00  0.00    +0.000 A 
ATOM     11  C   UNL     1       3.615   6.017  18.960  0.00  0.00    +0.000 A 
ATOM     12  N   UNL     1       2.509   6.679  19.469  0.00  0.00    +0.000 N 
ATOM     13  H   UNL     1       0.928   9.026  17.808  0.00  0.00    +0.000 HD
ENDROOT
BRANCH   1  18
ATOM     14  C   UNL     1      -2.054  11.281  18.598  0.00  0.00    +0.000 A 
ATOM     15  C   UNL     1      -2.255  12.209  19.621  0.00  0.00    +0.000 A 
ATOM     16  C   UNL     1      -1.408  12.223  20.731  0.00  0.00    +0.000 A 
ATOM     17  C   UNL     1      -0.351  11.306  20.823  0.00  0.00    +0.000 A 
ATOM     18  C   UNL     1      -0.139  10.364  19.808  0.00  0.00    +0.000 A 
ATOM     19  C   UNL     1      -1.002  10.360  18.696  0.00  0.00    +0.000 A 
BRANCH  14  21
ATOM     20  N   UNL     1      -3.601  11.285  16.511  0.00  0.00    +0.000 NA
ATOM     21  C   UNL     1      -2.910  11.277  17.447  0.00  0.00    +0.000 C 
ENDBRANCH  14  21
ENDBRANCH   1  18
BRANCH   8  22
ATOM     22  C   UNL     1       7.163   4.945  16.796  0.00  0.00    +0.000 C 
ATOM     23  F   UNL     1       6.997   4.031  15.799  0.00  0.00    +0.000 F 
ATOM     24  F   UNL     1       7.753   6.027  16.214  0.00  0.00    +0.000 F 
ATOM     25  F   UNL     1       8.101   4.417  17.632  0.00  0.00    +0.000 F 
ENDBRANCH   8  22
BRANCH  12  26
ATOM     26  C   UNL     1       1.774   6.268  20.654  0.00  0.00    +0.000 C 
BRANCH  26  27
ATOM     27  C   UNL     1       1.584   4.795  20.684  0.00  0.00    +0.000 A 
ATOM     28  C   UNL     1       0.922   3.900  19.868  0.00  0.00    +0.000 A 
ATOM     29  C   UNL     1       1.109   2.621  20.443  0.00  0.00    +0.000 A 
ATOM     30  C   UNL     1       1.893   2.811  21.556  0.00  0.00    +0.000 A 
ATOM     31  O   UNL     1       2.187   4.126  21.710  0.00  0.00    +0.000 OA
ENDBRANCH  26  27
ENDBRANCH  12  26
TORSDOF 5
ENDMDL
MODEL 2
REMARK VINA RESULT:      -8.6      1.393      2.054
REMARK  Name = 
REMARK  5 active torsions:
REMARK  status: ('A' for Active; 'I' for Inactive)
REMARK    1  A    between atoms: C_2  and  C_3
REMARK    2  A    between atoms: C_7  and  C_8
REMARK    3  A    between atoms: C_15  and  C_16
REMARK    4  A    between atoms: N_23  and  C_24
REMARK    5  A    between atoms: C_24  and  C_25
REMARK                            x       y       z     vdW  Elec       q    Type
REMARK                         _______ _______ _______ _____ _____    ______ ____
ROOT
ATOM      1  C   UNL     1       1.082   9.349  19.952  0.00  0.00    +0.000 C 
ATOM      2  O   UNL     1       1.841   9.282  20.915  0.00  0.00    +0.000 OA
ATOM      3  N   UNL     1       1.199   8.583  18.805  0.00  0.00    +0.000 N 
ATOM      4  C   UNL     1       2.238   7.683  18.679  0.00  0.00    +0.000 A 
ATOM      5  N   UNL     1       3.042   7.693  17.639  0.00  0.00    +0.000 NA
ATOM      6  C   UNL     1       3.945   6.684  17.855  0.00  0.00    +0.000 A 
ATOM      7  C   UNL     1       5.085   6.333  17.112  0.00  0.00    +0.000 A 
ATOM      8  C   UNL     1       5.845   5.214  17.499  0.00  0.00    +0.000 A 
ATOM      9  C   UNL     1       5.425   4.440  18.593  0.00  0.00    +0.000 A 
ATOM     10  C   UNL     1       4.299   4.784  19.354  0.00  0.00    +0.000 A 
ATOM     11  C   UNL     1       3.604   5.943  18.979  0.00  0.00    +0.000 A 
ATOM     12  N   UNL     1       2.519   6.620  19.516  0.00  0.00    +0.000 N 
ATOM     13  H   UNL     1       0.993   9.057  17.936  0.00  0.00    +0.000 HD
ENDROOT
BRANCH   1  18
ATOM     14  C   UNL     1      -1.209  12.075  21.261  0.00  0.00    +0.000 A 
ATOM     15  C   UNL     1      -2.110  12.239  20.207  0.00  0.00    +0.000 A 
ATOM     16  C   UNL     1      -1.979  11.473  19.048  0.00  0.00    +0.000 A 
ATOM     17  C   UNL     1      -0.943  10.534  18.936  0.00  0.00    +0.000 A 
ATOM     18  C   UNL     1      -0.026  10.363  19.981  0.00  0.00    +0.000 A 
ATOM     19  C   UNL     1      -0.169  11.144  21.144  0.00  0.00    +0.000 A 
BRANCH  14  21
ATOM     20  N   UNL     1      -1.474  13.482  23.428  0.00  0.00    +0.000 NA
ATOM     21  C   UNL     1      -1.353  12.847  22.461  0.00  0.00    +0.000 C 
ENDBRANCH  14  21
ENDBRANCH   1  18
BRANCH   8  22
ATOM     22  C   UNL     1       7.108   4.840  16.761  0.00  0.00    +0.000 C 
ATOM     23  F   UNL     1       8.097   4.358  17.565  0.00  0.00    +0.000 F 
ATOM     24  F   UNL     1       6.891   3.876  15.821  0.00  0.00    +0.000 F 
ATOM     25  F   UNL     1       7.652   5.894  16.091  0.00  0.00    +0.000 F 
ENDBRANCH   8  22
BRANCH  12  26
ATOM     26  C   UNL     1       1.780   6.193  20.693  0.00  0.00    +0.000 C 
BRANCH  26  27
ATOM     27  C   UNL     1       1.572   4.722  20.693  0.00  0.00    +0.000 A 
ATOM     28  C   UNL     1       0.890   3.853  19.864  0.00  0.00    +0.000 A 
ATOM     29  C   UNL     1       1.067   2.560  20.410  0.00  0.00    +0.000 A 
ATOM     30  C   UNL     1       1.865   2.716  21.518  0.00  0.00    +0.000 A 
ATOM     31  O   UNL     1       2.177   4.024  21.697  0.00  0.00    +0.000 OA
ENDBRANCH  26  27
ENDBRANCH  12  26
TORSDOF 5
ENDMDL
MODEL 3
REMARK VINA RESULT:      -8.5      1.775      2.016
REMARK  Name = 
REMARK  5 active torsions:
REMARK  status: ('A' for Active; 'I' for Inactive)
REMARK    1  A    between atoms: C_2  and  C_3
REMARK    2  A    between atoms: C_7  and  C_8
REMARK    3  A    between atoms: C_15  and  C_16
REMARK    4  A    between atoms: N_23  and  C_24
REMARK    5  A    between atoms: C_24  and  C_25
REMARK                            x       y       z     vdW  Elec       q    Type
REMARK                         _______ _______ _______ _____ _____    ______ ____
ROOT
ATOM      1  C   UNL     1       1.407   8.343  20.521  0.00  0.00    +0.000 C 
ATOM      2  O   UNL     1       1.821   7.479  21.288  0.00  0.00    +0.000 OA
ATOM      3  N   UNL     1       1.664   8.375  19.161  0.00  0.00    +0.000 N 
ATOM      4  C   UNL     1       2.455   7.402  18.585  0.00  0.00    +0.000 A 
ATOM      5  N   UNL     1       3.502   7.705  17.849  0.00  0.00    +0.000 NA
ATOM      6  C   UNL     1       4.045   6.508  17.459  0.00  0.00    +0.000 A 
ATOM      7  C   UNL     1       5.234   6.254  16.756  0.00  0.00    +0.000 A 
ATOM      8  C   UNL     1       5.569   4.929  16.418  0.00  0.00    +0.000 A 
ATOM      9  C   UNL     1       4.686   3.889  16.749  0.00  0.00    +0.000 A 
ATOM     10  C   UNL     1       3.503   4.123  17.463  0.00  0.00    +0.000 A 
ATOM     11  C   UNL     1       3.233   5.446  17.840  0.00  0.00    +0.000 A 
ATOM     12  N   UNL     1       2.229   6.039  18.592  0.00  0.00    +0.000 N 
ATOM     13  H   UNL     1       1.831   9.291  18.765  0.00  0.00    +0.000 HD
ENDROOT
BRANCH   1  18
ATOM     14  C   UNL     1      -0.256  11.744  20.768  0.00  0.00    +0.000 A 
ATOM     15  C   UNL     1      -0.799  11.717  22.053  0.00  0.00    +0.000 A 
ATOM     16  C   UNL     1      -0.644  10.587  22.857  0.00  0.00    +0.000 A 
ATOM     17  C   UNL     1       0.060   9.472  22.377  0.00  0.00    +0.000 A 
ATOM     18  C   UNL     1       0.605   9.480  21.087  0.00  0.00    +0.000 A 
ATOM     19  C   UNL     1       0.438  10.626  20.287  0.00  0.00    +0.000 A 
BRANCH  14  21
ATOM     20  N   UNL     1      -0.501  13.858  19.278  0.00  0.00    +0.000 NA
ATOM     21  C   UNL     1      -0.397  12.912  19.948  0.00  0.00    +0.000 C 
ENDBRANCH  14  21
ENDBRANCH   1  18
BRANCH   8  22
ATOM     22  C   UNL     1       6.866   4.611  15.714  0.00  0.00    +0.000 C 
ATOM     23  F   UNL     1       6.754   3.649  14.756  0.00  0.00    +0.000 F 
ATOM     24  F   UNL     1       7.395   5.701  15.087  0.00  0.00    +0.000 F 
ATOM     25  F   UNL     1       7.831   4.174  16.571  0.00  0.00    +0.000 F 
ENDBRANCH   8  22
BRANCH  12  26
ATOM     26  C   UNL     1       1.107   5.325  19.178  0.00  0.00    +0.000 C 
BRANCH  26  27
ATOM     27  C   UNL     1       1.573   4.243  20.084  0.00  0.00    +0.000 A 
ATOM     28  C   UNL     1       2.327   4.222  21.240  0.00  0.00    +0.000 A 
ATOM     29  C   UNL     1       2.428   2.865  21.627  0.00  0.00    +0.000 A 
ATOM     30  C   UNL     1       1.709   2.147  20.701  0.00  0.00    +0.000 A 
ATOM     31  O   UNL     1       1.186   2.974  19.761  0.00  0.00    +0.000 OA
ENDBRANCH  26  27
ENDBRANCH  12  26
TORSDOF 5
ENDMDL
MODEL 4
REMARK VINA RESULT:      -8.1      1.119      1.290
REMARK  Name = 
REMARK  5 active torsions:
REMARK  status: ('A' for Active; 'I' for Inactive)
REMARK    1  A    between atoms: C_2  and  C_3
REMARK    2  A    between atoms: C_7  and  C_8
REMARK    3  A    between atoms: C_15  and  C_16
REMARK    4  A    between atoms: N_23  and  C_24
REMARK    5  A    between atoms: C_24  and  C_25
REMARK                            x       y       z     vdW  Elec       q    Type
REMARK                         _______ _______ _______ _____ _____    ______ ____
ROOT
ATOM      1  C   UNL     1       1.266   8.770  19.947  0.00  0.00    +0.000 C 
ATOM      2  O   UNL     1       1.663   8.046  20.856  0.00  0.00    +0.000 OA
ATOM      3  N   UNL     1       1.590   8.605  18.611  0.00  0.00    +0.000 N 
ATOM      4  C   UNL     1       2.434   7.581  18.227  0.00  0.00    +0.000 A 
ATOM      5  N   UNL     1       3.508   7.803  17.503  0.00  0.00    +0.000 NA
ATOM      6  C   UNL     1       4.099   6.578  17.326  0.00  0.00    +0.000 A 
ATOM      7  C   UNL     1       5.328   6.259  16.725  0.00  0.00    +0.000 A 
ATOM      8  C   UNL     1       5.712   4.910  16.608  0.00  0.00    +0.000 A 
ATOM      9  C   UNL     1       4.839   3.904  17.054  0.00  0.00    +0.000 A 
ATOM     10  C   UNL     1       3.616   4.205  17.669  0.00  0.00    +0.000 A 
ATOM     11  C   UNL     1       3.295   5.561  17.827  0.00  0.00    +0.000 A 
ATOM     12  N   UNL     1       2.241   6.228  18.432  0.00  0.00    +0.000 N 
ATOM     13  H   UNL     1       1.755   9.454  18.089  0.00  0.00    +0.000 HD
ENDROOT
BRANCH   1  18
ATOM     14  C   UNL     1      -1.517  11.337  19.711  0.00  0.00    +0.000 A 
ATOM     15  C   UNL     1      -1.231  12.186  20.781  0.00  0.00    +0.000 A 
ATOM     16  C   UNL     1      -0.134  11.930  21.604  0.00  0.00    +0.000 A 
ATOM     17  C   UNL     1       0.687  10.820  21.361  0.00  0.00    +0.000 A 
ATOM     18  C   UNL     1       0.410   9.953  20.296  0.00  0.00    +0.000 A 
ATOM     19  C   UNL     1      -0.701  10.223  19.475  0.00  0.00    +0.000 A 
BRANCH  14  21
ATOM     20  N   UNL     1      -3.529  11.834  18.145  0.00  0.00    +0.000 NA
ATOM     21  C   UNL     1      -2.632  11.608  18.851  0.00  0.00    +0.000 C 
ENDBRANCH  14  21
ENDBRANCH   1  18
BRANCH   8  22
ATOM     22  C   UNL     1       7.050   4.531  16.021  0.00  0.00    +0.000 C 
ATOM     23  F   UNL     1       6.989   3.516  15.114  0.00  0.00    +0.000 F 
ATOM     24  F   UNL     1       7.644   5.573  15.373  0.00  0.00    +0.000 F 
ATOM     25  F   UNL     1       7.941   4.129  16.970  0.00  0.00    +0.000 F 
ENDBRANCH   8  22
BRANCH  12  26
ATOM     26  C   UNL     1       1.109   5.575  19.069  0.00  0.00    +0.000 C 
BRANCH  26  27
ATOM     27  C   UNL     1       1.559   4.540  20.035  0.00  0.00    +0.000 A 
ATOM     28  C   UNL     1       2.369   4.562  21.152  0.00  0.00    +0.000 A 
ATOM     29  C   UNL     1       2.413   3.234  21.640  0.00  0.00    +0.000 A 
ATOM     30  C   UNL     1       1.608   2.493  20.808  0.00  0.00    +0.000 A 
ATOM     31  O   UNL     1       1.085   3.276  19.832  0.00  0.00    +0.000 OA
ENDBRANCH  26  27
ENDBRANCH  12  26
TORSDOF 5
ENDMDL
MODEL 5
REMARK VINA RESULT:      -8.0      1.728      1.931
REMARK  Name = 
REMARK  5 active torsions:
REMARK  status: ('A' for Active; 'I' for Inactive)
REMARK    1  A    between atoms: C_2  and  C_3
REMARK    2  A    between atoms: C_7  and  C_8
REMARK    3  A    between atoms: C_15  and  C_16
REMARK    4  A    between atoms: N_23  and  C_24
REMARK    5  A    between atoms: C_24  and  C_25
REMARK                            x       y       z     vdW  Elec       q    Type
REMARK                         _______ _______ _______ _____ _____    ______ ____
ROOT
ATOM      1  C   UNL     1       1.136   9.218  21.235  0.00  0.00    +0.000 C 
ATOM      2  O   UNL     1       2.009   8.867  22.024  0.00  0.00    +0.000 OA
ATOM      3  N   UNL     1       1.032   8.772  19.929  0.00  0.00    +0.000 N 
ATOM      4  C   UNL     1       1.965   7.888  19.425  0.00  0.00    +0.000 A 
ATOM      5  N   UNL     1       2.619   8.130  18.311  0.00  0.00    +0.000 NA
ATOM      6  C   UNL     1       3.455   7.059  18.127  0.00  0.00    +0.000 A 
ATOM      7  C   UNL     1       4.450   6.860  17.156  0.00  0.00    +0.000 A 
ATOM      8  C   UNL     1       5.158   5.644  17.130  0.00  0.00    +0.000 A 
ATOM      9  C   UNL     1       4.826   4.632  18.046  0.00  0.00    +0.000 A 
ATOM     10  C   UNL     1       3.846   4.819  19.030  0.00  0.00    +0.000 A 
ATOM     11  C   UNL     1       3.206   6.067  19.068  0.00  0.00    +0.000 A 
ATOM     12  N   UNL     1       2.265   6.631  19.916  0.00  0.00    +0.000 N 
ATOM     13  H   UNL     1       0.752   9.464  19.248  0.00  0.00    +0.000 HD
ENDROOT
BRANCH   1  18
ATOM     14  C   UNL     1      -0.876  12.434  21.309  0.00  0.00    +0.000 A 
ATOM     15  C   UNL     1      -1.647  12.276  22.460  0.00  0.00    +0.000 A 
ATOM     16  C   UNL     1      -1.535  11.115  23.226  0.00  0.00    +0.000 A 
ATOM     17  C   UNL     1      -0.645  10.101  22.843  0.00  0.00    +0.000 A 
ATOM     18  C   UNL     1       0.132  10.240  21.685  0.00  0.00    +0.000 A 
ATOM     19  C   UNL     1       0.006  11.416  20.922  0.00  0.00    +0.000 A 
BRANCH  14  21
ATOM     20  N   UNL     1      -1.044  14.606  19.894  0.00  0.00    +0.000 NA
ATOM     21  C   UNL     1      -0.974  13.635  20.531  0.00  0.00    +0.000 C 
ENDBRANCH  14  21
ENDBRANCH   1  18
BRANCH   8  22
ATOM     22  C   UNL     1       6.274   5.415  16.139  0.00  0.00    +0.000 C 
ATOM     23  F   UNL     1       5.900   5.575  14.839  0.00  0.00    +0.000 F 
ATOM     24  F   UNL     1       7.320   6.268  16.332  0.00  0.00    +0.000 F 
ATOM     25  F   UNL     1       6.798   4.161  16.224  0.00  0.00    +0.000 F 
ENDBRANCH   8  22
BRANCH  12  26
ATOM     26  C   UNL     1       1.658   5.948  21.047  0.00  0.00    +0.000 C 
BRANCH  26  27
ATOM     27  C   UNL     1       1.486   4.499  20.770  0.00  0.00    +0.000 A 
ATOM     28  C   UNL     1       0.821   3.784  19.794  0.00  0.00    +0.000 A 
ATOM     29  C   UNL     1       1.034   2.416  20.086  0.00  0.00    +0.000 A 
ATOM     30  C   UNL     1       1.834   2.381  21.203  0.00  0.00    +0.000 A 
ATOM     31  O   UNL     1       2.115   3.640  21.625  0.00  0.00    +0.000 OA
ENDBRANCH  26  27
ENDBRANCH  12  26
TORSDOF 5
ENDMDL
MODEL 6
REMARK VINA RESULT:      -8.0      3.619      6.134
REMARK  Name = 
REMARK  5 active torsions:
REMARK  status: ('A' for Active; 'I' for Inactive)
REMARK    1  A    between atoms: C_2  and  C_3
REMARK    2  A    between atoms: C_7  and  C_8
REMARK    3  A    between atoms: C_15  and  C_16
REMARK    4  A    between atoms: N_23  and  C_24
REMARK    5  A    between atoms: C_24  and  C_25
REMARK                            x       y       z     vdW  Elec       q    Type
REMARK                         _______ _______ _______ _____ _____    ______ ____
ROOT
ATOM      1  C   UNL     1      -1.298  11.739  21.489  0.00  0.00    +0.000 C 
ATOM      2  O   UNL     1      -1.927  11.528  20.456  0.00  0.00    +0.000 OA
ATOM      3  N   UNL     1      -0.053  11.206  21.774  0.00  0.00    +0.000 N 
ATOM      4  C   UNL     1       0.555  10.353  20.874  0.00  0.00    +0.000 A 
ATOM      5  N   UNL     1       0.992   9.165  21.230  0.00  0.00    +0.000 NA
ATOM      6  C   UNL     1       1.517   8.604  20.095  0.00  0.00    +0.000 A 
ATOM      7  C   UNL     1       2.016   7.306  19.890  0.00  0.00    +0.000 A 
ATOM      8  C   UNL     1       2.559   6.964  18.638  0.00  0.00    +0.000 A 
ATOM      9  C   UNL     1       2.636   7.939  17.629  0.00  0.00    +0.000 A 
ATOM     10  C   UNL     1       2.131   9.233  17.813  0.00  0.00    +0.000 A 
ATOM     11  C   UNL     1       1.537   9.520  19.051  0.00  0.00    +0.000 A 
ATOM     12  N   UNL     1       0.884  10.632  19.561  0.00  0.00    +0.000 N 
ATOM     13  H   UNL     1       0.097  10.923  22.733  0.00  0.00    +0.000 HD
ENDROOT
BRANCH   1  18
ATOM     14  C   UNL     1      -3.966  13.196  23.760  0.00  0.00    +0.000 A 
ATOM     15  C   UNL     1      -3.261  14.181  24.454  0.00  0.00    +0.000 A 
ATOM     16  C   UNL     1      -1.902  14.379  24.203  0.00  0.00    +0.000 A 
ATOM     17  C   UNL     1      -1.238  13.590  23.252  0.00  0.00    +0.000 A 
ATOM     18  C   UNL     1      -1.929  12.593  22.551  0.00  0.00    +0.000 A 
ATOM     19  C   UNL     1      -3.299  12.403  22.816  0.00  0.00    +0.000 A 
BRANCH  14  21
ATOM     20  N   UNL     1      -6.501  12.836  24.195  0.00  0.00    +0.000 NA
ATOM     21  C   UNL     1      -5.366  13.004  24.001  0.00  0.00    +0.000 C 
ENDBRANCH  14  21
ENDBRANCH   1  18
BRANCH   8  22
ATOM     22  C   UNL     1       3.051   5.564  18.361  0.00  0.00    +0.000 C 
ATOM     23  F   UNL     1       3.860   5.059  19.334  0.00  0.00    +0.000 F 
ATOM     24  F   UNL     1       2.027   4.672  18.229  0.00  0.00    +0.000 F 
ATOM     25  F   UNL     1       3.764   5.481  17.203  0.00  0.00    +0.000 F 
ENDBRANCH   8  22
BRANCH  12  26
ATOM     26  C   UNL     1       0.693  11.879  18.840  0.00  0.00    +0.000 C 
BRANCH  26  27
ATOM     27  C   UNL     1       1.799  12.832  19.111  0.00  0.00    +0.000 A 
ATOM     28  C   UNL     1       2.785  13.400  18.329  0.00  0.00    +0.000 A 
ATOM     29  C   UNL     1       3.545  14.231  19.187  0.00  0.00    +0.000 A 
ATOM     30  C   UNL     1       2.962  14.139  20.428  0.00  0.00    +0.000 A 
ATOM     31  O   UNL     1       1.902  13.294  20.392  0.00  0.00    +0.000 OA
ENDBRANCH  26  27
ENDBRANCH  12  26
TORSDOF 5
ENDMDL
MODEL 7
REMARK VINA RESULT:      -8.0      1.391      1.643
REMARK  Name = 
REMARK  5 active torsions:
REMARK  status: ('A' for Active; 'I' for Inactive)
REMARK    1  A    between atoms: C_2  and  C_3
REMARK    2  A    between atoms: C_7  and  C_8
REMARK    3  A    between atoms: C_15  and  C_16
REMARK    4  A    between atoms: N_23  and  C_24
REMARK    5  A    between atoms: C_24  and  C_25
REMARK                            x       y       z     vdW  Elec       q    Type
REMARK                         _______ _______ _______ _____ _____    ______ ____
ROOT
ATOM      1  C   UNL     1       1.143   9.574  19.133  0.00  0.00    +0.000 C 
ATOM      2  O   UNL     1       1.894   9.662  20.100  0.00  0.00    +0.000 OA
ATOM      3  N   UNL     1       1.274   8.643  18.117  0.00  0.00    +0.000 N 
ATOM      4  C   UNL     1       2.321   7.743  18.137  0.00  0.00    +0.000 A 
ATOM      5  N   UNL     1       3.134   7.601  17.113  0.00  0.00    +0.000 NA
ATOM      6  C   UNL     1       4.043   6.645  17.486  0.00  0.00    +0.000 A 
ATOM      7  C   UNL     1       5.191   6.195  16.813  0.00  0.00    +0.000 A 
ATOM      8  C   UNL     1       5.957   5.155  17.371  0.00  0.00    +0.000 A 
ATOM      9  C   UNL     1       5.534   4.553  18.568  0.00  0.00    +0.000 A 
ATOM     10  C   UNL     1       4.400   5.000  19.260  0.00  0.00    +0.000 A 
ATOM     11  C   UNL     1       3.698   6.081  18.708  0.00  0.00    +0.000 A 
ATOM     12  N   UNL     1       2.604   6.823  19.128  0.00  0.00    +0.000 N 
ATOM     13  H   UNL     1       1.072   8.976  17.184  0.00  0.00    +0.000 HD
ENDROOT
BRANCH   1  18
ATOM     14  C   UNL     1      -0.629  12.923  18.934  0.00  0.00    +0.000 A 
ATOM     15  C   UNL     1      -1.969  12.546  18.844  0.00  0.00    +0.000 A 
ATOM     16  C   UNL     1      -2.318  11.195  18.834  0.00  0.00    +0.000 A 
ATOM     17  C   UNL     1      -1.324  10.209  18.915  0.00  0.00    +0.000 A 
ATOM     18  C   UNL     1       0.027  10.570  18.999  0.00  0.00    +0.000 A 
ATOM     19  C   UNL     1       0.364  11.937  19.006  0.00  0.00    +0.000 A 
BRANCH  14  21
ATOM     20  N   UNL     1       0.035  15.434  18.987  0.00  0.00    +0.000 NA
ATOM     21  C   UNL     1      -0.268  14.311  18.965  0.00  0.00    +0.000 C 
ENDBRANCH  14  21
ENDBRANCH   1  18
BRANCH   8  22
ATOM     22  C   UNL     1       7.228   4.683  16.708  0.00  0.00    +0.000 C 
ATOM     23  F   UNL     1       7.048   3.649  15.839  0.00  0.00    +0.000 F 
ATOM     24  F   UNL     1       7.833   5.671  15.989  0.00  0.00    +0.000 F 
ATOM     25  F   UNL     1       8.159   4.257  17.607  0.00  0.00    +0.000 F 
ENDBRANCH   8  22
BRANCH  12  26
ATOM     26  C   UNL     1       1.860   6.574  20.352  0.00  0.00    +0.000 C 
BRANCH  26  27
ATOM     27  C   UNL     1       1.652   5.119  20.569  0.00  0.00    +0.000 A 
ATOM     28  C   UNL     1       0.917   4.151  19.915  0.00  0.00    +0.000 A 
ATOM     29  C   UNL     1       1.131   2.943  20.622  0.00  0.00    +0.000 A 
ATOM     30  C   UNL     1       2.001   3.244  21.642  0.00  0.00    +0.000 A 
ATOM     31  O   UNL     1       2.324   4.561  21.618  0.00  0.00    +0.000 OA
ENDBRANCH  26  27
ENDBRANCH  12  26
TORSDOF 5
ENDMDL
MODEL 8
REMARK VINA RESULT:      -8.0      3.860      6.449
REMARK  Name = 
REMARK  5 active torsions:
REMARK  status: ('A' for Active; 'I' for Inactive)
REMARK    1  A    between atoms: C_2  and  C_3
REMARK    2  A    between atoms: C_7  and  C_8
REMARK    3  A    between atoms: C_15  and  C_16
REMARK    4  A    between atoms: N_23  and  C_24
REMARK    5  A    between atoms: C_24  and  C_25
REMARK                            x       y       z     vdW  Elec       q    Type
REMARK                         _______ _______ _______ _____ _____    ______ ____
ROOT
ATOM      1  C   UNL     1      -1.389  11.831  21.598  0.00  0.00    +0.000 C 
ATOM      2  O   UNL     1      -2.025  11.625  20.568  0.00  0.00    +0.000 OA
ATOM      3  N   UNL     1      -0.141  11.297  21.872  0.00  0.00    +0.000 N 
ATOM      4  C   UNL     1       0.461  10.450  20.963  0.00  0.00    +0.000 A 
ATOM      5  N   UNL     1       0.900   9.260  21.311  0.00  0.00    +0.000 NA
ATOM      6  C   UNL     1       1.419   8.705  20.169  0.00  0.00    +0.000 A 
ATOM      7  C   UNL     1       1.916   7.409  19.954  0.00  0.00    +0.000 A 
ATOM      8  C   UNL     1       2.452   7.073  18.696  0.00  0.00    +0.000 A 
ATOM      9  C   UNL     1       2.522   8.054  17.693  0.00  0.00    +0.000 A 
ATOM     10  C   UNL     1       2.017   9.347  17.886  0.00  0.00    +0.000 A 
ATOM     11  C   UNL     1       1.432   9.627  19.129  0.00  0.00    +0.000 A 
ATOM     12  N   UNL     1       0.781  10.735  19.650  0.00  0.00    +0.000 N 
ATOM     13  H   UNL     1       0.015  11.009  22.828  0.00  0.00    +0.000 HD
ENDROOT
BRANCH   1  18
ATOM     14  C   UNL     1      -1.736  14.512  24.261  0.00  0.00    +0.000 A 
ATOM     15  C   UNL     1      -3.026  14.288  24.742  0.00  0.00    +0.000 A 
ATOM     16  C   UNL     1      -3.810  13.269  24.199  0.00  0.00    +0.000 A 
ATOM     17  C   UNL     1      -3.305  12.463  23.168  0.00  0.00    +0.000 A 
ATOM     18  C   UNL     1      -2.014  12.679  22.669  0.00  0.00    +0.000 A 
ATOM     19  C   UNL     1      -1.235  13.712  23.224  0.00  0.00    +0.000 A 
BRANCH  14  21
ATOM     20  N   UNL     1      -0.251  16.376  25.293  0.00  0.00    +0.000 NA
ATOM     21  C   UNL     1      -0.921  15.546  24.830  0.00  0.00    +0.000 C 
ENDBRANCH  14  21
ENDBRANCH   1  18
BRANCH   8  22
ATOM     22  C   UNL     1       2.942   5.675  18.409  0.00  0.00    +0.000 C 
ATOM     23  F   UNL     1       4.187   5.628  17.857  0.00  0.00    +0.000 F 
ATOM     24  F   UNL     1       3.007   4.908  19.534  0.00  0.00    +0.000 F 
ATOM     25  F   UNL     1       2.127   5.003  17.549  0.00  0.00    +0.000 F 
ENDBRANCH   8  22
BRANCH  12  26
ATOM     26  C   UNL     1       0.585  11.986  18.937  0.00  0.00    +0.000 C 
BRANCH  26  27
ATOM     27  C   UNL     1       1.723  12.915  19.156  0.00  0.00    +0.000 A 
ATOM     28  C   UNL     1       2.680  13.467  18.328  0.00  0.00    +0.000 A 
ATOM     29  C   UNL     1       3.499  14.277  19.149  0.00  0.00    +0.000 A 
ATOM     30  C   UNL     1       2.977  14.191  20.418  0.00  0.00    +0.000 A 
ATOM     31  O   UNL     1       1.899  13.367  20.432  0.00  0.00    +0.000 OA
ENDBRANCH  26  27
ENDBRANCH  12  26
TORSDOF 5
ENDMDL
MODEL 9
REMARK VINA RESULT:      -8.0      1.582      1.867
REMARK  Name = 
REMARK  5 active torsions:
REMARK  status: ('A' for Active; 'I' for Inactive)
REMARK    1  A    between atoms: C_2  and  C_3
REMARK    2  A    between atoms: C_7  and  C_8
REMARK    3  A    between atoms: C_15  and  C_16
REMARK    4  A    between atoms: N_23  and  C_24
REMARK    5  A    between atoms: C_24  and  C_25
REMARK                            x       y       z     vdW  Elec       q    Type
REMARK                         _______ _______ _______ _____ _____    ______ ____
ROOT
ATOM      1  C   UNL     1       1.393   8.725  21.028  0.00  0.00    +0.000 C 
ATOM      2  O   UNL     1       2.133   8.269  21.896  0.00  0.00    +0.000 OA
ATOM      3  N   UNL     1       1.433   8.363  19.693  0.00  0.00    +0.000 N 
ATOM      4  C   UNL     1       2.368   7.447  19.253  0.00  0.00    +0.000 A 
ATOM      5  N   UNL     1       3.175   7.708  18.249  0.00  0.00    +0.000 NA
ATOM      6  C   UNL     1       3.960   6.594  18.102  0.00  0.00    +0.000 A 
ATOM      7  C   UNL     1       5.060   6.383  17.252  0.00  0.00    +0.000 A 
ATOM      8  C   UNL     1       5.690   5.124  17.235  0.00  0.00    +0.000 A 
ATOM      9  C   UNL     1       5.180   4.087  18.033  0.00  0.00    +0.000 A 
ATOM     10  C   UNL     1       4.093   4.284  18.896  0.00  0.00    +0.000 A 
ATOM     11  C   UNL     1       3.531   5.569  18.936  0.00  0.00    +0.000 A 
ATOM     12  N   UNL     1       2.524   6.147  19.694  0.00  0.00    +0.000 N 
ATOM     13  H   UNL     1       1.287   9.112  19.029  0.00  0.00    +0.000 HD
ENDROOT
BRANCH   1  18
ATOM     14  C   UNL     1      -0.627  11.932  20.864  0.00  0.00    +0.000 A 
ATOM     15  C   UNL     1      -1.352  11.888  22.055  0.00  0.00    +0.000 A 
ATOM     16  C   UNL     1      -1.205  10.808  22.927  0.00  0.00    +0.000 A 
ATOM     17  C   UNL     1      -0.327   9.761  22.610  0.00  0.00    +0.000 A 
ATOM     18  C   UNL     1       0.403   9.786  21.415  0.00  0.00    +0.000 A 
ATOM     19  C   UNL     1       0.243  10.881  20.545  0.00  0.00    +0.000 A 
BRANCH  14  21
ATOM     20  N   UNL     1      -0.878  13.952  19.251  0.00  0.00    +0.000 NA
ATOM     21  C   UNL     1      -0.761  13.050  19.976  0.00  0.00    +0.000 C 
ENDBRANCH  14  21
ENDBRANCH   1  18
BRANCH   8  22
ATOM     22  C   UNL     1       6.908   4.877  16.380  0.00  0.00    +0.000 C 
ATOM     23  F   UNL     1       6.682   4.054  15.318  0.00  0.00    +0.000 F 
ATOM     24  F   UNL     1       7.415   6.029  15.855  0.00  0.00    +0.000 F 
ATOM     25  F   UNL     1       7.931   4.310  17.080  0.00  0.00    +0.000 F 
ENDBRANCH   8  22
BRANCH  12  26
ATOM     26  C   UNL     1       1.735   5.443  20.691  0.00  0.00    +0.000 C 
BRANCH  26  27
ATOM     27  C   UNL     1       1.423   4.059  20.251  0.00  0.00    +0.000 A 
ATOM     28  C   UNL     1       1.548   2.817  20.840  0.00  0.00    +0.000 A 
ATOM     29  C   UNL     1       1.076   1.876  19.894  0.00  0.00    +0.000 A 
ATOM     30  C   UNL     1       0.670   2.603  18.800  0.00  0.00    +0.000 A 
ATOM     31  O   UNL     1       0.875   3.928  19.007  0.00  0.00    +0.000 OA
ENDBRANCH  26  27
ENDBRANCH  12  26
TORSDOF 5
ENDMDL
