MODEL 1
REMARK VINA RESULT:      -7.5      0.000      0.000
REMARK  Name = 
REMARK  6 active torsions:
REMARK  status: ('A' for Active; 'I' for Inactive)
REMARK    1  A    between atoms: C_1  and  N_2
REMARK    2  A    between atoms: C_6  and  C_7
REMARK    3  A    between atoms: C_7  and  C_8
REMARK    4  A    between atoms: C_8  and  C_9
REMARK    5  A    between atoms: C_13  and  N_14
REMARK    6  A    between atoms: C_19  and  C_20
REMARK                            x       y       z     vdW  Elec       q    Type
REMARK                         _______ _______ _______ _____ _____    ______ ____
ROOT
ATOM      1  C   UNL     1      -3.795  11.393  18.127  0.00  0.00    +0.000 A 
ATOM      2  C   UNL     1      -3.661  10.715  16.897  0.00  0.00    +0.000 A 
ATOM      3  C   UNL     1      -2.522   9.979  16.584  0.00  0.00    +0.000 A 
ATOM      4  C   UNL     1      -1.427  10.011  17.434  0.00  0.00    +0.000 A 
ATOM      5  C   UNL     1      -1.416  10.928  18.494  0.00  0.00    +0.000 A 
ATOM      6  C   UNL     1      -2.632  11.478  18.918  0.00  0.00    +0.000 A 
ENDROOT
BRANCH   5   7
ATOM      7  N   UNL     1      -0.189  11.669  18.801  0.00  0.00    +0.000 N 
ATOM      8  C   UNL     1       0.648  10.866  19.734  0.00  0.00    +0.000 C 
ATOM      9  C   UNL     1       0.080  11.275  21.059  0.00  0.00    +0.000 A 
ATOM     10  C   UNL     1      -0.339  10.474  22.106  0.00  0.00    +0.000 A 
ATOM     11  C   UNL     1      -1.272  11.009  23.003  0.00  0.00    +0.000 A 
ATOM     12  C   UNL     1      -1.749  12.335  22.870  0.00  0.00    +0.000 A 
ATOM     13  C   UNL     1      -1.264  13.153  21.840  0.00  0.00    +0.000 A 
ATOM     14  C   UNL     1      -0.390  12.582  20.933  0.00  0.00    +0.000 A 
ATOM     15  C   UNL     1      -0.384  12.903  19.483  0.00  0.00    +0.000 C 
ATOM     16  O   UNL     1      -0.723  13.979  19.015  0.00  0.00    +0.000 OA
BRANCH  12  17
ATOM     17  C   UNL     1      -2.877  12.841  23.730  0.00  0.00    +0.000 C 
ATOM     18  F   UNL     1      -3.664  11.852  24.236  0.00  0.00    +0.000 F 
ENDBRANCH  12  17
ENDBRANCH   5   7
BRANCH   1  19
ATOM     19  C   UNL     1      -5.195  12.001  18.610  0.00  0.00    +0.000 C 
ATOM     20  C   UNL     1      -6.015  12.712  17.491  0.00  0.00    +0.000 C 
ATOM     21  O   UNL     1      -7.156  11.858  17.708  0.00  0.00    +0.000 OA
ATOM     22  C   UNL     1      -6.395  11.018  18.601  0.00  0.00    +0.000 C 
BRANCH  19  23
ATOM     23  C   UNL     1      -5.109  12.911  19.851  0.00  0.00    +0.000 C 
BRANCH  23  29
ATOM     24  C   UNL     1      -7.916  14.397  20.142  0.00  0.00    +0.000 C 
ATOM     25  N   UNL     1      -7.341  13.418  21.025  0.00  0.00    +0.000 N 
ATOM     26  C   UNL     1      -7.890  13.024  22.210  0.00  0.00    +0.000 A 
ATOM     27  N   UNL     1      -7.093  12.171  22.802  0.00  0.00    +0.000 NA
ATOM     28  N   UNL     1      -5.989  12.017  22.005  0.00  0.00    +0.000 NA
ATOM     29  C   UNL     1      -6.147  12.739  20.912  0.00  0.00    +0.000 A 
ENDBRANCH  23  29
ENDBRANCH  19  23
ENDBRANCH   1  19
TORSDOF 5
ENDMDL
MODEL 2
REMARK VINA RESULT:      -7.5      6.208      8.803
REMARK  Name = 
REMARK  6 active torsions:
REMARK  status: ('A' for Active; 'I' for Inactive)
REMARK    1  A    between atoms: C_1  and  N_2
REMARK    2  A    between atoms: C_6  and  C_7
REMARK    3  A    between atoms: C_7  and  C_8
REMARK    4  A    between atoms: C_8  and  C_9
REMARK    5  A    between atoms: C_13  and  N_14
REMARK    6  A    between atoms: C_19  and  C_20
REMARK                            x       y       z     vdW  Elec       q    Type
REMARK                         _______ _______ _______ _____ _____    ______ ____
ROOT
ATOM      1  C   UNL     1       1.815   7.164  20.306  0.00  0.00    +0.000 A 
ATOM      2  C   UNL     1       1.476   5.970  20.976  0.00  0.00    +0.000 A 
ATOM      3  C   UNL     1       2.208   4.799  20.804  0.00  0.00    +0.000 A 
ATOM      4  C   UNL     1       3.216   4.750  19.853  0.00  0.00    +0.000 A 
ATOM      5  C   UNL     1       3.356   5.818  18.956  0.00  0.00    +0.000 A 
ATOM      6  C   UNL     1       2.780   7.051  19.286  0.00  0.00    +0.000 A 
ENDROOT
BRANCH   5   7
ATOM      7  N   UNL     1       3.623   5.548  17.541  0.00  0.00    +0.000 N 
ATOM      8  C   UNL     1       4.577   4.410  17.430  0.00  0.00    +0.000 C 
ATOM      9  C   UNL     1       5.891   5.122  17.532  0.00  0.00    +0.000 A 
ATOM     10  C   UNL     1       6.971   4.833  18.346  0.00  0.00    +0.000 A 
ATOM     11  C   UNL     1       7.857   5.875  18.649  0.00  0.00    +0.000 A 
ATOM     12  C   UNL     1       7.679   7.174  18.115  0.00  0.00    +0.000 A 
ATOM     13  C   UNL     1       6.615   7.432  17.240  0.00  0.00    +0.000 A 
ATOM     14  C   UNL     1       5.721   6.402  17.006  0.00  0.00    +0.000 A 
ATOM     15  C   UNL     1       4.260   6.605  16.834  0.00  0.00    +0.000 C 
ATOM     16  O   UNL     1       3.755   7.620  16.377  0.00  0.00    +0.000 OA
BRANCH  12  17
ATOM     17  C   UNL     1       8.531   8.325  18.581  0.00  0.00    +0.000 C 
ATOM     18  F   UNL     1       8.243   9.504  17.963  0.00  0.00    +0.000 F 
ENDBRANCH  12  17
ENDBRANCH   5   7
BRANCH   1  19
ATOM     19  C   UNL     1       1.164   8.572  20.704  0.00  0.00    +0.000 C 
ATOM     20  C   UNL     1      -0.270   8.476  21.312  0.00  0.00    +0.000 C 
ATOM     21  O   UNL     1       0.134   9.162  22.513  0.00  0.00    +0.000 OA
ATOM     22  C   UNL     1       1.520   9.103  22.118  0.00  0.00    +0.000 C 
BRANCH  19  23
ATOM     23  C   UNL     1       1.186   9.633  19.587  0.00  0.00    +0.000 C 
BRANCH  23  29
ATOM     24  C   UNL     1       0.408  12.366  21.034  0.00  0.00    +0.000 C 
ATOM     25  N   UNL     1      -0.357  11.634  20.060  0.00  0.00    +0.000 N 
ATOM     26  C   UNL     1      -1.617  11.966  19.656  0.00  0.00    +0.000 A 
ATOM     27  N   UNL     1      -2.059  11.068  18.811  0.00  0.00    +0.000 NA
ATOM     28  N   UNL     1      -1.082  10.116  18.674  0.00  0.00    +0.000 NA
ATOM     29  C   UNL     1      -0.036  10.470  19.398  0.00  0.00    +0.000 A 
ENDBRANCH  23  29
ENDBRANCH  19  23
ENDBRANCH   1  19
TORSDOF 5
ENDMDL
MODEL 3
REMARK VINA RESULT:      -7.5      6.217      8.802
REMARK  Name = 
REMARK  6 active torsions:
REMARK  status: ('A' for Active; 'I' for Inactive)
REMARK    1  A    between atoms: C_1  and  N_2
REMARK    2  A    between atoms: C_6  and  C_7
REMARK    3  A    between atoms: C_7  and  C_8
REMARK    4  A    between atoms: C_8  and  C_9
REMARK    5  A    between atoms: C_13  and  N_14
REMARK    6  A    between atoms: C_19  and  C_20
REMARK                            x       y       z     vdW  Elec       q    Type
REMARK                         _______ _______ _______ _____ _____    ______ ____
ROOT
ATOM      1  C   UNL     1       1.789   7.152  20.315  0.00  0.00    +0.000 A 
ATOM      2  C   UNL     1       1.468   5.950  20.979  0.00  0.00    +0.000 A 
ATOM      3  C   UNL     1       2.214   4.789  20.799  0.00  0.00    +0.000 A 
ATOM      4  C   UNL     1       3.220   4.759  19.845  0.00  0.00    +0.000 A 
ATOM      5  C   UNL     1       3.344   5.833  18.954  0.00  0.00    +0.000 A 
ATOM      6  C   UNL     1       2.753   7.057  19.292  0.00  0.00    +0.000 A 
ENDROOT
BRANCH   5   7
ATOM      7  N   UNL     1       3.611   5.574  17.536  0.00  0.00    +0.000 N 
ATOM      8  C   UNL     1       4.554   4.428  17.416  0.00  0.00    +0.000 C 
ATOM      9  C   UNL     1       5.875   5.127  17.527  0.00  0.00    +0.000 A 
ATOM     10  C   UNL     1       6.951   4.820  18.340  0.00  0.00    +0.000 A 
ATOM     11  C   UNL     1       7.847   5.850  18.654  0.00  0.00    +0.000 A 
ATOM     12  C   UNL     1       7.682   7.156  18.132  0.00  0.00    +0.000 A 
ATOM     13  C   UNL     1       6.622   7.432  17.259  0.00  0.00    +0.000 A 
ATOM     14  C   UNL     1       5.718   6.414  17.013  0.00  0.00    +0.000 A 
ATOM     15  C   UNL     1       4.259   6.632  16.841  0.00  0.00    +0.000 C 
ATOM     16  O   UNL     1       3.765   7.656  16.392  0.00  0.00    +0.000 OA
BRANCH  12  17
ATOM     17  C   UNL     1       8.543   8.294  18.612  0.00  0.00    +0.000 C 
ATOM     18  F   UNL     1       8.426   9.423  17.858  0.00  0.00    +0.000 F 
ENDBRANCH  12  17
ENDBRANCH   5   7
BRANCH   1  19
ATOM     19  C   UNL     1       1.121   8.549  20.723  0.00  0.00    +0.000 C 
ATOM     20  C   UNL     1      -0.294   8.428  21.367  0.00  0.00    +0.000 C 
ATOM     21  O   UNL     1       0.126   9.129  22.554  0.00  0.00    +0.000 OA
ATOM     22  C   UNL     1       1.502   9.094  22.124  0.00  0.00    +0.000 C 
BRANCH  19  23
ATOM     23  C   UNL     1       1.095   9.604  19.599  0.00  0.00    +0.000 C 
BRANCH  23  29
ATOM     24  C   UNL     1      -1.608  10.054  17.967  0.00  0.00    +0.000 C 
ATOM     25  N   UNL     1      -1.036  10.902  18.978  0.00  0.00    +0.000 N 
ATOM     26  C   UNL     1      -1.537  12.117  19.346  0.00  0.00    +0.000 A 
ATOM     27  N   UNL     1      -0.755  12.662  20.242  0.00  0.00    +0.000 NA
ATOM     28  N   UNL     1       0.292  11.803  20.452  0.00  0.00    +0.000 NA
ATOM     29  C   UNL     1       0.111  10.721  19.719  0.00  0.00    +0.000 A 
ENDBRANCH  23  29
ENDBRANCH  19  23
ENDBRANCH   1  19
TORSDOF 5
ENDMDL
MODEL 4
REMARK VINA RESULT:      -7.4      8.562     11.433
REMARK  Name = 
REMARK  6 active torsions:
REMARK  status: ('A' for Active; 'I' for Inactive)
REMARK    1  A    between atoms: C_1  and  N_2
REMARK    2  A    between atoms: C_6  and  C_7
REMARK    3  A    between atoms: C_7  and  C_8
REMARK    4  A    between atoms: C_8  and  C_9
REMARK    5  A    between atoms: C_13  and  N_14
REMARK    6  A    between atoms: C_19  and  C_20
REMARK                            x       y       z     vdW  Elec       q    Type
REMARK                         _______ _______ _______ _____ _____    ______ ____
ROOT
ATOM      1  C   UNL     1       3.208   4.049  19.416  0.00  0.00    +0.000 A 
ATOM      2  C   UNL     1       2.888   3.502  18.157  0.00  0.00    +0.000 A 
ATOM      3  C   UNL     1       3.872   3.074  17.270  0.00  0.00    +0.000 A 
ATOM      4  C   UNL     1       5.207   3.308  17.560  0.00  0.00    +0.000 A 
ATOM      5  C   UNL     1       5.533   4.132  18.644  0.00  0.00    +0.000 A 
ATOM      6  C   UNL     1       4.567   4.354  19.633  0.00  0.00    +0.000 A 
ENDROOT
BRANCH   5   7
ATOM      7  N   UNL     1       6.609   5.119  18.510  0.00  0.00    +0.000 N 
ATOM      8  C   UNL     1       6.044   6.391  17.980  0.00  0.00    +0.000 C 
ATOM      9  C   UNL     1       6.103   6.141  16.504  0.00  0.00    +0.000 A 
ATOM     10  C   UNL     1       5.106   6.301  15.558  0.00  0.00    +0.000 A 
ATOM     11  C   UNL     1       5.202   5.557  14.376  0.00  0.00    +0.000 A 
ATOM     12  C   UNL     1       6.297   4.693  14.134  0.00  0.00    +0.000 A 
ATOM     13  C   UNL     1       7.330   4.592  15.076  0.00  0.00    +0.000 A 
ATOM     14  C   UNL     1       7.181   5.291  16.260  0.00  0.00    +0.000 A 
ATOM     15  C   UNL     1       7.629   4.778  17.580  0.00  0.00    +0.000 C 
ATOM     16  O   UNL     1       8.571   4.015  17.738  0.00  0.00    +0.000 OA
BRANCH  12  17
ATOM     17  C   UNL     1       6.305   3.769  12.945  0.00  0.00    +0.000 C 
ATOM     18  F   UNL     1       5.073   3.569  12.400  0.00  0.00    +0.000 F 
ENDBRANCH  12  17
ENDBRANCH   5   7
BRANCH   1  19
ATOM     19  C   UNL     1       2.097   4.281  20.546  0.00  0.00    +0.000 C 
ATOM     20  C   UNL     1       0.695   3.685  20.210  0.00  0.00    +0.000 C 
ATOM     21  O   UNL     1       0.685   2.887  21.410  0.00  0.00    +0.000 OA
ATOM     22  C   UNL     1       2.061   3.225  21.682  0.00  0.00    +0.000 C 
BRANCH  19  23
ATOM     23  C   UNL     1       1.944   5.742  21.011  0.00  0.00    +0.000 C 
BRANCH  23  29
ATOM     24  C   UNL     1       1.150   8.821  21.265  0.00  0.00    +0.000 C 
ATOM     25  N   UNL     1       1.657   8.132  20.108  0.00  0.00    +0.000 N 
ATOM     26  C   UNL     1       1.798   8.694  18.873  0.00  0.00    +0.000 A 
ATOM     27  N   UNL     1       2.222   7.791  18.025  0.00  0.00    +0.000 NA
ATOM     28  N   UNL     1       2.339   6.608  18.708  0.00  0.00    +0.000 NA
ATOM     29  C   UNL     1       2.034   6.814  19.976  0.00  0.00    +0.000 A 
ENDBRANCH  23  29
ENDBRANCH  19  23
ENDBRANCH   1  19
TORSDOF 5
ENDMDL
MODEL 5
REMARK VINA RESULT:      -7.3      8.856     12.650
REMARK  Name = 
REMARK  6 active torsions:
REMARK  status: ('A' for Active; 'I' for Inactive)
REMARK    1  A    between atoms: C_1  and  N_2
REMARK    2  A    between atoms: C_6  and  C_7
REMARK    3  A    between atoms: C_7  and  C_8
REMARK    4  A    between atoms: C_8  and  C_9
REMARK    5  A    between atoms: C_13  and  N_14
REMARK    6  A    between atoms: C_19  and  C_20
REMARK                            x       y       z     vdW  Elec       q    Type
REMARK                         _______ _______ _______ _____ _____    ______ ____
ROOT
ATOM      1  C   UNL     1       5.377   4.170  17.792  0.00  0.00    +0.000 A 
ATOM      2  C   UNL     1       5.807   4.349  19.123  0.00  0.00    +0.000 A 
ATOM      3  C   UNL     1       5.391   3.506  20.149  0.00  0.00    +0.000 A 
ATOM      4  C   UNL     1       4.426   2.542  19.899  0.00  0.00    +0.000 A 
ATOM      5  C   UNL     1       3.754   2.557  18.670  0.00  0.00    +0.000 A 
ATOM      6  C   UNL     1       4.333   3.245  17.596  0.00  0.00    +0.000 A 
ENDROOT
BRANCH   5   7
ATOM      7  N   UNL     1       2.306   2.327  18.630  0.00  0.00    +0.000 N 
ATOM      8  C   UNL     1       1.714   3.123  17.520  0.00  0.00    +0.000 C 
ATOM      9  C   UNL     1       1.477   4.437  18.200  0.00  0.00    +0.000 A 
ATOM     10  C   UNL     1       1.830   5.706  17.778  0.00  0.00    +0.000 A 
ATOM     11  C   UNL     1       1.971   6.702  18.752  0.00  0.00    +0.000 A 
ATOM     12  C   UNL     1       1.729   6.435  20.121  0.00  0.00    +0.000 A 
ATOM     13  C   UNL     1       1.309   5.159  20.522  0.00  0.00    +0.000 A 
ATOM     14  C   UNL     1       1.236   4.179  19.548  0.00  0.00    +0.000 A 
ATOM     15  C   UNL     1       1.595   2.757  19.784  0.00  0.00    +0.000 C 
ATOM     16  O   UNL     1       1.490   2.191  20.862  0.00  0.00    +0.000 OA
BRANCH  12  17
ATOM     17  C   UNL     1       2.051   7.458  21.178  0.00  0.00    +0.000 C 
ATOM     18  F   UNL     1       1.107   8.432  21.301  0.00  0.00    +0.000 F 
ENDBRANCH  12  17
ENDBRANCH   5   7
BRANCH   1  19
ATOM     19  C   UNL     1       6.060   4.948  16.570  0.00  0.00    +0.000 C 
ATOM     20  C   UNL     1       5.139   5.997  15.872  0.00  0.00    +0.000 C 
ATOM     21  O   UNL     1       6.080   7.062  16.109  0.00  0.00    +0.000 OA
ATOM     22  C   UNL     1       6.883   6.207  16.949  0.00  0.00    +0.000 C 
BRANCH  19  23
ATOM     23  C   UNL     1       6.712   4.040  15.509  0.00  0.00    +0.000 C 
BRANCH  23  29
ATOM     24  C   UNL     1       5.746   3.325  12.555  0.00  0.00    +0.000 C 
ATOM     25  N   UNL     1       6.710   4.315  12.953  0.00  0.00    +0.000 N 
ATOM     26  C   UNL     1       7.449   5.068  12.088  0.00  0.00    +0.000 A 
ATOM     27  N   UNL     1       8.277   5.827  12.762  0.00  0.00    +0.000 NA
ATOM     28  N   UNL     1       8.096   5.552  14.093  0.00  0.00    +0.000 NA
ATOM     29  C   UNL     1       7.126   4.666  14.218  0.00  0.00    +0.000 A 
ENDBRANCH  23  29
ENDBRANCH  19  23
ENDBRANCH   1  19
TORSDOF 5
ENDMDL
MODEL 6
REMARK VINA RESULT:      -7.3      6.260      9.103
REMARK  Name = 
REMARK  6 active torsions:
REMARK  status: ('A' for Active; 'I' for Inactive)
REMARK    1  A    between atoms: C_1  and  N_2
REMARK    2  A    between atoms: C_6  and  C_7
REMARK    3  A    between atoms: C_7  and  C_8
REMARK    4  A    between atoms: C_8  and  C_9
REMARK    5  A    between atoms: C_13  and  N_14
REMARK    6  A    between atoms: C_19  and  C_20
REMARK                            x       y       z     vdW  Elec       q    Type
REMARK                         _______ _______ _______ _____ _____    ______ ____
ROOT
ATOM      1  C   UNL     1       1.803   7.163  20.175  0.00  0.00    +0.000 A 
ATOM      2  C   UNL     1       1.516   5.985  20.896  0.00  0.00    +0.000 A 
ATOM      3  C   UNL     1       2.320   4.853  20.803  0.00  0.00    +0.000 A 
ATOM      4  C   UNL     1       3.356   4.818  19.882  0.00  0.00    +0.000 A 
ATOM      5  C   UNL     1       3.458   5.846  18.936  0.00  0.00    +0.000 A 
ATOM      6  C   UNL     1       2.802   7.057  19.187  0.00  0.00    +0.000 A 
ENDROOT
BRANCH   5   7
ATOM      7  N   UNL     1       3.781   5.523  17.543  0.00  0.00    +0.000 N 
ATOM      8  C   UNL     1       4.767   4.407  17.514  0.00  0.00    +0.000 C 
ATOM      9  C   UNL     1       6.058   5.159  17.629  0.00  0.00    +0.000 A 
ATOM     10  C   UNL     1       7.116   4.934  18.491  0.00  0.00    +0.000 A 
ATOM     11  C   UNL     1       7.965   6.011  18.777  0.00  0.00    +0.000 A 
ATOM     12  C   UNL     1       7.772   7.281  18.180  0.00  0.00    +0.000 A 
ATOM     13  C   UNL     1       6.733   7.472  17.260  0.00  0.00    +0.000 A 
ATOM     14  C   UNL     1       5.874   6.410  17.042  0.00  0.00    +0.000 A 
ATOM     15  C   UNL     1       4.414   6.566  16.812  0.00  0.00    +0.000 C 
ATOM     16  O   UNL     1       3.900   7.546  16.294  0.00  0.00    +0.000 OA
BRANCH  12  17
ATOM     17  C   UNL     1       8.578   8.474  18.624  0.00  0.00    +0.000 C 
ATOM     18  F   UNL     1       8.444   9.557  17.809  0.00  0.00    +0.000 F 
ENDBRANCH  12  17
ENDBRANCH   5   7
BRANCH   1  19
ATOM     19  C   UNL     1       1.059   8.547  20.484  0.00  0.00    +0.000 C 
ATOM     20  C   UNL     1      -0.129   8.435  21.489  0.00  0.00    +0.000 C 
ATOM     21  O   UNL     1       0.458   9.407  22.376  0.00  0.00    +0.000 OA
ATOM     22  C   UNL     1       1.682   9.409  21.613  0.00  0.00    +0.000 C 
BRANCH  19  23
ATOM     23  C   UNL     1       0.614   9.333  19.236  0.00  0.00    +0.000 C 
BRANCH  23  29
ATOM     24  C   UNL     1      -0.988  11.880  20.294  0.00  0.00    +0.000 C 
ATOM     25  N   UNL     1       0.268  11.856  19.593  0.00  0.00    +0.000 N 
ATOM     26  C   UNL     1       0.948  12.965  19.183  0.00  0.00    +0.000 A 
ATOM     27  N   UNL     1       2.018  12.605  18.521  0.00  0.00    +0.000 NA
ATOM     28  N   UNL     1       2.032  11.235  18.473  0.00  0.00    +0.000 NA
ATOM     29  C   UNL     1       0.996  10.774  19.150  0.00  0.00    +0.000 A 
ENDBRANCH  23  29
ENDBRANCH  19  23
ENDBRANCH   1  19
TORSDOF 5
ENDMDL
MODEL 7
REMARK VINA RESULT:      -7.3      6.102      9.687
REMARK  Name = 
REMARK  6 active torsions:
REMARK  status: ('A' for Active; 'I' for Inactive)
REMARK    1  A    between atoms: C_1  and  N_2
REMARK    2  A    between atoms: C_6  and  C_7
REMARK    3  A    between atoms: C_7  and  C_8
REMARK    4  A    between atoms: C_8  and  C_9
REMARK    5  A    between atoms: C_13  and  N_14
REMARK    6  A    between atoms: C_19  and  C_20
REMARK                            x       y       z     vdW  Elec       q    Type
REMARK                         _______ _______ _______ _____ _____    ______ ____
ROOT
ATOM      1  C   UNL     1       2.315   5.736  18.890  0.00  0.00    +0.000 A 
ATOM      2  C   UNL     1       2.160   6.618  17.801  0.00  0.00    +0.000 A 
ATOM      3  C   UNL     1       2.098   7.997  17.976  0.00  0.00    +0.000 A 
ATOM      4  C   UNL     1       2.052   8.528  19.256  0.00  0.00    +0.000 A 
ATOM      5  C   UNL     1       1.881   7.662  20.344  0.00  0.00    +0.000 A 
ATOM      6  C   UNL     1       2.171   6.303  20.173  0.00  0.00    +0.000 A 
ENDROOT
BRANCH   5   7
ATOM      7  N   UNL     1       0.968   8.031  21.430  0.00  0.00    +0.000 N 
ATOM      8  C   UNL     1      -0.406   8.200  20.880  0.00  0.00    +0.000 C 
ATOM      9  C   UNL     1      -0.367   9.631  20.438  0.00  0.00    +0.000 A 
ATOM     10  C   UNL     1      -0.738  10.170  19.219  0.00  0.00    +0.000 A 
ATOM     11  C   UNL     1      -0.167  11.394  18.847  0.00  0.00    +0.000 A 
ATOM     12  C   UNL     1       0.733  12.079  19.700  0.00  0.00    +0.000 A 
ATOM     13  C   UNL     1       1.046  11.548  20.958  0.00  0.00    +0.000 A 
ATOM     14  C   UNL     1       0.517  10.310  21.275  0.00  0.00    +0.000 A 
ATOM     15  C   UNL     1       1.247   9.278  22.055  0.00  0.00    +0.000 C 
ATOM     16  O   UNL     1       2.093   9.526  22.901  0.00  0.00    +0.000 OA
BRANCH  12  17
ATOM     17  C   UNL     1       1.474  13.300  19.222  0.00  0.00    +0.000 C 
ATOM     18  F   UNL     1       2.724  13.031  18.752  0.00  0.00    +0.000 F 
ENDBRANCH  12  17
ENDBRANCH   5   7
BRANCH   1  19
ATOM     19  C   UNL     1       2.666   4.187  18.683  0.00  0.00    +0.000 C 
ATOM     20  C   UNL     1       2.657   3.338  19.991  0.00  0.00    +0.000 C 
ATOM     21  O   UNL     1       1.679   2.425  19.456  0.00  0.00    +0.000 OA
ATOM     22  C   UNL     1       1.473   3.271  18.306  0.00  0.00    +0.000 C 
BRANCH  19  23
ATOM     23  C   UNL     1       3.964   3.920  17.897  0.00  0.00    +0.000 C 
BRANCH  23  29
ATOM     24  C   UNL     1       5.435   6.287  16.346  0.00  0.00    +0.000 C 
ATOM     25  N   UNL     1       5.816   5.677  17.592  0.00  0.00    +0.000 N 
ATOM     26  C   UNL     1       6.955   5.972  18.282  0.00  0.00    +0.000 A 
ATOM     27  N   UNL     1       7.041   5.203  19.338  0.00  0.00    +0.000 NA
ATOM     28  N   UNL     1       5.952   4.371  19.331  0.00  0.00    +0.000 NA
ATOM     29  C   UNL     1       5.188   4.676  18.298  0.00  0.00    +0.000 A 
ENDBRANCH  23  29
ENDBRANCH  19  23
ENDBRANCH   1  19
TORSDOF 5
ENDMDL
MODEL 8
REMARK VINA RESULT:      -7.0      6.443      9.038
REMARK  Name = 
REMARK  6 active torsions:
REMARK  status: ('A' for Active; 'I' for Inactive)
REMARK    1  A    between atoms: C_1  and  N_2
REMARK    2  A    between atoms: C_6  and  C_7
REMARK    3  A    between atoms: C_7  and  C_8
REMARK    4  A    between atoms: C_8  and  C_9
REMARK    5  A    between atoms: C_13  and  N_14
REMARK    6  A    between atoms: C_19  and  C_20
REMARK                            x       y       z     vdW  Elec       q    Type
REMARK                         _______ _______ _______ _____ _____    ______ ____
ROOT
ATOM      1  C   UNL     1       2.218   7.361  19.203  0.00  0.00    +0.000 A 
ATOM      2  C   UNL     1       1.723   6.347  20.049  0.00  0.00    +0.000 A 
ATOM      3  C   UNL     1       2.484   5.229  20.378  0.00  0.00    +0.000 A 
ATOM      4  C   UNL     1       3.710   5.025  19.763  0.00  0.00    +0.000 A 
ATOM      5  C   UNL     1       4.075   5.846  18.688  0.00  0.00    +0.000 A 
ATOM      6  C   UNL     1       3.422   7.074  18.529  0.00  0.00    +0.000 A 
ENDROOT
BRANCH   5   7
ATOM      7  N   UNL     1       4.713   5.256  17.507  0.00  0.00    +0.000 N 
ATOM      8  C   UNL     1       5.875   4.431  17.938  0.00  0.00    +0.000 C 
ATOM      9  C   UNL     1       6.959   5.464  17.996  0.00  0.00    +0.000 A 
ATOM     10  C   UNL     1       7.855   5.722  19.017  0.00  0.00    +0.000 A 
ATOM     11  C   UNL     1       8.419   7.002  19.083  0.00  0.00    +0.000 A 
ATOM     12  C   UNL     1       8.113   7.994  18.119  0.00  0.00    +0.000 A 
ATOM     13  C   UNL     1       7.252   7.694  17.055  0.00  0.00    +0.000 A 
ATOM     14  C   UNL     1       6.663   6.443  17.048  0.00  0.00    +0.000 A 
ATOM     15  C   UNL     1       5.271   6.192  16.592  0.00  0.00    +0.000 C 
ATOM     16  O   UNL     1       4.694   6.857  15.746  0.00  0.00    +0.000 OA
BRANCH  12  17
ATOM     17  C   UNL     1       8.584   9.414  18.295  0.00  0.00    +0.000 C 
ATOM     18  F   UNL     1       9.337   9.605  19.414  0.00  0.00    +0.000 F 
ENDBRANCH  12  17
ENDBRANCH   5   7
BRANCH   1  19
ATOM     19  C   UNL     1       1.473   8.769  19.045  0.00  0.00    +0.000 C 
ATOM     20  C   UNL     1       2.404   9.956  18.647  0.00  0.00    +0.000 C 
ATOM     21  O   UNL     1       1.621  10.248  17.473  0.00  0.00    +0.000 OA
ATOM     22  C   UNL     1       0.845   9.045  17.654  0.00  0.00    +0.000 C 
BRANCH  19  23
ATOM     23  C   UNL     1       0.596   9.174  20.246  0.00  0.00    +0.000 C 
BRANCH  23  29
ATOM     24  C   UNL     1      -1.441  11.326  19.066  0.00  0.00    +0.000 C 
ATOM     25  N   UNL     1      -0.386  11.540  20.020  0.00  0.00    +0.000 N 
ATOM     26  C   UNL     1      -0.028  12.758  20.520  0.00  0.00    +0.000 A 
ATOM     27  N   UNL     1       1.004  12.621  21.314  0.00  0.00    +0.000 NA
ATOM     28  N   UNL     1       1.346  11.294  21.320  0.00  0.00    +0.000 NA
ATOM     29  C   UNL     1       0.489  10.629  20.569  0.00  0.00    +0.000 A 
ENDBRANCH  23  29
ENDBRANCH  19  23
ENDBRANCH   1  19
TORSDOF 5
ENDMDL
MODEL 9
REMARK VINA RESULT:      -6.9      6.582      9.048
REMARK  Name = 
REMARK  6 active torsions:
REMARK  status: ('A' for Active; 'I' for Inactive)
REMARK    1  A    between atoms: C_1  and  N_2
REMARK    2  A    between atoms: C_6  and  C_7
REMARK    3  A    between atoms: C_7  and  C_8
REMARK    4  A    between atoms: C_8  and  C_9
REMARK    5  A    between atoms: C_13  and  N_14
REMARK    6  A    between atoms: C_19  and  C_20
REMARK                            x       y       z     vdW  Elec       q    Type
REMARK                         _______ _______ _______ _____ _____    ______ ____
ROOT
ATOM      1  C   UNL     1       1.768   8.156  19.667  0.00  0.00    +0.000 A 
ATOM      2  C   UNL     1       2.346   8.589  18.457  0.00  0.00    +0.000 A 
ATOM      3  C   UNL     1       2.752   7.690  17.474  0.00  0.00    +0.000 A 
ATOM      4  C   UNL     1       2.718   6.328  17.730  0.00  0.00    +0.000 A 
ATOM      5  C   UNL     1       2.453   5.889  19.034  0.00  0.00    +0.000 A 
ATOM      6  C   UNL     1       1.835   6.772  19.928  0.00  0.00    +0.000 A 
ENDROOT
BRANCH   5   7
ATOM      7  N   UNL     1       3.229   4.781  19.599  0.00  0.00    +0.000 N 
ATOM      8  C   UNL     1       4.612   5.248  19.890  0.00  0.00    +0.000 C 
ATOM      9  C   UNL     1       5.278   5.026  18.567  0.00  0.00    +0.000 A 
ATOM     10  C   UNL     1       6.054   5.903  17.830  0.00  0.00    +0.000 A 
ATOM     11  C   UNL     1       6.147   5.690  16.449  0.00  0.00    +0.000 A 
ATOM     12  C   UNL     1       5.499   4.596  15.825  0.00  0.00    +0.000 A 
ATOM     13  C   UNL     1       4.770   3.682  16.597  0.00  0.00    +0.000 A 
ATOM     14  C   UNL     1       4.644   3.949  17.949  0.00  0.00    +0.000 A 
ATOM     15  C   UNL     1       3.413   3.668  18.731  0.00  0.00    +0.000 C 
ATOM     16  O   UNL     1       2.625   2.771  18.475  0.00  0.00    +0.000 OA
BRANCH  12  17
ATOM     17  C   UNL     1       5.459   4.475  14.325  0.00  0.00    +0.000 C 
ATOM     18  F   UNL     1       6.323   3.546  13.829  0.00  0.00    +0.000 F 
ENDBRANCH  12  17
ENDBRANCH   5   7
BRANCH   1  19
ATOM     19  C   UNL     1       1.047   9.173  20.672  0.00  0.00    +0.000 C 
ATOM     20  C   UNL     1      -0.284   8.643  21.289  0.00  0.00    +0.000 C 
ATOM     21  O   UNL     1       0.203   8.822  22.633  0.00  0.00    +0.000 OA
ATOM     22  C   UNL     1       1.528   9.118  22.146  0.00  0.00    +0.000 C 
BRANCH  19  23
ATOM     23  C   UNL     1       0.832  10.592  20.111  0.00  0.00    +0.000 C 
BRANCH  23  29
ATOM     24  C   UNL     1      -1.747  12.248  20.994  0.00  0.00    +0.000 C 
ATOM     25  N   UNL     1      -1.528  11.549  19.756  0.00  0.00    +0.000 N 
ATOM     26  C   UNL     1      -2.460  11.411  18.769  0.00  0.00    +0.000 A 
ATOM     27  N   UNL     1      -1.973  10.670  17.805  0.00  0.00    +0.000 NA
ATOM     28  N   UNL     1      -0.707  10.295  18.174  0.00  0.00    +0.000 NA
ATOM     29  C   UNL     1      -0.418  10.851  19.335  0.00  0.00    +0.000 A 
ENDBRANCH  23  29
ENDBRANCH  19  23
ENDBRANCH   1  19
TORSDOF 5
ENDMDL
