MODEL 1
REMARK VINA RESULT:      -9.5      0.000      0.000
REMARK  Name = 
REMARK  6 active torsions:
REMARK  status: ('A' for Active; 'I' for Inactive)
REMARK    1  A    between atoms: C_1  and  C_2
REMARK    2  A    between atoms: N_4  and  C_5
REMARK    3  A    between atoms: C_14  and  C_15
REMARK    4  A    between atoms: C_15  and  C_16
REMARK    5  A    between atoms: C_16  and  C_17
REMARK    6  A    between atoms: N_19  and  C_20
REMARK                            x       y       z     vdW  Elec       q    Type
REMARK                         _______ _______ _______ _____ _____    ______ ____
ROOT
ATOM      1  C   UNL     1       2.553   4.090  21.683  0.00  0.00    +0.000 C 
ENDROOT
BRANCH   1   2
ATOM      2  C   UNL     1       1.843   5.116  20.827  0.00  0.00    +0.000 C 
ATOM      3  O   UNL     1       0.684   4.984  20.454  0.00  0.00    +0.000 OA
ATOM      4  N   UNL     1       2.669   6.182  20.508  0.00  0.00    +0.000 N 
ATOM      5  H   UNL     1       3.666   6.018  20.563  0.00  0.00    +0.000 HD
BRANCH   4   6
ATOM      6  C   UNL     1       2.235   7.285  19.743  0.00  0.00    +0.000 A 
ATOM      7  C   UNL     1       2.495   7.314  18.364  0.00  0.00    +0.000 A 
ATOM      8  C   UNL     1       2.014   8.354  17.569  0.00  0.00    +0.000 A 
ATOM      9  C   UNL     1       1.281   9.385  18.149  0.00  0.00    +0.000 A 
ATOM     10  C   UNL     1       1.035   9.371  19.527  0.00  0.00    +0.000 A 
ATOM     11  C   UNL     1       0.284  10.495  20.147  0.00  0.00    +0.000 A 
ATOM     12  O   UNL     1      -0.174  11.417  19.480  0.00  0.00    +0.000 OA
ATOM     13  N   UNL     1       0.135  10.453  21.513  0.00  0.00    +0.000 N 
ATOM     14  C   UNL     1       0.640   9.464  22.315  0.00  0.00    +0.000 A 
ATOM     15  C   UNL     1       1.300   8.423  21.800  0.00  0.00    +0.000 A 
ATOM     16  C   UNL     1       1.503   8.325  20.344  0.00  0.00    +0.000 A 
ATOM     17  H   UNL     1      -0.356  11.237  21.923  0.00  0.00    +0.000 HD
ENDBRANCH   4   6
ENDBRANCH   1   2
BRANCH   1  18
ATOM     18  C   UNL     1       2.821   2.800  20.903  0.00  0.00    +0.000 C 
BRANCH  18  25
ATOM     19  C   UNL     1       0.910   2.232  18.333  0.00  0.00    +0.000 C 
ATOM     20  C   UNL     1       2.256   2.872  18.370  0.00  0.00    +0.000 A 
ATOM     21  N   UNL     1       2.877   3.282  17.195  0.00  0.00    +0.000 N 
ATOM     22  N   UNL     1       4.189   3.629  17.548  0.00  0.00    +0.000 N 
ATOM     23  C   UNL     1       4.339   3.525  18.926  0.00  0.00    +0.000 A 
ATOM     24  O   UNL     1       5.305   3.752  19.636  0.00  0.00    +0.000 OA
ATOM     25  C   UNL     1       3.029   3.057  19.455  0.00  0.00    +0.000 A 
ATOM     26  H   UNL     1       2.831   2.567  16.468  0.00  0.00    +0.000 HD
BRANCH  22  27
ATOM     27  C   UNL     1       5.124   4.057  16.587  0.00  0.00    +0.000 A 
ATOM     28  C   UNL     1       5.003   3.663  15.245  0.00  0.00    +0.000 A 
ATOM     29  C   UNL     1       5.931   4.078  14.289  0.00  0.00    +0.000 A 
ATOM     30  C   UNL     1       6.993   4.882  14.673  0.00  0.00    +0.000 A 
ATOM     31  F   UNL     1       7.891   5.273  13.760  0.00  0.00    +0.000 F 
ATOM     32  C   UNL     1       7.139   5.285  15.995  0.00  0.00    +0.000 A 
ATOM     33  C   UNL     1       6.202   4.879  16.949  0.00  0.00    +0.000 A 
ENDBRANCH  22  27
ENDBRANCH  18  25
ENDBRANCH   1  18
TORSDOF 5
ENDMDL
MODEL 2
REMARK VINA RESULT:      -9.3      6.709      8.270
REMARK  Name = 
REMARK  6 active torsions:
REMARK  status: ('A' for Active; 'I' for Inactive)
REMARK    1  A    between atoms: C_1  and  C_2
REMARK    2  A    between atoms: N_4  and  C_5
REMARK    3  A    between atoms: C_14  and  C_15
REMARK    4  A    between atoms: C_15  and  C_16
REMARK    5  A    between atoms: C_16  and  C_17
REMARK    6  A    between atoms: N_19  and  C_20
REMARK                            x       y       z     vdW  Elec       q    Type
REMARK                         _______ _______ _______ _____ _____    ______ ____
ROOT
ATOM      1  C   UNL     1       8.425   8.114  18.044  0.00  0.00    +0.000 C 
ENDROOT
BRANCH   1   2
ATOM      2  C   UNL     1       8.505   9.577  18.419  0.00  0.00    +0.000 C 
ATOM      3  O   UNL     1       7.873  10.450  17.836  0.00  0.00    +0.000 OA
ATOM      4  N   UNL     1       9.386   9.793  19.466  0.00  0.00    +0.000 N 
ATOM      5  H   UNL     1      10.090   9.084  19.622  0.00  0.00    +0.000 HD
BRANCH   4   6
ATOM      6  C   UNL     1       9.617  11.069  20.022  0.00  0.00    +0.000 A 
ATOM      7  C   UNL     1       8.964  11.431  21.211  0.00  0.00    +0.000 A 
ATOM      8  C   UNL     1       9.228  12.655  21.825  0.00  0.00    +0.000 A 
ATOM      9  C   UNL     1      10.138  13.537  21.247  0.00  0.00    +0.000 A 
ATOM     10  C   UNL     1      10.776  13.189  20.051  0.00  0.00    +0.000 A 
ATOM     11  C   UNL     1      11.717  14.151  19.418  0.00  0.00    +0.000 A 
ATOM     12  O   UNL     1      11.993  15.227  19.937  0.00  0.00    +0.000 OA
ATOM     13  N   UNL     1      12.259  13.775  18.212  0.00  0.00    +0.000 N 
ATOM     14  C   UNL     1      11.976  12.598  17.572  0.00  0.00    +0.000 A 
ATOM     15  C   UNL     1      11.155  11.692  18.114  0.00  0.00    +0.000 A 
ATOM     16  C   UNL     1      10.531  11.954  19.421  0.00  0.00    +0.000 A 
ATOM     17  H   UNL     1      12.878  14.450  17.781  0.00  0.00    +0.000 HD
ENDBRANCH   4   6
ENDBRANCH   1   2
BRANCH   1  18
ATOM     18  C   UNL     1       7.080   7.776  17.395  0.00  0.00    +0.000 C 
BRANCH  18  25
ATOM     19  C   UNL     1       8.275   5.499  19.386  0.00  0.00    +0.000 C 
ATOM     20  C   UNL     1       6.881   5.654  18.878  0.00  0.00    +0.000 A 
ATOM     21  N   UNL     1       5.898   4.731  19.216  0.00  0.00    +0.000 N 
ATOM     22  N   UNL     1       4.787   5.034  18.416  0.00  0.00    +0.000 N 
ATOM     23  C   UNL     1       5.052   6.178  17.673  0.00  0.00    +0.000 A 
ATOM     24  O   UNL     1       4.354   6.783  16.877  0.00  0.00    +0.000 OA
ATOM     25  C   UNL     1       6.437   6.594  18.026  0.00  0.00    +0.000 A 
ATOM     26  H   UNL     1       6.222   3.769  19.109  0.00  0.00    +0.000 HD
BRANCH  22  27
ATOM     27  C   UNL     1       3.608   4.267  18.468  0.00  0.00    +0.000 A 
ATOM     28  C   UNL     1       3.483   3.094  17.707  0.00  0.00    +0.000 A 
ATOM     29  C   UNL     1       2.313   2.333  17.750  0.00  0.00    +0.000 A 
ATOM     30  C   UNL     1       1.257   2.749  18.546  0.00  0.00    +0.000 A 
ATOM     31  F   UNL     1       0.130   2.027  18.581  0.00  0.00    +0.000 F 
ATOM     32  C   UNL     1       1.353   3.907  19.308  0.00  0.00    +0.000 A 
ATOM     33  C   UNL     1       2.530   4.661  19.275  0.00  0.00    +0.000 A 
ENDBRANCH  22  27
ENDBRANCH  18  25
ENDBRANCH   1  18
TORSDOF 5
ENDMDL
MODEL 3
REMARK VINA RESULT:      -9.0      6.083      7.539
REMARK  Name = 
REMARK  6 active torsions:
REMARK  status: ('A' for Active; 'I' for Inactive)
REMARK    1  A    between atoms: C_1  and  C_2
REMARK    2  A    between atoms: N_4  and  C_5
REMARK    3  A    between atoms: C_14  and  C_15
REMARK    4  A    between atoms: C_15  and  C_16
REMARK    5  A    between atoms: C_16  and  C_17
REMARK    6  A    between atoms: N_19  and  C_20
REMARK                            x       y       z     vdW  Elec       q    Type
REMARK                         _______ _______ _______ _____ _____    ______ ____
ROOT
ATOM      1  C   UNL     1       8.123   7.374  18.689  0.00  0.00    +0.000 C 
ENDROOT
BRANCH   1   2
ATOM      2  C   UNL     1       8.303   8.837  18.349  0.00  0.00    +0.000 C 
ATOM      3  O   UNL     1       7.650   9.405  17.482  0.00  0.00    +0.000 OA
ATOM      4  N   UNL     1       9.299   9.425  19.113  0.00  0.00    +0.000 N 
ATOM      5  H   UNL     1       9.985   8.804  19.521  0.00  0.00    +0.000 HD
BRANCH   4   6
ATOM      6  C   UNL     1       9.640  10.790  19.008  0.00  0.00    +0.000 A 
ATOM      7  C   UNL     1      10.190  11.273  17.810  0.00  0.00    +0.000 A 
ATOM      8  C   UNL     1      10.469  12.631  17.651  0.00  0.00    +0.000 A 
ATOM      9  C   UNL     1      10.212  13.516  18.693  0.00  0.00    +0.000 A 
ATOM     10  C   UNL     1       9.682  13.037  19.896  0.00  0.00    +0.000 A 
ATOM     11  C   UNL     1       9.447  13.981  21.020  0.00  0.00    +0.000 A 
ATOM     12  O   UNL     1       9.657  15.185  20.912  0.00  0.00    +0.000 OA
ATOM     13  N   UNL     1       8.987  13.435  22.195  0.00  0.00    +0.000 N 
ATOM     14  C   UNL     1       8.752  12.099  22.385  0.00  0.00    +0.000 A 
ATOM     15  C   UNL     1       8.926  11.216  21.397  0.00  0.00    +0.000 A 
ATOM     16  C   UNL     1       9.385  11.672  20.074  0.00  0.00    +0.000 A 
ATOM     17  H   UNL     1       8.855  14.086  22.958  0.00  0.00    +0.000 HD
ENDBRANCH   4   6
ENDBRANCH   1   2
BRANCH   1  18
ATOM     18  C   UNL     1       7.668   6.569  17.468  0.00  0.00    +0.000 C 
BRANCH  18  25
ATOM     19  C   UNL     1       5.062   6.879  15.548  0.00  0.00    +0.000 C 
ATOM     20  C   UNL     1       5.187   6.139  16.837  0.00  0.00    +0.000 A 
ATOM     21  N   UNL     1       4.088   5.494  17.392  0.00  0.00    +0.000 N 
ATOM     22  N   UNL     1       4.477   5.097  18.679  0.00  0.00    +0.000 N 
ATOM     23  C   UNL     1       5.818   5.408  18.871  0.00  0.00    +0.000 A 
ATOM     24  O   UNL     1       6.544   5.216  19.832  0.00  0.00    +0.000 OA
ATOM     25  C   UNL     1       6.279   6.066  17.618  0.00  0.00    +0.000 A 
ATOM     26  H   UNL     1       3.254   6.084  17.387  0.00  0.00    +0.000 HD
BRANCH  22  27
ATOM     27  C   UNL     1       3.588   4.441  19.551  0.00  0.00    +0.000 A 
ATOM     28  C   UNL     1       2.427   5.085  20.007  0.00  0.00    +0.000 A 
ATOM     29  C   UNL     1       1.545   4.442  20.877  0.00  0.00    +0.000 A 
ATOM     30  C   UNL     1       1.826   3.154  21.305  0.00  0.00    +0.000 A 
ATOM     31  F   UNL     1       0.988   2.539  22.148  0.00  0.00    +0.000 F 
ATOM     32  C   UNL     1       2.970   2.494  20.871  0.00  0.00    +0.000 A 
ATOM     33  C   UNL     1       3.845   3.133  19.990  0.00  0.00    +0.000 A 
ENDBRANCH  22  27
ENDBRANCH  18  25
ENDBRANCH   1  18
TORSDOF 5
ENDMDL
MODEL 4
REMARK VINA RESULT:      -8.9      6.387      7.908
REMARK  Name = 
REMARK  6 active torsions:
REMARK  status: ('A' for Active; 'I' for Inactive)
REMARK    1  A    between atoms: C_1  and  C_2
REMARK    2  A    between atoms: N_4  and  C_5
REMARK    3  A    between atoms: C_14  and  C_15
REMARK    4  A    between atoms: C_15  and  C_16
REMARK    5  A    between atoms: C_16  and  C_17
REMARK    6  A    between atoms: N_19  and  C_20
REMARK                            x       y       z     vdW  Elec       q    Type
REMARK                         _______ _______ _______ _____ _____    ______ ____
ROOT
ATOM      1  C   UNL     1       7.231   8.670  17.454  0.00  0.00    +0.000 C 
ENDROOT
BRANCH   1   2
ATOM      2  C   UNL     1       8.328   9.439  18.158  0.00  0.00    +0.000 C 
ATOM      3  O   UNL     1       9.035   8.944  19.027  0.00  0.00    +0.000 OA
ATOM      4  N   UNL     1       8.402  10.750  17.717  0.00  0.00    +0.000 N 
ATOM      5  H   UNL     1       7.574  11.132  17.280  0.00  0.00    +0.000 HD
BRANCH   4   6
ATOM      6  C   UNL     1       9.362  11.666  18.197  0.00  0.00    +0.000 A 
ATOM      7  C   UNL     1      10.597  11.190  18.664  0.00  0.00    +0.000 A 
ATOM      8  C   UNL     1      11.594  12.075  19.075  0.00  0.00    +0.000 A 
ATOM      9  C   UNL     1      11.359  13.447  19.036  0.00  0.00    +0.000 A 
ATOM     10  C   UNL     1      10.122  13.926  18.590  0.00  0.00    +0.000 A 
ATOM     11  C   UNL     1       9.863  15.391  18.588  0.00  0.00    +0.000 A 
ATOM     12  O   UNL     1      10.721  16.202  18.920  0.00  0.00    +0.000 OA
ATOM     13  N   UNL     1       8.606  15.791  18.201  0.00  0.00    +0.000 N 
ATOM     14  C   UNL     1       7.601  14.934  17.839  0.00  0.00    +0.000 A 
ATOM     15  C   UNL     1       7.794  13.612  17.803  0.00  0.00    +0.000 A 
ATOM     16  C   UNL     1       9.107  13.050  18.162  0.00  0.00    +0.000 A 
ATOM     17  H   UNL     1       8.437  16.788  18.229  0.00  0.00    +0.000 HD
ENDBRANCH   4   6
ENDBRANCH   1   2
BRANCH   1  18
ATOM     18  C   UNL     1       7.644   7.219  17.195  0.00  0.00    +0.000 C 
BRANCH  18  25
ATOM     19  C   UNL     1       8.260   5.613  19.955  0.00  0.00    +0.000 C 
ATOM     20  C   UNL     1       7.019   5.602  19.128  0.00  0.00    +0.000 A 
ATOM     21  N   UNL     1       5.939   4.802  19.483  0.00  0.00    +0.000 N 
ATOM     22  N   UNL     1       5.044   4.853  18.405  0.00  0.00    +0.000 N 
ATOM     23  C   UNL     1       5.523   5.743  17.450  0.00  0.00    +0.000 A 
ATOM     24  O   UNL     1       5.046   6.089  16.383  0.00  0.00    +0.000 OA
ATOM     25  C   UNL     1       6.819   6.257  17.971  0.00  0.00    +0.000 A 
ATOM     26  H   UNL     1       6.228   3.853  19.723  0.00  0.00    +0.000 HD
BRANCH  22  27
ATOM     27  C   UNL     1       3.844   4.119  18.406  0.00  0.00    +0.000 A 
ATOM     28  C   UNL     1       2.604   4.773  18.340  0.00  0.00    +0.000 A 
ATOM     29  C   UNL     1       1.410   4.050  18.349  0.00  0.00    +0.000 A 
ATOM     30  C   UNL     1       1.450   2.667  18.434  0.00  0.00    +0.000 A 
ATOM     31  F   UNL     1       0.306   1.972  18.453  0.00  0.00    +0.000 F 
ATOM     32  C   UNL     1       2.663   1.994  18.502  0.00  0.00    +0.000 A 
ATOM     33  C   UNL     1       3.859   2.717  18.481  0.00  0.00    +0.000 A 
ENDBRANCH  22  27
ENDBRANCH  18  25
ENDBRANCH   1  18
TORSDOF 5
ENDMDL
MODEL 5
REMARK VINA RESULT:      -8.8      6.191      7.812
REMARK  Name = 
REMARK  6 active torsions:
REMARK  status: ('A' for Active; 'I' for Inactive)
REMARK    1  A    between atoms: C_1  and  C_2
REMARK    2  A    between atoms: N_4  and  C_5
REMARK    3  A    between atoms: C_14  and  C_15
REMARK    4  A    between atoms: C_15  and  C_16
REMARK    5  A    between atoms: C_16  and  C_17
REMARK    6  A    between atoms: N_19  and  C_20
REMARK                            x       y       z     vdW  Elec       q    Type
REMARK                         _______ _______ _______ _____ _____    ______ ____
ROOT
ATOM      1  C   UNL     1       7.541   8.222  17.217  0.00  0.00    +0.000 C 
ENDROOT
BRANCH   1   2
ATOM      2  C   UNL     1       8.387   9.051  18.158  0.00  0.00    +0.000 C 
ATOM      3  O   UNL     1       8.898   8.592  19.173  0.00  0.00    +0.000 OA
ATOM      4  N   UNL     1       8.481  10.369  17.742  0.00  0.00    +0.000 N 
ATOM      5  H   UNL     1       7.757  10.702  17.119  0.00  0.00    +0.000 HD
BRANCH   4   6
ATOM      6  C   UNL     1       9.239  11.338  18.432  0.00  0.00    +0.000 A 
ATOM      7  C   UNL     1      10.340  10.933  19.203  0.00  0.00    +0.000 A 
ATOM      8  C   UNL     1      11.152  11.873  19.836  0.00  0.00    +0.000 A 
ATOM      9  C   UNL     1      10.862  13.229  19.716  0.00  0.00    +0.000 A 
ATOM     10  C   UNL     1       9.754  13.638  18.965  0.00  0.00    +0.000 A 
ATOM     11  C   UNL     1       9.426  15.086  18.873  0.00  0.00    +0.000 A 
ATOM     12  O   UNL     1      10.128  15.945  19.397  0.00  0.00    +0.000 OA
ATOM     13  N   UNL     1       8.288  15.414  18.176  0.00  0.00    +0.000 N 
ATOM     14  C   UNL     1       7.453  14.502  17.587  0.00  0.00    +0.000 A 
ATOM     15  C   UNL     1       7.720  13.192  17.623  0.00  0.00    +0.000 A 
ATOM     16  C   UNL     1       8.928  12.705  18.311  0.00  0.00    +0.000 A 
ATOM     17  H   UNL     1       8.065  16.400  18.143  0.00  0.00    +0.000 HD
ENDBRANCH   4   6
ENDBRANCH   1   2
BRANCH   1  18
ATOM     18  C   UNL     1       7.620   6.732  17.559  0.00  0.00    +0.000 C 
BRANCH  18  25
ATOM     19  C   UNL     1       5.104   6.683  15.498  0.00  0.00    +0.000 C 
ATOM     20  C   UNL     1       5.224   6.038  16.838  0.00  0.00    +0.000 A 
ATOM     21  N   UNL     1       4.158   5.330  17.380  0.00  0.00    +0.000 N 
ATOM     22  N   UNL     1       4.510   5.050  18.708  0.00  0.00    +0.000 N 
ATOM     23  C   UNL     1       5.807   5.494  18.944  0.00  0.00    +0.000 A 
ATOM     24  O   UNL     1       6.494   5.429  19.950  0.00  0.00    +0.000 OA
ATOM     25  C   UNL     1       6.274   6.113  17.674  0.00  0.00    +0.000 A 
ATOM     26  H   UNL     1       3.277   5.840  17.296  0.00  0.00    +0.000 HD
BRANCH  22  27
ATOM     27  C   UNL     1       3.637   4.370  19.577  0.00  0.00    +0.000 A 
ATOM     28  C   UNL     1       3.930   3.070  20.015  0.00  0.00    +0.000 A 
ATOM     29  C   UNL     1       3.063   2.388  20.870  0.00  0.00    +0.000 A 
ATOM     30  C   UNL     1       1.891   3.001  21.284  0.00  0.00    +0.000 A 
ATOM     31  F   UNL     1       1.052   2.346  22.096  0.00  0.00    +0.000 F 
ATOM     32  C   UNL     1       1.574   4.287  20.864  0.00  0.00    +0.000 A 
ATOM     33  C   UNL     1       2.448   4.973  20.017  0.00  0.00    +0.000 A 
ENDBRANCH  22  27
ENDBRANCH  18  25
ENDBRANCH   1  18
TORSDOF 5
ENDMDL
MODEL 6
REMARK VINA RESULT:      -8.7      6.561      7.833
REMARK  Name = 
REMARK  6 active torsions:
REMARK  status: ('A' for Active; 'I' for Inactive)
REMARK    1  A    between atoms: C_1  and  C_2
REMARK    2  A    between atoms: N_4  and  C_5
REMARK    3  A    between atoms: C_14  and  C_15
REMARK    4  A    between atoms: C_15  and  C_16
REMARK    5  A    between atoms: C_16  and  C_17
REMARK    6  A    between atoms: N_19  and  C_20
REMARK                            x       y       z     vdW  Elec       q    Type
REMARK                         _______ _______ _______ _____ _____    ______ ____
ROOT
ATOM      1  C   UNL     1       8.410   8.220  18.483  0.00  0.00    +0.000 C 
ENDROOT
BRANCH   1   2
ATOM      2  C   UNL     1       8.595   9.706  18.263  0.00  0.00    +0.000 C 
ATOM      3  O   UNL     1       7.841  10.375  17.566  0.00  0.00    +0.000 OA
ATOM      4  N   UNL     1       9.718  10.187  18.915  0.00  0.00    +0.000 N 
ATOM      5  H   UNL     1      10.433   9.511  19.150  0.00  0.00    +0.000 HD
BRANCH   4   6
ATOM      6  C   UNL     1      10.095  11.547  18.890  0.00  0.00    +0.000 A 
ATOM      7  C   UNL     1      10.688  12.077  17.734  0.00  0.00    +0.000 A 
ATOM      8  C   UNL     1      11.003  13.434  17.652  0.00  0.00    +0.000 A 
ATOM      9  C   UNL     1      10.740  14.271  18.733  0.00  0.00    +0.000 A 
ATOM     10  C   UNL     1      10.167  13.743  19.896  0.00  0.00    +0.000 A 
ATOM     11  C   UNL     1       9.926  14.634  21.062  0.00  0.00    +0.000 A 
ATOM     12  O   UNL     1      10.168  15.836  21.022  0.00  0.00    +0.000 OA
ATOM     13  N   UNL     1       9.422  14.039  22.194  0.00  0.00    +0.000 N 
ATOM     14  C   UNL     1       9.151  12.702  22.308  0.00  0.00    +0.000 A 
ATOM     15  C   UNL     1       9.329  11.867  21.280  0.00  0.00    +0.000 A 
ATOM     16  C   UNL     1       9.834  12.379  19.994  0.00  0.00    +0.000 A 
ATOM     17  H   UNL     1       9.286  14.653  22.987  0.00  0.00    +0.000 HD
ENDBRANCH   4   6
ENDBRANCH   1   2
BRANCH   1  18
ATOM     18  C   UNL     1       7.355   7.642  17.536  0.00  0.00    +0.000 C 
BRANCH  18  25
ATOM     19  C   UNL     1       8.415   5.281  19.505  0.00  0.00    +0.000 C 
ATOM     20  C   UNL     1       7.040   5.501  18.971  0.00  0.00    +0.000 A 
ATOM     21  N   UNL     1       6.014   4.612  19.268  0.00  0.00    +0.000 N 
ATOM     22  N   UNL     1       4.934   4.973  18.451  0.00  0.00    +0.000 N 
ATOM     23  C   UNL     1       5.261   6.121  17.738  0.00  0.00    +0.000 A 
ATOM     24  O   UNL     1       4.604   6.769  16.939  0.00  0.00    +0.000 OA
ATOM     25  C   UNL     1       6.653   6.475  18.129  0.00  0.00    +0.000 A 
ATOM     26  H   UNL     1       6.303   3.640  19.148  0.00  0.00    +0.000 HD
BRANCH  22  27
ATOM     27  C   UNL     1       3.726   4.253  18.462  0.00  0.00    +0.000 A 
ATOM     28  C   UNL     1       3.611   3.035  17.774  0.00  0.00    +0.000 A 
ATOM     29  C   UNL     1       2.412   2.320  17.776  0.00  0.00    +0.000 A 
ATOM     30  C   UNL     1       1.317   2.826  18.458  0.00  0.00    +0.000 A 
ATOM     31  F   UNL     1       0.163   2.148  18.453  0.00  0.00    +0.000 F 
ATOM     32  C   UNL     1       1.401   4.030  19.145  0.00  0.00    +0.000 A 
ATOM     33  C   UNL     1       2.605   4.739  19.154  0.00  0.00    +0.000 A 
ENDBRANCH  22  27
ENDBRANCH  18  25
ENDBRANCH   1  18
TORSDOF 5
ENDMDL
MODEL 7
REMARK VINA RESULT:      -8.7      6.381      7.797
REMARK  Name = 
REMARK  6 active torsions:
REMARK  status: ('A' for Active; 'I' for Inactive)
REMARK    1  A    between atoms: C_1  and  C_2
REMARK    2  A    between atoms: N_4  and  C_5
REMARK    3  A    between atoms: C_14  and  C_15
REMARK    4  A    between atoms: C_15  and  C_16
REMARK    5  A    between atoms: C_16  and  C_17
REMARK    6  A    between atoms: N_19  and  C_20
REMARK                            x       y       z     vdW  Elec       q    Type
REMARK                         _______ _______ _______ _____ _____    ______ ____
ROOT
ATOM      1  C   UNL     1       8.193   7.945  18.439  0.00  0.00    +0.000 C 
ENDROOT
BRANCH   1   2
ATOM      2  C   UNL     1       8.460   9.423  18.250  0.00  0.00    +0.000 C 
ATOM      3  O   UNL     1       7.778  10.135  17.523  0.00  0.00    +0.000 OA
ATOM      4  N   UNL     1       9.567   9.842  18.969  0.00  0.00    +0.000 N 
ATOM      5  H   UNL     1      10.236   9.130  19.233  0.00  0.00    +0.000 HD
BRANCH   4   6
ATOM      6  C   UNL     1      10.008  11.182  18.984  0.00  0.00    +0.000 A 
ATOM      7  C   UNL     1      10.698  11.695  17.874  0.00  0.00    +0.000 A 
ATOM      8  C   UNL     1      11.081  13.035  17.829  0.00  0.00    +0.000 A 
ATOM      9  C   UNL     1      10.790  13.874  18.901  0.00  0.00    +0.000 A 
ATOM     10  C   UNL     1      10.120  13.363  20.019  0.00  0.00    +0.000 A 
ATOM     11  C   UNL     1       9.847  14.254  21.178  0.00  0.00    +0.000 A 
ATOM     12  O   UNL     1      10.147  15.444  21.168  0.00  0.00    +0.000 OA
ATOM     13  N   UNL     1       9.245  13.674  22.269  0.00  0.00    +0.000 N 
ATOM     14  C   UNL     1       8.904  12.350  22.350  0.00  0.00    +0.000 A 
ATOM     15  C   UNL     1       9.108  11.517  21.325  0.00  0.00    +0.000 A 
ATOM     16  C   UNL     1       9.717  12.016  20.080  0.00  0.00    +0.000 A 
ATOM     17  H   UNL     1       9.088  14.287  23.059  0.00  0.00    +0.000 HD
ENDBRANCH   4   6
ENDBRANCH   1   2
BRANCH   1  18
ATOM     18  C   UNL     1       7.204   7.419  17.395  0.00  0.00    +0.000 C 
BRANCH  18  25
ATOM     19  C   UNL     1       8.291   4.397  17.916  0.00  0.00    +0.000 C 
ATOM     20  C   UNL     1       6.918   4.942  18.122  0.00  0.00    +0.000 A 
ATOM     21  N   UNL     1       5.887   4.117  18.557  0.00  0.00    +0.000 N 
ATOM     22  N   UNL     1       4.708   4.868  18.436  0.00  0.00    +0.000 N 
ATOM     23  C   UNL     1       5.024   6.158  18.026  0.00  0.00    +0.000 A 
ATOM     24  O   UNL     1       4.304   7.121  17.821  0.00  0.00    +0.000 OA
ATOM     25  C   UNL     1       6.503   6.194  17.860  0.00  0.00    +0.000 A 
ATOM     26  H   UNL     1       5.858   3.236  18.043  0.00  0.00    +0.000 HD
BRANCH  22  27
ATOM     27  C   UNL     1       3.451   4.324  18.757  0.00  0.00    +0.000 A 
ATOM     28  C   UNL     1       2.951   4.398  20.066  0.00  0.00    +0.000 A 
ATOM     29  C   UNL     1       1.707   3.854  20.391  0.00  0.00    +0.000 A 
ATOM     30  C   UNL     1       0.960   3.223  19.408  0.00  0.00    +0.000 A 
ATOM     31  F   UNL     1      -0.228   2.692  19.720  0.00  0.00    +0.000 F 
ATOM     32  C   UNL     1       1.432   3.134  18.105  0.00  0.00    +0.000 A 
ATOM     33  C   UNL     1       2.671   3.690  17.777  0.00  0.00    +0.000 A 
ENDBRANCH  22  27
ENDBRANCH  18  25
ENDBRANCH   1  18
TORSDOF 5
ENDMDL
MODEL 8
REMARK VINA RESULT:      -8.5      3.788      8.590
REMARK  Name = 
REMARK  6 active torsions:
REMARK  status: ('A' for Active; 'I' for Inactive)
REMARK    1  A    between atoms: C_1  and  C_2
REMARK    2  A    between atoms: N_4  and  C_5
REMARK    3  A    between atoms: C_14  and  C_15
REMARK    4  A    between atoms: C_15  and  C_16
REMARK    5  A    between atoms: C_16  and  C_17
REMARK    6  A    between atoms: N_19  and  C_20
REMARK                            x       y       z     vdW  Elec       q    Type
REMARK                         _______ _______ _______ _____ _____    ______ ____
ROOT
ATOM      1  C   UNL     1       1.170   8.424  21.121  0.00  0.00    +0.000 C 
ENDROOT
BRANCH   1   2
ATOM      2  C   UNL     1       1.915   7.617  20.081  0.00  0.00    +0.000 C 
ATOM      3  O   UNL     1       2.039   7.982  18.918  0.00  0.00    +0.000 OA
ATOM      4  N   UNL     1       2.401   6.429  20.601  0.00  0.00    +0.000 N 
ATOM      5  H   UNL     1       1.950   6.080  21.437  0.00  0.00    +0.000 HD
BRANCH   4   6
ATOM      6  C   UNL     1       3.157   5.512  19.841  0.00  0.00    +0.000 A 
ATOM      7  C   UNL     1       4.451   5.863  19.425  0.00  0.00    +0.000 A 
ATOM      8  C   UNL     1       5.251   4.950  18.737  0.00  0.00    +0.000 A 
ATOM      9  C   UNL     1       4.758   3.682  18.445  0.00  0.00    +0.000 A 
ATOM     10  C   UNL     1       3.462   3.333  18.841  0.00  0.00    +0.000 A 
ATOM     11  C   UNL     1       2.926   1.990  18.493  0.00  0.00    +0.000 A 
ATOM     12  O   UNL     1       3.606   1.152  17.909  0.00  0.00    +0.000 OA
ATOM     13  N   UNL     1       1.624   1.736  18.853  0.00  0.00    +0.000 N 
ATOM     14  C   UNL     1       0.810   2.636  19.487  0.00  0.00    +0.000 A 
ATOM     15  C   UNL     1       1.254   3.846  19.841  0.00  0.00    +0.000 A 
ATOM     16  C   UNL     1       2.643   4.236  19.545  0.00  0.00    +0.000 A 
ATOM     17  H   UNL     1       1.266   0.828  18.587  0.00  0.00    +0.000 HD
ENDBRANCH   4   6
ENDBRANCH   1   2
BRANCH   1  18
ATOM     18  C   UNL     1       0.060   9.266  20.485  0.00  0.00    +0.000 C 
BRANCH  18  25
ATOM     19  C   UNL     1      -0.882  11.472  22.681  0.00  0.00    +0.000 C 
ATOM     20  C   UNL     1      -0.001  11.658  21.492  0.00  0.00    +0.000 A 
ATOM     21  N   UNL     1       0.505  12.914  21.175  0.00  0.00    +0.000 N 
ATOM     22  N   UNL     1       1.094  12.790  19.909  0.00  0.00    +0.000 N 
ATOM     23  C   UNL     1       1.034  11.462  19.501  0.00  0.00    +0.000 A 
ATOM     24  O   UNL     1       1.444  10.928  18.484  0.00  0.00    +0.000 OA
ATOM     25  C   UNL     1       0.335  10.722  20.588  0.00  0.00    +0.000 A 
ATOM     26  H   UNL     1      -0.214  13.638  21.216  0.00  0.00    +0.000 HD
BRANCH  22  27
ATOM     27  C   UNL     1       1.678  13.890  19.255  0.00  0.00    +0.000 A 
ATOM     28  C   UNL     1       2.958  13.789  18.688  0.00  0.00    +0.000 A 
ATOM     29  C   UNL     1       3.546  14.880  18.045  0.00  0.00    +0.000 A 
ATOM     30  C   UNL     1       2.859  16.082  17.974  0.00  0.00    +0.000 A 
ATOM     31  F   UNL     1       3.424  17.133  17.367  0.00  0.00    +0.000 F 
ATOM     32  C   UNL     1       1.591  16.210  18.529  0.00  0.00    +0.000 A 
ATOM     33  C   UNL     1       0.999  15.114  19.161  0.00  0.00    +0.000 A 
ENDBRANCH  22  27
ENDBRANCH  18  25
ENDBRANCH   1  18
TORSDOF 5
ENDMDL
MODEL 9
REMARK VINA RESULT:      -8.5      4.974     10.226
REMARK  Name = 
REMARK  6 active torsions:
REMARK  status: ('A' for Active; 'I' for Inactive)
REMARK    1  A    between atoms: C_1  and  C_2
REMARK    2  A    between atoms: N_4  and  C_5
REMARK    3  A    between atoms: C_14  and  C_15
REMARK    4  A    between atoms: C_15  and  C_16
REMARK    5  A    between atoms: C_16  and  C_17
REMARK    6  A    between atoms: N_19  and  C_20
REMARK                            x       y       z     vdW  Elec       q    Type
REMARK                         _______ _______ _______ _____ _____    ______ ____
ROOT
ATOM      1  C   UNL     1       1.058   9.235  21.419  0.00  0.00    +0.000 C 
ENDROOT
BRANCH   1   2
ATOM      2  C   UNL     1       1.446   8.485  20.163  0.00  0.00    +0.000 C 
ATOM      3  O   UNL     1       1.244   8.924  19.036  0.00  0.00    +0.000 OA
ATOM      4  N   UNL     1       2.020   7.258  20.451  0.00  0.00    +0.000 N 
ATOM      5  H   UNL     1       1.817   6.862  21.359  0.00  0.00    +0.000 HD
BRANCH   4   6
ATOM      6  C   UNL     1       2.496   6.381  19.453  0.00  0.00    +0.000 A 
ATOM      7  C   UNL     1       3.321   6.879  18.433  0.00  0.00    +0.000 A 
ATOM      8  C   UNL     1       3.866   6.024  17.476  0.00  0.00    +0.000 A 
ATOM      9  C   UNL     1       3.579   4.663  17.521  0.00  0.00    +0.000 A 
ATOM     10  C   UNL     1       2.741   4.164  18.525  0.00  0.00    +0.000 A 
ATOM     11  C   UNL     1       2.407   2.715  18.545  0.00  0.00    +0.000 A 
ATOM     12  O   UNL     1       2.884   1.927  17.735  0.00  0.00    +0.000 OA
ATOM     13  N   UNL     1       1.527   2.302  19.517  0.00  0.00    +0.000 N 
ATOM     14  C   UNL     1       0.945   3.135  20.436  0.00  0.00    +0.000 A 
ATOM     15  C   UNL     1       1.234   4.439  20.471  0.00  0.00    +0.000 A 
ATOM     16  C   UNL     1       2.189   5.009  19.506  0.00  0.00    +0.000 A 
ATOM     17  H   UNL     1       1.290   1.318  19.503  0.00  0.00    +0.000 HD
ENDBRANCH   4   6
ENDBRANCH   1   2
BRANCH   1  18
ATOM     18  C   UNL     1       1.095  10.749  21.200  0.00  0.00    +0.000 C 
BRANCH  18  25
ATOM     19  C   UNL     1      -0.403  12.117  18.657  0.00  0.00    +0.000 C 
ATOM     20  C   UNL     1      -0.936  11.865  20.027  0.00  0.00    +0.000 A 
ATOM     21  N   UNL     1      -2.222  12.265  20.371  0.00  0.00    +0.000 N 
ATOM     22  N   UNL     1      -2.329  12.087  21.758  0.00  0.00    +0.000 N 
ATOM     23  C   UNL     1      -1.164  11.499  22.237  0.00  0.00    +0.000 A 
ATOM     24  O   UNL     1      -0.857  11.160  23.369  0.00  0.00    +0.000 OA
ATOM     25  C   UNL     1      -0.268  11.326  21.062  0.00  0.00    +0.000 A 
ATOM     26  H   UNL     1      -2.419  13.221  20.072  0.00  0.00    +0.000 HD
BRANCH  22  27
ATOM     27  C   UNL     1      -3.499  12.432  22.459  0.00  0.00    +0.000 A 
ATOM     28  C   UNL     1      -3.554  12.325  23.858  0.00  0.00    +0.000 A 
ATOM     29  C   UNL     1      -4.715  12.659  24.557  0.00  0.00    +0.000 A 
ATOM     30  C   UNL     1      -5.832  13.092  23.860  0.00  0.00    +0.000 A 
ATOM     31  F   UNL     1      -6.949  13.403  24.527  0.00  0.00    +0.000 F 
ATOM     32  C   UNL     1      -5.806  13.204  22.475  0.00  0.00    +0.000 A 
ATOM     33  C   UNL     1      -4.639  12.882  21.776  0.00  0.00    +0.000 A 
ENDBRANCH  22  27
ENDBRANCH  18  25
ENDBRANCH   1  18
TORSDOF 5
ENDMDL
