MODEL 1
REMARK VINA RESULT:      -8.5      0.000      0.000
REMARK  Name = 
REMARK  5 active torsions:
REMARK  status: ('A' for Active; 'I' for Inactive)
REMARK    1  A    between atoms: C_1  and  N_2
REMARK    2  A    between atoms: C_6  and  C_7
REMARK    3  A    between atoms: C_7  and  C_8
REMARK    4  A    between atoms: C_8  and  C_9
REMARK    5  A    between atoms: C_13  and  N_14
REMARK                            x       y       z     vdW  Elec       q    Type
REMARK                         _______ _______ _______ _____ _____    ______ ____
ROOT
ATOM      1  C   UNL     1       5.157   4.135  17.673  0.00  0.00    +0.000 A 
ATOM      2  C   UNL     1       5.702   3.910  18.955  0.00  0.00    +0.000 A 
ATOM      3  C   UNL     1       5.146   2.992  19.841  0.00  0.00    +0.000 A 
ATOM      4  C   UNL     1       3.966   2.346  19.505  0.00  0.00    +0.000 A 
ATOM      5  C   UNL     1       3.257   2.760  18.370  0.00  0.00    +0.000 A 
ATOM      6  C   UNL     1       3.922   3.519  17.400  0.00  0.00    +0.000 A 
ENDROOT
BRANCH   5   7
ATOM      7  N   UNL     1       1.798   2.855  18.419  0.00  0.00    +0.000 N 
ATOM      8  C   UNL     1       1.346   3.937  17.503  0.00  0.00    +0.000 C 
ATOM      9  C   UNL     1       1.434   5.134  18.399  0.00  0.00    +0.000 A 
ATOM     10  C   UNL     1       2.004   6.372  18.149  0.00  0.00    +0.000 A 
ATOM     11  C   UNL     1       2.346   7.167  19.249  0.00  0.00    +0.000 A 
ATOM     12  C   UNL     1       2.086   6.738  20.564  0.00  0.00    +0.000 A 
ATOM     13  C   UNL     1       1.502   5.492  20.808  0.00  0.00    +0.000 A 
ATOM     14  C   UNL     1       1.212   4.706  19.707  0.00  0.00    +0.000 A 
ATOM     15  C   UNL     1       1.264   3.217  19.689  0.00  0.00    +0.000 C 
ATOM     16  O   UNL     1       1.089   2.511  20.663  0.00  0.00    +0.000 OA
ENDBRANCH   5   7
BRANCH   1  17
ATOM     17  C   UNL     1       5.952   5.037  16.581  0.00  0.00    +0.000 C 
ATOM     18  C   UNL     1       5.300   6.403  16.164  0.00  0.00    +0.000 C 
ATOM     19  C   UNL     1       6.273   7.146  17.084  0.00  0.00    +0.000 C 
ATOM     20  C   UNL     1       7.138   5.886  17.179  0.00  0.00    +0.000 C 
BRANCH  17  21
ATOM     21  C   UNL     1       6.237   4.076  15.401  0.00  0.00    +0.000 C 
BRANCH  21  27
ATOM     22  C   UNL     1       5.704   3.255  12.418  0.00  0.00    +0.000 C 
ATOM     23  N   UNL     1       6.650   4.235  12.896  0.00  0.00    +0.000 N 
ATOM     24  C   UNL     1       7.519   4.928  12.114  0.00  0.00    +0.000 A 
ATOM     25  N   UNL     1       8.258   5.713  12.865  0.00  0.00    +0.000 NA
ATOM     26  N   UNL     1       7.871   5.515  14.164  0.00  0.00    +0.000 NA
ATOM     27  C   UNL     1       6.888   4.640  14.186  0.00  0.00    +0.000 A 
ENDBRANCH  21  27
ENDBRANCH  17  21
ENDBRANCH   1  17
TORSDOF 4
ENDMDL
MODEL 2
REMARK VINA RESULT:      -8.4      1.619      2.861
REMARK  Name = 
REMARK  5 active torsions:
REMARK  status: ('A' for Active; 'I' for Inactive)
REMARK    1  A    between atoms: C_1  and  N_2
REMARK    2  A    between atoms: C_6  and  C_7
REMARK    3  A    between atoms: C_7  and  C_8
REMARK    4  A    between atoms: C_8  and  C_9
REMARK    5  A    between atoms: C_13  and  N_14
REMARK                            x       y       z     vdW  Elec       q    Type
REMARK                         _______ _______ _______ _____ _____    ______ ____
ROOT
ATOM      1  C   UNL     1       5.449   6.085  17.508  0.00  0.00    +0.000 A 
ATOM      2  C   UNL     1       4.739   7.269  17.216  0.00  0.00    +0.000 A 
ATOM      3  C   UNL     1       3.371   7.383  17.449  0.00  0.00    +0.000 A 
ATOM      4  C   UNL     1       2.657   6.279  17.886  0.00  0.00    +0.000 A 
ATOM      5  C   UNL     1       3.281   5.025  17.909  0.00  0.00    +0.000 A 
ATOM      6  C   UNL     1       4.679   4.967  17.877  0.00  0.00    +0.000 A 
ENDROOT
BRANCH   5   7
ATOM      7  N   UNL     1       2.545   3.839  17.470  0.00  0.00    +0.000 N 
ATOM      8  C   UNL     1       1.149   3.912  17.977  0.00  0.00    +0.000 C 
ATOM      9  C   UNL     1       1.296   3.294  19.333  0.00  0.00    +0.000 A 
ATOM     10  C   UNL     1       0.825   3.747  20.554  0.00  0.00    +0.000 A 
ATOM     11  C   UNL     1       1.436   3.252  21.714  0.00  0.00    +0.000 A 
ATOM     12  C   UNL     1       2.470   2.299  21.639  0.00  0.00    +0.000 A 
ATOM     13  C   UNL     1       2.933   1.841  20.403  0.00  0.00    +0.000 A 
ATOM     14  C   UNL     1       2.343   2.375  19.271  0.00  0.00    +0.000 A 
ATOM     15  C   UNL     1       3.043   2.603  17.977  0.00  0.00    +0.000 C 
ATOM     16  O   UNL     1       3.997   1.959  17.587  0.00  0.00    +0.000 OA
ENDBRANCH   5   7
BRANCH   1  17
ATOM     17  C   UNL     1       7.071   6.054  17.442  0.00  0.00    +0.000 C 
ATOM     18  C   UNL     1       7.798   7.372  16.996  0.00  0.00    +0.000 C 
ATOM     19  C   UNL     1       8.135   7.679  18.458  0.00  0.00    +0.000 C 
ATOM     20  C   UNL     1       7.783   6.238  18.837  0.00  0.00    +0.000 C 
BRANCH  17  21
ATOM     21  C   UNL     1       7.413   4.811  16.583  0.00  0.00    +0.000 C 
BRANCH  21  27
ATOM     22  C   UNL     1       5.268   3.430  14.754  0.00  0.00    +0.000 C 
ATOM     23  N   UNL     1       6.350   4.288  14.333  0.00  0.00    +0.000 N 
ATOM     24  C   UNL     1       6.650   4.589  13.042  0.00  0.00    +0.000 A 
ATOM     25  N   UNL     1       7.708   5.367  13.006  0.00  0.00    +0.000 NA
ATOM     26  N   UNL     1       8.113   5.563  14.300  0.00  0.00    +0.000 NA
ATOM     27  C   UNL     1       7.285   4.932  15.105  0.00  0.00    +0.000 A 
ENDBRANCH  21  27
ENDBRANCH  17  21
ENDBRANCH   1  17
TORSDOF 4
ENDMDL
MODEL 3
REMARK VINA RESULT:      -8.3      1.431      3.191
REMARK  Name = 
REMARK  5 active torsions:
REMARK  status: ('A' for Active; 'I' for Inactive)
REMARK    1  A    between atoms: C_1  and  N_2
REMARK    2  A    between atoms: C_6  and  C_7
REMARK    3  A    between atoms: C_7  and  C_8
REMARK    4  A    between atoms: C_8  and  C_9
REMARK    5  A    between atoms: C_13  and  N_14
REMARK                            x       y       z     vdW  Elec       q    Type
REMARK                         _______ _______ _______ _____ _____    ______ ____
ROOT
ATOM      1  C   UNL     1       4.635   6.021  17.827  0.00  0.00    +0.000 A 
ATOM      2  C   UNL     1       4.197   7.255  17.303  0.00  0.00    +0.000 A 
ATOM      3  C   UNL     1       3.074   7.910  17.802  0.00  0.00    +0.000 A 
ATOM      4  C   UNL     1       2.298   7.295  18.772  0.00  0.00    +0.000 A 
ATOM      5  C   UNL     1       2.547   5.956  19.100  0.00  0.00    +0.000 A 
ATOM      6  C   UNL     1       3.782   5.395  18.755  0.00  0.00    +0.000 A 
ENDROOT
BRANCH   5   7
ATOM      7  N   UNL     1       1.427   5.041  19.319  0.00  0.00    +0.000 N 
ATOM      8  C   UNL     1       1.624   4.323  20.607  0.00  0.00    +0.000 C 
ATOM      9  C   UNL     1       2.462   3.161  20.169  0.00  0.00    +0.000 A 
ATOM     10  C   UNL     1       3.627   2.664  20.731  0.00  0.00    +0.000 A 
ATOM     11  C   UNL     1       4.452   1.868  19.927  0.00  0.00    +0.000 A 
ATOM     12  C   UNL     1       4.091   1.554  18.603  0.00  0.00    +0.000 A 
ATOM     13  C   UNL     1       2.910   2.052  18.046  0.00  0.00    +0.000 A 
ATOM     14  C   UNL     1       2.132   2.871  18.846  0.00  0.00    +0.000 A 
ATOM     15  C   UNL     1       1.303   4.004  18.349  0.00  0.00    +0.000 C 
ATOM     16  O   UNL     1       0.824   4.068  17.234  0.00  0.00    +0.000 OA
ENDBRANCH   5   7
BRANCH   1  17
ATOM     17  C   UNL     1       6.067   5.395  17.386  0.00  0.00    +0.000 C 
ATOM     18  C   UNL     1       7.282   6.384  17.279  0.00  0.00    +0.000 C 
ATOM     19  C   UNL     1       7.796   5.898  18.638  0.00  0.00    +0.000 C 
ATOM     20  C   UNL     1       6.857   4.691  18.555  0.00  0.00    +0.000 C 
BRANCH  17  21
ATOM     21  C   UNL     1       5.773   4.598  16.092  0.00  0.00    +0.000 C 
BRANCH  21  27
ATOM     22  C   UNL     1       5.307   3.539  13.174  0.00  0.00    +0.000 C 
ATOM     23  N   UNL     1       6.376   4.396  13.629  0.00  0.00    +0.000 N 
ATOM     24  C   UNL     1       7.403   4.838  12.858  0.00  0.00    +0.000 A 
ATOM     25  N   UNL     1       8.217   5.570  13.586  0.00  0.00    +0.000 NA
ATOM     26  N   UNL     1       7.714   5.591  14.861  0.00  0.00    +0.000 NA
ATOM     27  C   UNL     1       6.593   4.901  14.887  0.00  0.00    +0.000 A 
ENDBRANCH  21  27
ENDBRANCH  17  21
ENDBRANCH   1  17
TORSDOF 4
ENDMDL
MODEL 4
REMARK VINA RESULT:      -8.0      2.113      4.348
REMARK  Name = 
REMARK  5 active torsions:
REMARK  status: ('A' for Active; 'I' for Inactive)
REMARK    1  A    between atoms: C_1  and  N_2
REMARK    2  A    between atoms: C_6  and  C_7
REMARK    3  A    between atoms: C_7  and  C_8
REMARK    4  A    between atoms: C_8  and  C_9
REMARK    5  A    between atoms: C_13  and  N_14
REMARK                            x       y       z     vdW  Elec       q    Type
REMARK                         _______ _______ _______ _____ _____    ______ ____
ROOT
ATOM      1  C   UNL     1       4.734   5.647  16.917  0.00  0.00    +0.000 A 
ATOM      2  C   UNL     1       4.419   6.978  16.568  0.00  0.00    +0.000 A 
ATOM      3  C   UNL     1       3.588   7.770  17.356  0.00  0.00    +0.000 A 
ATOM      4  C   UNL     1       2.966   7.217  18.463  0.00  0.00    +0.000 A 
ATOM      5  C   UNL     1       3.033   5.832  18.667  0.00  0.00    +0.000 A 
ATOM      6  C   UNL     1       4.025   5.101  18.003  0.00  0.00    +0.000 A 
ENDROOT
BRANCH   5   7
ATOM      7  N   UNL     1       1.848   5.105  19.122  0.00  0.00    +0.000 N 
ATOM      8  C   UNL     1       2.138   4.465  20.433  0.00  0.00    +0.000 C 
ATOM      9  C   UNL     1       2.743   3.165  19.996  0.00  0.00    +0.000 A 
ATOM     10  C   UNL     1       3.903   2.551  20.438  0.00  0.00    +0.000 A 
ATOM     11  C   UNL     1       4.488   1.587  19.608  0.00  0.00    +0.000 A 
ATOM     12  C   UNL     1       3.897   1.230  18.381  0.00  0.00    +0.000 A 
ATOM     13  C   UNL     1       2.722   1.849  17.946  0.00  0.00    +0.000 A 
ATOM     14  C   UNL     1       2.185   2.828  18.764  0.00  0.00    +0.000 A 
ATOM     15  C   UNL     1       1.447   4.027  18.280  0.00  0.00    +0.000 C 
ATOM     16  O   UNL     1       0.820   4.077  17.240  0.00  0.00    +0.000 OA
ENDBRANCH   5   7
BRANCH   1  17
ATOM     17  C   UNL     1       5.878   4.827  16.110  0.00  0.00    +0.000 C 
ATOM     18  C   UNL     1       5.500   3.398  15.580  0.00  0.00    +0.000 C 
ATOM     19  C   UNL     1       5.305   3.973  14.173  0.00  0.00    +0.000 C 
ATOM     20  C   UNL     1       6.037   5.249  14.599  0.00  0.00    +0.000 C 
BRANCH  17  21
ATOM     21  C   UNL     1       7.120   4.860  17.033  0.00  0.00    +0.000 C 
BRANCH  21  27
ATOM     22  C   UNL     1       7.963   5.707  19.936  0.00  0.00    +0.000 C 
ATOM     23  N   UNL     1       7.962   6.534  18.753  0.00  0.00    +0.000 N 
ATOM     24  C   UNL     1       8.275   7.856  18.725  0.00  0.00    +0.000 A 
ATOM     25  N   UNL     1       8.144   8.314  17.501  0.00  0.00    +0.000 NA
ATOM     26  N   UNL     1       7.721   7.270  16.720  0.00  0.00    +0.000 NA
ATOM     27  C   UNL     1       7.630   6.190  17.466  0.00  0.00    +0.000 A 
ENDBRANCH  21  27
ENDBRANCH  17  21
ENDBRANCH   1  17
TORSDOF 4
ENDMDL
MODEL 5
REMARK VINA RESULT:      -7.8      1.629      3.080
REMARK  Name = 
REMARK  5 active torsions:
REMARK  status: ('A' for Active; 'I' for Inactive)
REMARK    1  A    between atoms: C_1  and  N_2
REMARK    2  A    between atoms: C_6  and  C_7
REMARK    3  A    between atoms: C_7  and  C_8
REMARK    4  A    between atoms: C_8  and  C_9
REMARK    5  A    between atoms: C_13  and  N_14
REMARK                            x       y       z     vdW  Elec       q    Type
REMARK                         _______ _______ _______ _____ _____    ______ ____
ROOT
ATOM      1  C   UNL     1       5.285   6.057  17.367  0.00  0.00    +0.000 A 
ATOM      2  C   UNL     1       4.588   7.261  17.128  0.00  0.00    +0.000 A 
ATOM      3  C   UNL     1       3.241   7.409  17.448  0.00  0.00    +0.000 A 
ATOM      4  C   UNL     1       2.528   6.320  17.923  0.00  0.00    +0.000 A 
ATOM      5  C   UNL     1       3.119   5.050  17.898  0.00  0.00    +0.000 A 
ATOM      6  C   UNL     1       4.510   4.956  17.777  0.00  0.00    +0.000 A 
ENDROOT
BRANCH   5   7
ATOM      7  N   UNL     1       2.327   3.886  17.499  0.00  0.00    +0.000 N 
ATOM      8  C   UNL     1       0.990   3.958  18.148  0.00  0.00    +0.000 C 
ATOM      9  C   UNL     1       1.265   3.295  19.462  0.00  0.00    +0.000 A 
ATOM     10  C   UNL     1       0.927   3.714  20.739  0.00  0.00    +0.000 A 
ATOM     11  C   UNL     1       1.645   3.175  21.814  0.00  0.00    +0.000 A 
ATOM     12  C   UNL     1       2.652   2.214  21.606  0.00  0.00    +0.000 A 
ATOM     13  C   UNL     1       2.981   1.791  20.315  0.00  0.00    +0.000 A 
ATOM     14  C   UNL     1       2.287   2.368  19.266  0.00  0.00    +0.000 A 
ATOM     15  C   UNL     1       2.856   2.630  17.915  0.00  0.00    +0.000 C 
ATOM     16  O   UNL     1       3.757   1.988  17.411  0.00  0.00    +0.000 OA
ENDBRANCH   5   7
BRANCH   1  17
ATOM     17  C   UNL     1       6.898   5.985  17.197  0.00  0.00    +0.000 C 
ATOM     18  C   UNL     1       7.762   6.891  18.145  0.00  0.00    +0.000 C 
ATOM     19  C   UNL     1       8.073   5.674  19.021  0.00  0.00    +0.000 C 
ATOM     20  C   UNL     1       7.572   4.750  17.908  0.00  0.00    +0.000 C 
BRANCH  17  21
ATOM     21  C   UNL     1       7.151   6.213  15.687  0.00  0.00    +0.000 C 
BRANCH  21  27
ATOM     22  C   UNL     1       8.358   5.693  12.836  0.00  0.00    +0.000 C 
ATOM     23  N   UNL     1       7.321   4.935  13.494  0.00  0.00    +0.000 N 
ATOM     24  C   UNL     1       6.649   3.891  12.943  0.00  0.00    +0.000 A 
ATOM     25  N   UNL     1       5.752   3.446  13.794  0.00  0.00    +0.000 NA
ATOM     26  N   UNL     1       5.833   4.228  14.916  0.00  0.00    +0.000 NA
ATOM     27  C   UNL     1       6.792   5.114  14.748  0.00  0.00    +0.000 A 
ENDBRANCH  21  27
ENDBRANCH  17  21
ENDBRANCH   1  17
TORSDOF 4
ENDMDL
MODEL 6
REMARK VINA RESULT:      -7.7      4.200      7.551
REMARK  Name = 
REMARK  5 active torsions:
REMARK  status: ('A' for Active; 'I' for Inactive)
REMARK    1  A    between atoms: C_1  and  N_2
REMARK    2  A    between atoms: C_6  and  C_7
REMARK    3  A    between atoms: C_7  and  C_8
REMARK    4  A    between atoms: C_8  and  C_9
REMARK    5  A    between atoms: C_13  and  N_14
REMARK                            x       y       z     vdW  Elec       q    Type
REMARK                         _______ _______ _______ _____ _____    ______ ____
ROOT
ATOM      1  C   UNL     1       1.764   7.302  20.220  0.00  0.00    +0.000 A 
ATOM      2  C   UNL     1       1.388   6.139  20.926  0.00  0.00    +0.000 A 
ATOM      3  C   UNL     1       2.092   4.944  20.805  0.00  0.00    +0.000 A 
ATOM      4  C   UNL     1       3.132   4.852  19.894  0.00  0.00    +0.000 A 
ATOM      5  C   UNL     1       3.338   5.895  18.982  0.00  0.00    +0.000 A 
ATOM      6  C   UNL     1       2.773   7.148  19.252  0.00  0.00    +0.000 A 
ENDROOT
BRANCH   5   7
ATOM      7  N   UNL     1       3.671   5.590  17.590  0.00  0.00    +0.000 N 
ATOM      8  C   UNL     1       4.591   4.422  17.551  0.00  0.00    +0.000 C 
ATOM      9  C   UNL     1       5.922   5.093  17.702  0.00  0.00    +0.000 A 
ATOM     10  C   UNL     1       6.972   4.770  18.547  0.00  0.00    +0.000 A 
ATOM     11  C   UNL     1       7.918   5.765  18.821  0.00  0.00    +0.000 A 
ATOM     12  C   UNL     1       7.825   7.039  18.230  0.00  0.00    +0.000 A 
ATOM     13  C   UNL     1       6.768   7.354  17.372  0.00  0.00    +0.000 A 
ATOM     14  C   UNL     1       5.822   6.369  17.149  0.00  0.00    +0.000 A 
ATOM     15  C   UNL     1       4.375   6.621  16.903  0.00  0.00    +0.000 C 
ATOM     16  O   UNL     1       3.928   7.636  16.405  0.00  0.00    +0.000 OA
ENDBRANCH   5   7
BRANCH   1  17
ATOM     17  C   UNL     1       1.071   8.732  20.550  0.00  0.00    +0.000 C 
ATOM     18  C   UNL     1      -0.359   8.707  21.196  0.00  0.00    +0.000 C 
ATOM     19  C   UNL     1       0.257   8.996  22.569  0.00  0.00    +0.000 C 
ATOM     20  C   UNL     1       1.568   9.402  21.889  0.00  0.00    +0.000 C 
BRANCH  17  21
ATOM     21  C   UNL     1       1.164   9.535  19.230  0.00  0.00    +0.000 C 
BRANCH  21  27
ATOM     22  C   UNL     1      -1.513  10.097  17.689  0.00  0.00    +0.000 C 
ATOM     23  N   UNL     1      -0.725  11.045  18.440  0.00  0.00    +0.000 N 
ATOM     24  C   UNL     1      -0.995  12.372  18.549  0.00  0.00    +0.000 A 
ATOM     25  N   UNL     1      -0.067  12.953  19.275  0.00  0.00    +0.000 NA
ATOM     26  N   UNL     1       0.834  11.984  19.633  0.00  0.00    +0.000 NA
ATOM     27  C   UNL     1       0.431  10.829  19.149  0.00  0.00    +0.000 A 
ENDBRANCH  21  27
ENDBRANCH  17  21
ENDBRANCH   1  17
TORSDOF 4
ENDMDL
MODEL 7
REMARK VINA RESULT:      -7.7      1.447      3.089
REMARK  Name = 
REMARK  5 active torsions:
REMARK  status: ('A' for Active; 'I' for Inactive)
REMARK    1  A    between atoms: C_1  and  N_2
REMARK    2  A    between atoms: C_6  and  C_7
REMARK    3  A    between atoms: C_7  and  C_8
REMARK    4  A    between atoms: C_8  and  C_9
REMARK    5  A    between atoms: C_13  and  N_14
REMARK                            x       y       z     vdW  Elec       q    Type
REMARK                         _______ _______ _______ _____ _____    ______ ____
ROOT
ATOM      1  C   UNL     1       4.685   5.909  18.214  0.00  0.00    +0.000 A 
ATOM      2  C   UNL     1       3.700   6.607  17.482  0.00  0.00    +0.000 A 
ATOM      3  C   UNL     1       2.525   7.060  18.076  0.00  0.00    +0.000 A 
ATOM      4  C   UNL     1       2.257   6.738  19.397  0.00  0.00    +0.000 A 
ATOM      5  C   UNL     1       3.077   5.811  20.055  0.00  0.00    +0.000 A 
ATOM      6  C   UNL     1       4.344   5.537  19.527  0.00  0.00    +0.000 A 
ENDROOT
BRANCH   5   7
ATOM      7  N   UNL     1       2.478   4.805  20.932  0.00  0.00    +0.000 N 
ATOM      8  C   UNL     1       3.455   3.706  21.156  0.00  0.00    +0.000 C 
ATOM      9  C   UNL     1       3.174   2.820  19.981  0.00  0.00    +0.000 A 
ATOM     10  C   UNL     1       4.064   2.239  19.093  0.00  0.00    +0.000 A 
ATOM     11  C   UNL     1       3.568   1.821  17.852  0.00  0.00    +0.000 A 
ATOM     12  C   UNL     1       2.204   1.954  17.532  0.00  0.00    +0.000 A 
ATOM     13  C   UNL     1       1.310   2.534  18.437  0.00  0.00    +0.000 A 
ATOM     14  C   UNL     1       1.831   2.978  19.640  0.00  0.00    +0.000 A 
ATOM     15  C   UNL     1       1.327   4.155  20.399  0.00  0.00    +0.000 C 
ATOM     16  O   UNL     1       0.183   4.565  20.355  0.00  0.00    +0.000 OA
ENDBRANCH   5   7
BRANCH   1  17
ATOM     17  C   UNL     1       6.136   5.594  17.558  0.00  0.00    +0.000 C 
ATOM     18  C   UNL     1       7.084   6.816  17.287  0.00  0.00    +0.000 C 
ATOM     19  C   UNL     1       7.883   6.473  18.548  0.00  0.00    +0.000 C 
ATOM     20  C   UNL     1       7.220   5.094  18.587  0.00  0.00    +0.000 C 
BRANCH  17  21
ATOM     21  C   UNL     1       5.831   4.730  16.309  0.00  0.00    +0.000 C 
BRANCH  21  27
ATOM     22  C   UNL     1       5.254   3.627  13.427  0.00  0.00    +0.000 C 
ATOM     23  N   UNL     1       6.360   4.460  13.836  0.00  0.00    +0.000 N 
ATOM     24  C   UNL     1       7.379   4.855  13.029  0.00  0.00    +0.000 A 
ATOM     25  N   UNL     1       8.234   5.576  13.719  0.00  0.00    +0.000 NA
ATOM     26  N   UNL     1       7.766   5.638  15.006  0.00  0.00    +0.000 NA
ATOM     27  C   UNL     1       6.627   4.984  15.076  0.00  0.00    +0.000 A 
ENDBRANCH  21  27
ENDBRANCH  17  21
ENDBRANCH   1  17
TORSDOF 4
ENDMDL
MODEL 8
REMARK VINA RESULT:      -7.7      8.541     12.477
REMARK  Name = 
REMARK  5 active torsions:
REMARK  status: ('A' for Active; 'I' for Inactive)
REMARK    1  A    between atoms: C_1  and  N_2
REMARK    2  A    between atoms: C_6  and  C_7
REMARK    3  A    between atoms: C_7  and  C_8
REMARK    4  A    between atoms: C_8  and  C_9
REMARK    5  A    between atoms: C_13  and  N_14
REMARK                            x       y       z     vdW  Elec       q    Type
REMARK                         _______ _______ _______ _____ _____    ______ ____
ROOT
ATOM      1  C   UNL     1      -3.927  11.634  18.420  0.00  0.00    +0.000 A 
ATOM      2  C   UNL     1      -4.005  11.148  17.098  0.00  0.00    +0.000 A 
ATOM      3  C   UNL     1      -3.000  10.361  16.542  0.00  0.00    +0.000 A 
ATOM      4  C   UNL     1      -1.839  10.126  17.261  0.00  0.00    +0.000 A 
ATOM      5  C   UNL     1      -1.616  10.829  18.452  0.00  0.00    +0.000 A 
ATOM      6  C   UNL     1      -2.704  11.438  19.088  0.00  0.00    +0.000 A 
ENDROOT
BRANCH   5   7
ATOM      7  N   UNL     1      -0.282  11.347  18.752  0.00  0.00    +0.000 N 
ATOM      8  C   UNL     1       0.617  10.214  19.100  0.00  0.00    +0.000 C 
ATOM      9  C   UNL     1       0.362  10.078  20.570  0.00  0.00    +0.000 A 
ATOM     10  C   UNL     1       0.094   8.937  21.307  0.00  0.00    +0.000 A 
ATOM     11  C   UNL     1      -0.525   9.095  22.554  0.00  0.00    +0.000 A 
ATOM     12  C   UNL     1      -0.832  10.374  23.055  0.00  0.00    +0.000 A 
ATOM     13  C   UNL     1      -0.551  11.522  22.308  0.00  0.00    +0.000 A 
ATOM     14  C   UNL     1       0.022  11.338  21.062  0.00  0.00    +0.000 A 
ATOM     15  C   UNL     1      -0.215  12.214  19.881  0.00  0.00    +0.000 C 
ATOM     16  O   UNL     1      -0.511  13.391  19.946  0.00  0.00    +0.000 OA
ENDBRANCH   5   7
BRANCH   1  17
ATOM     17  C   UNL     1      -5.206  12.352  19.117  0.00  0.00    +0.000 C 
ATOM     18  C   UNL     1      -6.233  13.067  18.169  0.00  0.00    +0.000 C 
ATOM     19  C   UNL     1      -7.181  11.870  18.295  0.00  0.00    +0.000 C 
ATOM     20  C   UNL     1      -6.377  11.367  19.497  0.00  0.00    +0.000 C 
BRANCH  17  21
ATOM     21  C   UNL     1      -4.604  13.263  20.214  0.00  0.00    +0.000 C 
BRANCH  21  27
ATOM     22  C   UNL     1      -7.151  14.309  21.723  0.00  0.00    +0.000 C 
ATOM     23  N   UNL     1      -6.092  13.491  22.265  0.00  0.00    +0.000 N 
ATOM     24  C   UNL     1      -6.002  13.087  23.559  0.00  0.00    +0.000 A 
ATOM     25  N   UNL     1      -4.905  12.384  23.726  0.00  0.00    +0.000 NA
ATOM     26  N   UNL     1      -4.261  12.343  22.517  0.00  0.00    +0.000 NA
ATOM     27  C   UNL     1      -4.983  12.991  21.629  0.00  0.00    +0.000 A 
ENDBRANCH  21  27
ENDBRANCH  17  21
ENDBRANCH   1  17
TORSDOF 4
ENDMDL
MODEL 9
REMARK VINA RESULT:      -7.7      4.031      7.651
REMARK  Name = 
REMARK  5 active torsions:
REMARK  status: ('A' for Active; 'I' for Inactive)
REMARK    1  A    between atoms: C_1  and  N_2
REMARK    2  A    between atoms: C_6  and  C_7
REMARK    3  A    between atoms: C_7  and  C_8
REMARK    4  A    between atoms: C_8  and  C_9
REMARK    5  A    between atoms: C_13  and  N_14
REMARK                            x       y       z     vdW  Elec       q    Type
REMARK                         _______ _______ _______ _____ _____    ______ ____
ROOT
ATOM      1  C   UNL     1       1.778   7.312  20.218  0.00  0.00    +0.000 A 
ATOM      2  C   UNL     1       1.383   6.150  20.915  0.00  0.00    +0.000 A 
ATOM      3  C   UNL     1       2.073   4.948  20.792  0.00  0.00    +0.000 A 
ATOM      4  C   UNL     1       3.118   4.848  19.887  0.00  0.00    +0.000 A 
ATOM      5  C   UNL     1       3.343   5.894  18.983  0.00  0.00    +0.000 A 
ATOM      6  C   UNL     1       2.792   7.152  19.256  0.00  0.00    +0.000 A 
ENDROOT
BRANCH   5   7
ATOM      7  N   UNL     1       3.683   5.594  17.592  0.00  0.00    +0.000 N 
ATOM      8  C   UNL     1       4.600   4.423  17.553  0.00  0.00    +0.000 C 
ATOM      9  C   UNL     1       5.932   5.089  17.713  0.00  0.00    +0.000 A 
ATOM     10  C   UNL     1       6.976   4.760  18.562  0.00  0.00    +0.000 A 
ATOM     11  C   UNL     1       7.924   5.752  18.845  0.00  0.00    +0.000 A 
ATOM     12  C   UNL     1       7.837   7.028  18.258  0.00  0.00    +0.000 A 
ATOM     13  C   UNL     1       6.785   7.350  17.396  0.00  0.00    +0.000 A 
ATOM     14  C   UNL     1       5.838   6.368  17.164  0.00  0.00    +0.000 A 
ATOM     15  C   UNL     1       4.393   6.625  16.912  0.00  0.00    +0.000 C 
ATOM     16  O   UNL     1       3.951   7.643  16.416  0.00  0.00    +0.000 OA
ENDBRANCH   5   7
BRANCH   1  17
ATOM     17  C   UNL     1       1.101   8.749  20.553  0.00  0.00    +0.000 C 
ATOM     18  C   UNL     1      -0.359   8.739  21.131  0.00  0.00    +0.000 C 
ATOM     19  C   UNL     1       0.198   8.982  22.537  0.00  0.00    +0.000 C 
ATOM     20  C   UNL     1       1.547   9.375  21.929  0.00  0.00    +0.000 C 
BRANCH  17  21
ATOM     21  C   UNL     1       1.271   9.582  19.259  0.00  0.00    +0.000 C 
BRANCH  21  27
ATOM     22  C   UNL     1       0.602  12.476  20.274  0.00  0.00    +0.000 C 
ATOM     23  N   UNL     1      -0.145  11.694  19.318  0.00  0.00    +0.000 N 
ATOM     24  C   UNL     1      -1.314  12.076  18.741  0.00  0.00    +0.000 A 
ATOM     25  N   UNL     1      -1.745  11.123  17.945  0.00  0.00    +0.000 NA
ATOM     26  N   UNL     1      -0.843  10.094  18.019  0.00  0.00    +0.000 NA
ATOM     27  C   UNL     1       0.134  10.442  18.829  0.00  0.00    +0.000 A 
ENDBRANCH  21  27
ENDBRANCH  17  21
ENDBRANCH   1  17
TORSDOF 4
ENDMDL
