MODEL 1
REMARK VINA RESULT:      -8.8      0.000      0.000
REMARK  Name = 
REMARK  7 active torsions:
REMARK  status: ('A' for Active; 'I' for Inactive)
REMARK    1  A    between atoms: C_1  and  C_2
REMARK    2  A    between atoms: C_2  and  C_3
REMARK    3  A    between atoms: C_2  and  C_10
REMARK    4  A    between atoms: C_3  and  C_4
REMARK    5  A    between atoms: N_8  and  C_9
REMARK    6  A    between atoms: C_14  and  N_15
REMARK    7  A    between atoms: C_16  and  C_18
REMARK                            x       y       z     vdW  Elec       q    Type
REMARK                         _______ _______ _______ _____ _____    ______ ____
ROOT
ATOM      1  N   UNL     1       0.588   9.137  19.045  0.00  0.00    +0.000 N 
ATOM      2  C   UNL     1       1.708   9.060  18.233  0.00  0.00    +0.000 C 
ATOM      3  O   UNL     1       2.047   9.918  17.412  0.00  0.00    +0.000 OA
ATOM      4  H   UNL     1       0.533   8.458  19.796  0.00  0.00    +0.000 HD
ENDROOT
BRANCH   2   5
ATOM      5  C   UNL     1       2.607   7.883  18.391  0.00  0.00    +0.000 A 
ATOM      6  C   UNL     1       3.612   7.722  17.448  0.00  0.00    +0.000 A 
ATOM      7  C   UNL     1       4.459   6.620  17.531  0.00  0.00    +0.000 A 
ATOM      8  C   UNL     1       4.277   5.689  18.557  0.00  0.00    +0.000 A 
ATOM      9  C   UNL     1       3.238   5.946  19.460  0.00  0.00    +0.000 A 
ATOM     10  N   UNL     1       2.402   7.023  19.418  0.00  0.00    +0.000 NA
ATOM     11  C   UNL     1       5.056   4.452  18.686  0.00  0.00    +0.000 C 
ATOM     12  C   UNL     1       6.381   4.403  18.485  0.00  0.00    +0.000 C 
ATOM     13  C   UNL     1       7.209   5.596  18.118  0.00  0.00    +0.000 C 
ATOM     14  C   UNL     1       6.894   6.074  16.713  0.00  0.00    +0.000 C 
ATOM     15  C   UNL     1       5.466   6.504  16.444  0.00  0.00    +0.000 C 
ATOM     16  O   UNL     1       5.129   6.842  15.308  0.00  0.00    +0.000 OA
ENDBRANCH   2   5
BRANCH   1  21
ATOM     17  C   UNL     1      -2.367  11.196  18.059  0.00  0.00    +0.000 A 
ATOM     18  C   UNL     1      -2.307  12.218  19.021  0.00  0.00    +0.000 A 
ATOM     19  C   UNL     1      -1.264  12.262  19.937  0.00  0.00    +0.000 A 
ATOM     20  C   UNL     1      -0.286  11.270  19.924  0.00  0.00    +0.000 A 
ATOM     21  C   UNL     1      -0.336  10.211  19.011  0.00  0.00    +0.000 A 
ATOM     22  C   UNL     1      -1.358  10.206  18.055  0.00  0.00    +0.000 A 
BRANCH  17  24
ATOM     23  C   UNL     1      -3.317  10.269  15.888  0.00  0.00    +0.000 C 
ATOM     24  C   UNL     1      -3.564  11.162  17.110  0.00  0.00    +0.000 C 
BRANCH  24  25
ATOM     25  C   UNL     1      -4.833  10.763  17.896  0.00  0.00    +0.000 C 
BRANCH  25  26
ATOM     26  C   UNL     1      -5.897  11.809  17.865  0.00  0.00    +0.000 A 
ATOM     27  N   UNL     1      -5.986  12.788  16.988  0.00  0.00    +0.000 NA
ATOM     28  N   UNL     1      -7.094  13.542  17.291  0.00  0.00    +0.000 NA
ATOM     29  C   UNL     1      -7.665  13.002  18.341  0.00  0.00    +0.000 A 
ATOM     30  N   UNL     1      -6.952  11.912  18.736  0.00  0.00    +0.000 N 
ATOM     31  C   UNL     1      -7.269  11.060  19.850  0.00  0.00    +0.000 C 
ENDBRANCH  25  26
ENDBRANCH  24  25
ENDBRANCH  17  24
ENDBRANCH   1  21
TORSDOF 5
ENDMDL
MODEL 2
REMARK VINA RESULT:      -8.7      4.177     10.555
REMARK  Name = 
REMARK  7 active torsions:
REMARK  status: ('A' for Active; 'I' for Inactive)
REMARK    1  A    between atoms: C_1  and  C_2
REMARK    2  A    between atoms: C_2  and  C_3
REMARK    3  A    between atoms: C_2  and  C_10
REMARK    4  A    between atoms: C_3  and  C_4
REMARK    5  A    between atoms: N_8  and  C_9
REMARK    6  A    between atoms: C_14  and  N_15
REMARK    7  A    between atoms: C_16  and  C_18
REMARK                            x       y       z     vdW  Elec       q    Type
REMARK                         _______ _______ _______ _____ _____    ______ ____
ROOT
ATOM      1  N   UNL     1       1.964   7.117  18.743  0.00  0.00    +0.000 N 
ATOM      2  C   UNL     1       1.846   7.282  20.114  0.00  0.00    +0.000 C 
ATOM      3  O   UNL     1       2.268   6.488  20.961  0.00  0.00    +0.000 OA
ATOM      4  H   UNL     1       1.740   7.927  18.174  0.00  0.00    +0.000 HD
ENDROOT
BRANCH   2   5
ATOM      5  C   UNL     1       1.212   8.532  20.617  0.00  0.00    +0.000 A 
ATOM      6  C   UNL     1       1.156   9.610  19.746  0.00  0.00    +0.000 A 
ATOM      7  C   UNL     1       0.601  10.812  20.179  0.00  0.00    +0.000 A 
ATOM      8  C   UNL     1       0.120  10.916  21.487  0.00  0.00    +0.000 A 
ATOM      9  C   UNL     1       0.219   9.769  22.284  0.00  0.00    +0.000 A 
ATOM     10  N   UNL     1       0.739   8.572  21.887  0.00  0.00    +0.000 NA
ATOM     11  C   UNL     1      -0.403  12.157  22.069  0.00  0.00    +0.000 C 
ATOM     12  C   UNL     1      -1.211  12.991  21.398  0.00  0.00    +0.000 C 
ATOM     13  C   UNL     1      -1.674  12.747  19.995  0.00  0.00    +0.000 C 
ATOM     14  C   UNL     1      -0.530  12.873  19.007  0.00  0.00    +0.000 C 
ATOM     15  C   UNL     1       0.638  11.924  19.194  0.00  0.00    +0.000 C 
ATOM     16  O   UNL     1       1.628  12.017  18.466  0.00  0.00    +0.000 OA
ENDBRANCH   2   5
BRANCH   1  21
ATOM     17  C   UNL     1       4.541   4.961  17.115  0.00  0.00    +0.000 A 
ATOM     18  C   UNL     1       3.873   3.725  17.093  0.00  0.00    +0.000 A 
ATOM     19  C   UNL     1       2.564   3.625  17.546  0.00  0.00    +0.000 A 
ATOM     20  C   UNL     1       1.917   4.749  18.054  0.00  0.00    +0.000 A 
ATOM     21  C   UNL     1       2.564   5.986  18.135  0.00  0.00    +0.000 A 
ATOM     22  C   UNL     1       3.863   6.092  17.624  0.00  0.00    +0.000 A 
BRANCH  17  24
ATOM     23  C   UNL     1       6.982   4.783  17.810  0.00  0.00    +0.000 C 
ATOM     24  C   UNL     1       5.997   5.007  16.657  0.00  0.00    +0.000 C 
BRANCH  24  25
ATOM     25  C   UNL     1       6.202   4.011  15.493  0.00  0.00    +0.000 C 
BRANCH  25  26
ATOM     26  C   UNL     1       6.942   4.599  14.339  0.00  0.00    +0.000 A 
ATOM     27  N   UNL     1       7.885   5.517  14.418  0.00  0.00    +0.000 NA
ATOM     28  N   UNL     1       8.320   5.802  13.146  0.00  0.00    +0.000 NA
ATOM     29  C   UNL     1       7.642   5.045  12.317  0.00  0.00    +0.000 A 
ATOM     30  N   UNL     1       6.767   4.274  13.017  0.00  0.00    +0.000 N 
ATOM     31  C   UNL     1       5.855   3.315  12.454  0.00  0.00    +0.000 C 
ENDBRANCH  25  26
ENDBRANCH  24  25
ENDBRANCH  17  24
ENDBRANCH   1  21
TORSDOF 5
ENDMDL
MODEL 3
REMARK VINA RESULT:      -8.7      4.292     10.554
REMARK  Name = 
REMARK  7 active torsions:
REMARK  status: ('A' for Active; 'I' for Inactive)
REMARK    1  A    between atoms: C_1  and  C_2
REMARK    2  A    between atoms: C_2  and  C_3
REMARK    3  A    between atoms: C_2  and  C_10
REMARK    4  A    between atoms: C_3  and  C_4
REMARK    5  A    between atoms: N_8  and  C_9
REMARK    6  A    between atoms: C_14  and  N_15
REMARK    7  A    between atoms: C_16  and  C_18
REMARK                            x       y       z     vdW  Elec       q    Type
REMARK                         _______ _______ _______ _____ _____    ______ ____
ROOT
ATOM      1  N   UNL     1       2.333   7.625  18.986  0.00  0.00    +0.000 N 
ATOM      2  C   UNL     1       1.827   8.732  18.324  0.00  0.00    +0.000 C 
ATOM      3  O   UNL     1       1.675   8.818  17.101  0.00  0.00    +0.000 OA
ATOM      4  H   UNL     1       2.230   7.621  19.994  0.00  0.00    +0.000 HD
ENDROOT
BRANCH   2   5
ATOM      5  C   UNL     1       1.379   9.893  19.143  0.00  0.00    +0.000 A 
ATOM      6  C   UNL     1       1.660  11.161  18.653  0.00  0.00    +0.000 A 
ATOM      7  C   UNL     1       1.292  12.279  19.396  0.00  0.00    +0.000 A 
ATOM      8  C   UNL     1       0.655  12.107  20.628  0.00  0.00    +0.000 A 
ATOM      9  C   UNL     1       0.413  10.787  21.030  0.00  0.00    +0.000 A 
ATOM     10  N   UNL     1       0.744   9.670  20.319  0.00  0.00    +0.000 NA
ATOM     11  C   UNL     1       0.303  13.212  21.528  0.00  0.00    +0.000 C 
ATOM     12  C   UNL     1      -0.222  14.366  21.092  0.00  0.00    +0.000 C 
ATOM     13  C   UNL     1      -0.514  14.652  19.651  0.00  0.00    +0.000 C 
ATOM     14  C   UNL     1       0.765  14.792  18.847  0.00  0.00    +0.000 C 
ATOM     15  C   UNL     1       1.687  13.590  18.818  0.00  0.00    +0.000 C 
ATOM     16  O   UNL     1       2.771  13.660  18.236  0.00  0.00    +0.000 OA
ENDBRANCH   2   5
BRANCH   1  21
ATOM     17  C   UNL     1       4.593   5.206  17.259  0.00  0.00    +0.000 A 
ATOM     18  C   UNL     1       3.761   4.077  17.185  0.00  0.00    +0.000 A 
ATOM     19  C   UNL     1       2.449   4.138  17.637  0.00  0.00    +0.000 A 
ATOM     20  C   UNL     1       1.962   5.318  18.196  0.00  0.00    +0.000 A 
ATOM     21  C   UNL     1       2.774   6.449  18.328  0.00  0.00    +0.000 A 
ATOM     22  C   UNL     1       4.076   6.397  17.818  0.00  0.00    +0.000 A 
BRANCH  17  24
ATOM     23  C   UNL     1       6.987   4.684  17.942  0.00  0.00    +0.000 C 
ATOM     24  C   UNL     1       6.043   5.070  16.798  0.00  0.00    +0.000 C 
BRANCH  24  25
ATOM     25  C   UNL     1       6.115   4.090  15.606  0.00  0.00    +0.000 C 
BRANCH  25  26
ATOM     26  C   UNL     1       6.883   4.628  14.446  0.00  0.00    +0.000 A 
ATOM     27  N   UNL     1       7.840   5.532  14.512  0.00  0.00    +0.000 NA
ATOM     28  N   UNL     1       8.300   5.769  13.239  0.00  0.00    +0.000 NA
ATOM     29  C   UNL     1       7.622   4.999  12.423  0.00  0.00    +0.000 A 
ATOM     30  N   UNL     1       6.723   4.265  13.133  0.00  0.00    +0.000 N 
ATOM     31  C   UNL     1       5.803   3.305  12.585  0.00  0.00    +0.000 C 
ENDBRANCH  25  26
ENDBRANCH  24  25
ENDBRANCH  17  24
ENDBRANCH   1  21
TORSDOF 5
ENDMDL
MODEL 4
REMARK VINA RESULT:      -8.7      7.290     10.382
REMARK  Name = 
REMARK  7 active torsions:
REMARK  status: ('A' for Active; 'I' for Inactive)
REMARK    1  A    between atoms: C_1  and  C_2
REMARK    2  A    between atoms: C_2  and  C_3
REMARK    3  A    between atoms: C_2  and  C_10
REMARK    4  A    between atoms: C_3  and  C_4
REMARK    5  A    between atoms: N_8  and  C_9
REMARK    6  A    between atoms: C_14  and  N_15
REMARK    7  A    between atoms: C_16  and  C_18
REMARK                            x       y       z     vdW  Elec       q    Type
REMARK                         _______ _______ _______ _____ _____    ______ ____
ROOT
ATOM      1  N   UNL     1       8.426   9.197  17.695  0.00  0.00    +0.000 N 
ATOM      2  C   UNL     1       8.943  10.048  18.658  0.00  0.00    +0.000 C 
ATOM      3  O   UNL     1       9.010   9.793  19.865  0.00  0.00    +0.000 OA
ATOM      4  H   UNL     1       8.601   9.455  16.730  0.00  0.00    +0.000 HD
ENDROOT
BRANCH   2   5
ATOM      5  C   UNL     1       9.510  11.350  18.211  0.00  0.00    +0.000 A 
ATOM      6  C   UNL     1       8.679  12.459  18.272  0.00  0.00    +0.000 A 
ATOM      7  C   UNL     1       9.152  13.694  17.835  0.00  0.00    +0.000 A 
ATOM      8  C   UNL     1      10.451  13.794  17.331  0.00  0.00    +0.000 A 
ATOM      9  C   UNL     1      11.210  12.617  17.316  0.00  0.00    +0.000 A 
ATOM     10  N   UNL     1      10.786  11.396  17.753  0.00  0.00    +0.000 NA
ATOM     11  C   UNL     1      11.016  15.025  16.766  0.00  0.00    +0.000 C 
ATOM     12  C   UNL     1      10.829  16.232  17.319  0.00  0.00    +0.000 C 
ATOM     13  C   UNL     1      10.037  16.457  18.570  0.00  0.00    +0.000 C 
ATOM     14  C   UNL     1       8.559  16.202  18.339  0.00  0.00    +0.000 C 
ATOM     15  C   UNL     1       8.171  14.809  17.887  0.00  0.00    +0.000 C 
ATOM     16  O   UNL     1       6.994  14.554  17.620  0.00  0.00    +0.000 OA
ENDBRANCH   2   5
BRANCH   1  21
ATOM     17  C   UNL     1       6.266   6.162  17.427  0.00  0.00    +0.000 A 
ATOM     18  C   UNL     1       6.866   5.329  18.386  0.00  0.00    +0.000 A 
ATOM     19  C   UNL     1       7.923   5.792  19.158  0.00  0.00    +0.000 A 
ATOM     20  C   UNL     1       8.416   7.079  18.961  0.00  0.00    +0.000 A 
ATOM     21  C   UNL     1       7.876   7.923  17.984  0.00  0.00    +0.000 A 
ATOM     22  C   UNL     1       6.773   7.470  17.250  0.00  0.00    +0.000 A 
BRANCH  17  24
ATOM     23  C   UNL     1       5.479   5.611  15.071  0.00  0.00    +0.000 C 
ATOM     24  C   UNL     1       5.142   5.588  16.567  0.00  0.00    +0.000 C 
BRANCH  24  25
ATOM     25  C   UNL     1       4.776   4.176  17.075  0.00  0.00    +0.000 C 
BRANCH  25  26
ATOM     26  C   UNL     1       3.361   4.065  17.537  0.00  0.00    +0.000 A 
ATOM     27  N   UNL     1       2.384   3.471  16.882  0.00  0.00    +0.000 NA
ATOM     28  N   UNL     1       1.234   3.581  17.626  0.00  0.00    +0.000 NA
ATOM     29  C   UNL     1       1.534   4.231  18.725  0.00  0.00    +0.000 A 
ATOM     30  N   UNL     1       2.856   4.555  18.715  0.00  0.00    +0.000 N 
ATOM     31  C   UNL     1       3.553   5.268  19.750  0.00  0.00    +0.000 C 
ENDBRANCH  25  26
ENDBRANCH  24  25
ENDBRANCH  17  24
ENDBRANCH   1  21
TORSDOF 5
ENDMDL
MODEL 5
REMARK VINA RESULT:      -8.4      1.759      2.532
REMARK  Name = 
REMARK  7 active torsions:
REMARK  status: ('A' for Active; 'I' for Inactive)
REMARK    1  A    between atoms: C_1  and  C_2
REMARK    2  A    between atoms: C_2  and  C_3
REMARK    3  A    between atoms: C_2  and  C_10
REMARK    4  A    between atoms: C_3  and  C_4
REMARK    5  A    between atoms: N_8  and  C_9
REMARK    6  A    between atoms: C_14  and  N_15
REMARK    7  A    between atoms: C_16  and  C_18
REMARK                            x       y       z     vdW  Elec       q    Type
REMARK                         _______ _______ _______ _____ _____    ______ ____
ROOT
ATOM      1  N   UNL     1       0.668   8.864  18.578  0.00  0.00    +0.000 N 
ATOM      2  C   UNL     1       1.870   8.722  17.903  0.00  0.00    +0.000 C 
ATOM      3  O   UNL     1       2.436   9.619  17.269  0.00  0.00    +0.000 OA
ATOM      4  H   UNL     1       0.415   8.107  19.204  0.00  0.00    +0.000 HD
ENDROOT
BRANCH   2   5
ATOM      5  C   UNL     1       2.569   7.410  17.984  0.00  0.00    +0.000 A 
ATOM      6  C   UNL     1       1.879   6.359  18.571  0.00  0.00    +0.000 A 
ATOM      7  C   UNL     1       2.500   5.119  18.700  0.00  0.00    +0.000 A 
ATOM      8  C   UNL     1       3.811   4.956  18.247  0.00  0.00    +0.000 A 
ATOM      9  C   UNL     1       4.418   6.078  17.667  0.00  0.00    +0.000 A 
ATOM     10  N   UNL     1       3.834   7.300  17.507  0.00  0.00    +0.000 NA
ATOM     11  C   UNL     1       4.586   3.721  18.412  0.00  0.00    +0.000 C 
ATOM     12  C   UNL     1       4.062   2.503  18.218  0.00  0.00    +0.000 C 
ATOM     13  C   UNL     1       2.641   2.267  17.805  0.00  0.00    +0.000 C 
ATOM     14  C   UNL     1       1.676   2.635  18.916  0.00  0.00    +0.000 C 
ATOM     15  C   UNL     1       1.702   4.074  19.392  0.00  0.00    +0.000 C 
ATOM     16  O   UNL     1       0.989   4.422  20.335  0.00  0.00    +0.000 OA
ENDBRANCH   2   5
BRANCH   1  21
ATOM     17  C   UNL     1      -2.035  11.324  17.815  0.00  0.00    +0.000 A 
ATOM     18  C   UNL     1      -1.729  12.342  18.734  0.00  0.00    +0.000 A 
ATOM     19  C   UNL     1      -0.604  12.246  19.543  0.00  0.00    +0.000 A 
ATOM     20  C   UNL     1       0.210  11.119  19.467  0.00  0.00    +0.000 A 
ATOM     21  C   UNL     1      -0.086  10.063  18.598  0.00  0.00    +0.000 A 
ATOM     22  C   UNL     1      -1.188  10.194  17.745  0.00  0.00    +0.000 A 
BRANCH  17  24
ATOM     23  C   UNL     1      -3.169  10.840  15.590  0.00  0.00    +0.000 C 
ATOM     24  C   UNL     1      -3.312  11.454  16.987  0.00  0.00    +0.000 C 
BRANCH  24  25
ATOM     25  C   UNL     1      -4.501  10.867  17.780  0.00  0.00    +0.000 C 
BRANCH  25  26
ATOM     26  C   UNL     1      -5.695  11.762  17.798  0.00  0.00    +0.000 A 
ATOM     27  N   UNL     1      -5.898  12.787  16.996  0.00  0.00    +0.000 NA
ATOM     28  N   UNL     1      -7.104  13.361  17.323  0.00  0.00    +0.000 NA
ATOM     29  C   UNL     1      -7.617  12.668  18.311  0.00  0.00    +0.000 A 
ATOM     30  N   UNL     1      -6.771  11.655  18.643  0.00  0.00    +0.000 N 
ATOM     31  C   UNL     1      -6.992  10.682  19.679  0.00  0.00    +0.000 C 
ENDBRANCH  25  26
ENDBRANCH  24  25
ENDBRANCH  17  24
ENDBRANCH   1  21
TORSDOF 5
ENDMDL
MODEL 6
REMARK VINA RESULT:      -8.3      4.414     10.568
REMARK  Name = 
REMARK  7 active torsions:
REMARK  status: ('A' for Active; 'I' for Inactive)
REMARK    1  A    between atoms: C_1  and  C_2
REMARK    2  A    between atoms: C_2  and  C_3
REMARK    3  A    between atoms: C_2  and  C_10
REMARK    4  A    between atoms: C_3  and  C_4
REMARK    5  A    between atoms: N_8  and  C_9
REMARK    6  A    between atoms: C_14  and  N_15
REMARK    7  A    between atoms: C_16  and  C_18
REMARK                            x       y       z     vdW  Elec       q    Type
REMARK                         _______ _______ _______ _____ _____    ______ ____
ROOT
ATOM      1  N   UNL     1      -0.019  10.152  20.726  0.00  0.00    +0.000 N 
ATOM      2  C   UNL     1       0.357  11.336  21.341  0.00  0.00    +0.000 C 
ATOM      3  O   UNL     1       1.472  11.861  21.246  0.00  0.00    +0.000 OA
ATOM      4  H   UNL     1      -1.010   9.937  20.739  0.00  0.00    +0.000 HD
ENDROOT
BRANCH   2   5
ATOM      5  C   UNL     1      -0.668  12.068  22.137  0.00  0.00    +0.000 A 
ATOM      6  C   UNL     1      -0.419  13.403  22.417  0.00  0.00    +0.000 A 
ATOM      7  C   UNL     1      -1.330  14.123  23.185  0.00  0.00    +0.000 A 
ATOM      8  C   UNL     1      -2.476  13.486  23.670  0.00  0.00    +0.000 A 
ATOM      9  C   UNL     1      -2.635  12.138  23.327  0.00  0.00    +0.000 A 
ATOM     10  N   UNL     1      -1.773  11.408  22.563  0.00  0.00    +0.000 NA
ATOM     11  C   UNL     1      -3.453  14.127  24.557  0.00  0.00    +0.000 C 
ATOM     12  C   UNL     1      -3.877  15.387  24.383  0.00  0.00    +0.000 C 
ATOM     13  C   UNL     1      -3.412  16.272  23.268  0.00  0.00    +0.000 C 
ATOM     14  C   UNL     1      -1.956  16.660  23.444  0.00  0.00    +0.000 C 
ATOM     15  C   UNL     1      -0.949  15.529  23.479  0.00  0.00    +0.000 C 
ATOM     16  O   UNL     1       0.242  15.772  23.684  0.00  0.00    +0.000 OA
ENDBRANCH   2   5
BRANCH   1  21
ATOM     17  C   UNL     1       2.194   7.339  19.663  0.00  0.00    +0.000 A 
ATOM     18  C   UNL     1       2.431   7.685  18.322  0.00  0.00    +0.000 A 
ATOM     19  C   UNL     1       1.923   8.867  17.799  0.00  0.00    +0.000 A 
ATOM     20  C   UNL     1       1.148   9.703  18.599  0.00  0.00    +0.000 A 
ATOM     21  C   UNL     1       0.852   9.371  19.926  0.00  0.00    +0.000 A 
ATOM     22  C   UNL     1       1.415   8.207  20.462  0.00  0.00    +0.000 A 
BRANCH  17  24
ATOM     23  C   UNL     1       1.608   5.024  20.538  0.00  0.00    +0.000 C 
ATOM     24  C   UNL     1       2.730   6.003  20.173  0.00  0.00    +0.000 C 
BRANCH  24  25
ATOM     25  C   UNL     1       3.722   5.419  19.143  0.00  0.00    +0.000 C 
BRANCH  25  26
ATOM     26  C   UNL     1       3.233   4.163  18.501  0.00  0.00    +0.000 A 
ATOM     27  N   UNL     1       2.439   4.097  17.451  0.00  0.00    +0.000 NA
ATOM     28  N   UNL     1       2.214   2.773  17.162  0.00  0.00    +0.000 NA
ATOM     29  C   UNL     1       2.882   2.057  18.035  0.00  0.00    +0.000 A 
ATOM     30  N   UNL     1       3.538   2.885  18.894  0.00  0.00    +0.000 N 
ATOM     31  C   UNL     1       4.377   2.468  19.985  0.00  0.00    +0.000 C 
ENDBRANCH  25  26
ENDBRANCH  24  25
ENDBRANCH  17  24
ENDBRANCH   1  21
TORSDOF 5
ENDMDL
MODEL 7
REMARK VINA RESULT:      -8.2      2.120      3.260
REMARK  Name = 
REMARK  7 active torsions:
REMARK  status: ('A' for Active; 'I' for Inactive)
REMARK    1  A    between atoms: C_1  and  C_2
REMARK    2  A    between atoms: C_2  and  C_3
REMARK    3  A    between atoms: C_2  and  C_10
REMARK    4  A    between atoms: C_3  and  C_4
REMARK    5  A    between atoms: N_8  and  C_9
REMARK    6  A    between atoms: C_14  and  N_15
REMARK    7  A    between atoms: C_16  and  C_18
REMARK                            x       y       z     vdW  Elec       q    Type
REMARK                         _______ _______ _______ _____ _____    ______ ____
ROOT
ATOM      1  N   UNL     1       1.911   8.066  19.690  0.00  0.00    +0.000 N 
ATOM      2  C   UNL     1       2.058   6.696  19.840  0.00  0.00    +0.000 C 
ATOM      3  O   UNL     1       1.538   6.021  20.735  0.00  0.00    +0.000 OA
ATOM      4  H   UNL     1       2.238   8.457  18.814  0.00  0.00    +0.000 HD
ENDROOT
BRANCH   2   5
ATOM      5  C   UNL     1       2.859   5.962  18.821  0.00  0.00    +0.000 A 
ATOM      6  C   UNL     1       4.048   6.545  18.408  0.00  0.00    +0.000 A 
ATOM      7  C   UNL     1       4.817   5.915  17.434  0.00  0.00    +0.000 A 
ATOM      8  C   UNL     1       4.375   4.711  16.880  0.00  0.00    +0.000 A 
ATOM      9  C   UNL     1       3.165   4.203  17.369  0.00  0.00    +0.000 A 
ATOM     10  N   UNL     1       2.395   4.784  18.334  0.00  0.00    +0.000 NA
ATOM     11  C   UNL     1       5.064   4.010  15.790  0.00  0.00    +0.000 C 
ATOM     12  C   UNL     1       6.397   3.877  15.738  0.00  0.00    +0.000 C 
ATOM     13  C   UNL     1       7.325   4.416  16.784  0.00  0.00    +0.000 C 
ATOM     14  C   UNL     1       7.357   5.933  16.763  0.00  0.00    +0.000 C 
ATOM     15  C   UNL     1       6.043   6.645  17.016  0.00  0.00    +0.000 C 
ATOM     16  O   UNL     1       5.987   7.875  16.949  0.00  0.00    +0.000 OA
ENDBRANCH   2   5
BRANCH   1  21
ATOM     17  C   UNL     1      -0.510  10.642  20.891  0.00  0.00    +0.000 A 
ATOM     18  C   UNL     1      -0.498  10.389  22.273  0.00  0.00    +0.000 A 
ATOM     19  C   UNL     1       0.352   9.428  22.805  0.00  0.00    +0.000 A 
ATOM     20  C   UNL     1       1.176   8.687  21.962  0.00  0.00    +0.000 A 
ATOM     21  C   UNL     1       1.160   8.877  20.576  0.00  0.00    +0.000 A 
ATOM     22  C   UNL     1       0.343   9.887  20.054  0.00  0.00    +0.000 A 
BRANCH  17  24
ATOM     23  C   UNL     1      -1.195  13.091  20.839  0.00  0.00    +0.000 C 
ATOM     24  C   UNL     1      -1.501  11.671  20.350  0.00  0.00    +0.000 C 
BRANCH  24  25
ATOM     25  C   UNL     1      -1.561  11.568  18.810  0.00  0.00    +0.000 C 
BRANCH  25  26
ATOM     26  C   UNL     1      -2.954  11.548  18.275  0.00  0.00    +0.000 A 
ATOM     27  N   UNL     1      -4.027  11.970  18.913  0.00  0.00    +0.000 NA
ATOM     28  N   UNL     1      -5.117  11.785  18.096  0.00  0.00    +0.000 NA
ATOM     29  C   UNL     1      -4.686  11.262  16.973  0.00  0.00    +0.000 A 
ATOM     30  N   UNL     1      -3.337  11.095  17.038  0.00  0.00    +0.000 N 
ATOM     31  C   UNL     1      -2.508  10.552  15.997  0.00  0.00    +0.000 C 
ENDBRANCH  25  26
ENDBRANCH  24  25
ENDBRANCH  17  24
ENDBRANCH   1  21
TORSDOF 5
ENDMDL
MODEL 8
REMARK VINA RESULT:      -8.2      4.196     10.186
REMARK  Name = 
REMARK  7 active torsions:
REMARK  status: ('A' for Active; 'I' for Inactive)
REMARK    1  A    between atoms: C_1  and  C_2
REMARK    2  A    between atoms: C_2  and  C_3
REMARK    3  A    between atoms: C_2  and  C_10
REMARK    4  A    between atoms: C_3  and  C_4
REMARK    5  A    between atoms: N_8  and  C_9
REMARK    6  A    between atoms: C_14  and  N_15
REMARK    7  A    between atoms: C_16  and  C_18
REMARK                            x       y       z     vdW  Elec       q    Type
REMARK                         _______ _______ _______ _____ _____    ______ ____
ROOT
ATOM      1  N   UNL     1       2.155   6.873  18.814  0.00  0.00    +0.000 N 
ATOM      2  C   UNL     1       2.079   8.125  18.225  0.00  0.00    +0.000 C 
ATOM      3  O   UNL     1       2.352   8.371  17.046  0.00  0.00    +0.000 OA
ATOM      4  H   UNL     1       1.727   6.783  19.729  0.00  0.00    +0.000 HD
ENDROOT
BRANCH   2   5
ATOM      5  C   UNL     1       1.581   9.259  19.053  0.00  0.00    +0.000 A 
ATOM      6  C   UNL     1       1.629  10.525  18.489  0.00  0.00    +0.000 A 
ATOM      7  C   UNL     1       1.206  11.623  19.234  0.00  0.00    +0.000 A 
ATOM      8  C   UNL     1       0.750  11.434  20.541  0.00  0.00    +0.000 A 
ATOM      9  C   UNL     1       0.737  10.116  21.015  0.00  0.00    +0.000 A 
ATOM     10  N   UNL     1       1.127   9.016  20.307  0.00  0.00    +0.000 NA
ATOM     11  C   UNL     1       0.364  12.528  21.438  0.00  0.00    +0.000 C 
ATOM     12  C   UNL     1      -0.359  13.581  21.033  0.00  0.00    +0.000 C 
ATOM     13  C   UNL     1      -0.858  13.753  19.631  0.00  0.00    +0.000 C 
ATOM     14  C   UNL     1       0.285  14.016  18.668  0.00  0.00    +0.000 C 
ATOM     15  C   UNL     1       1.349  12.943  18.565  0.00  0.00    +0.000 C 
ATOM     16  O   UNL     1       2.337  13.123  17.850  0.00  0.00    +0.000 OA
ENDBRANCH   2   5
BRANCH   1  21
ATOM     17  C   UNL     1       4.312   4.584  16.802  0.00  0.00    +0.000 A 
ATOM     18  C   UNL     1       3.600   3.379  16.922  0.00  0.00    +0.000 A 
ATOM     19  C   UNL     1       2.387   3.343  17.600  0.00  0.00    +0.000 A 
ATOM     20  C   UNL     1       1.888   4.501  18.192  0.00  0.00    +0.000 A 
ATOM     21  C   UNL     1       2.591   5.709  18.133  0.00  0.00    +0.000 A 
ATOM     22  C   UNL     1       3.782   5.750  17.399  0.00  0.00    +0.000 A 
BRANCH  17  24
ATOM     23  C   UNL     1       5.537   4.257  14.597  0.00  0.00    +0.000 C 
ATOM     24  C   UNL     1       5.666   4.559  16.094  0.00  0.00    +0.000 C 
BRANCH  24  25
ATOM     25  C   UNL     1       6.419   5.878  16.376  0.00  0.00    +0.000 C 
BRANCH  25  26
ATOM     26  C   UNL     1       7.168   5.864  17.666  0.00  0.00    +0.000 A 
ATOM     27  N   UNL     1       7.349   4.811  18.437  0.00  0.00    +0.000 NA
ATOM     28  N   UNL     1       8.083   5.197  19.533  0.00  0.00    +0.000 NA
ATOM     29  C   UNL     1       8.344   6.476  19.404  0.00  0.00    +0.000 A 
ATOM     30  N   UNL     1       7.792   6.938  18.249  0.00  0.00    +0.000 N 
ATOM     31  C   UNL     1       7.868   8.289  17.764  0.00  0.00    +0.000 C 
ENDBRANCH  25  26
ENDBRANCH  24  25
ENDBRANCH  17  24
ENDBRANCH   1  21
TORSDOF 5
ENDMDL
MODEL 9
REMARK VINA RESULT:      -8.2      4.424     10.744
REMARK  Name = 
REMARK  7 active torsions:
REMARK  status: ('A' for Active; 'I' for Inactive)
REMARK    1  A    between atoms: C_1  and  C_2
REMARK    2  A    between atoms: C_2  and  C_3
REMARK    3  A    between atoms: C_2  and  C_10
REMARK    4  A    between atoms: C_3  and  C_4
REMARK    5  A    between atoms: N_8  and  C_9
REMARK    6  A    between atoms: C_14  and  N_15
REMARK    7  A    between atoms: C_16  and  C_18
REMARK                            x       y       z     vdW  Elec       q    Type
REMARK                         _______ _______ _______ _____ _____    ______ ____
ROOT
ATOM      1  N   UNL     1       0.019  10.200  20.608  0.00  0.00    +0.000 N 
ATOM      2  C   UNL     1       0.410  11.324  21.319  0.00  0.00    +0.000 C 
ATOM      3  O   UNL     1       1.546  11.811  21.303  0.00  0.00    +0.000 OA
ATOM      4  H   UNL     1      -0.979  10.022  20.568  0.00  0.00    +0.000 HD
ENDROOT
BRANCH   2   5
ATOM      5  C   UNL     1      -0.619  12.037  22.124  0.00  0.00    +0.000 A 
ATOM      6  C   UNL     1      -0.397  13.380  22.392  0.00  0.00    +0.000 A 
ATOM      7  C   UNL     1      -1.313  14.084  23.168  0.00  0.00    +0.000 A 
ATOM      8  C   UNL     1      -2.437  13.425  23.674  0.00  0.00    +0.000 A 
ATOM      9  C   UNL     1      -2.571  12.071  23.343  0.00  0.00    +0.000 A 
ATOM     10  N   UNL     1      -1.703  11.355  22.570  0.00  0.00    +0.000 NA
ATOM     11  C   UNL     1      -3.416  14.049  24.571  0.00  0.00    +0.000 C 
ATOM     12  C   UNL     1      -3.872  15.298  24.395  0.00  0.00    +0.000 C 
ATOM     13  C   UNL     1      -3.443  16.185  23.267  0.00  0.00    +0.000 C 
ATOM     14  C   UNL     1      -1.994  16.608  23.420  0.00  0.00    +0.000 C 
ATOM     15  C   UNL     1      -0.960  15.500  23.448  0.00  0.00    +0.000 C 
ATOM     16  O   UNL     1       0.228  15.772  23.634  0.00  0.00    +0.000 OA
ENDBRANCH   2   5
BRANCH   1  21
ATOM     17  C   UNL     1       2.260   7.434  19.484  0.00  0.00    +0.000 A 
ATOM     18  C   UNL     1       2.481   7.803  18.146  0.00  0.00    +0.000 A 
ATOM     19  C   UNL     1       1.953   8.987  17.646  0.00  0.00    +0.000 A 
ATOM     20  C   UNL     1       1.173   9.799  18.466  0.00  0.00    +0.000 A 
ATOM     21  C   UNL     1       0.893   9.443  19.789  0.00  0.00    +0.000 A 
ATOM     22  C   UNL     1       1.476   8.279  20.302  0.00  0.00    +0.000 A 
BRANCH  17  24
ATOM     23  C   UNL     1       1.737   5.201  20.585  0.00  0.00    +0.000 C 
ATOM     24  C   UNL     1       2.818   6.097  19.969  0.00  0.00    +0.000 C 
BRANCH  24  25
ATOM     25  C   UNL     1       3.580   5.408  18.815  0.00  0.00    +0.000 C 
BRANCH  25  26
ATOM     26  C   UNL     1       3.912   3.981  19.098  0.00  0.00    +0.000 A 
ATOM     27  N   UNL     1       4.866   3.560  19.904  0.00  0.00    +0.000 NA
ATOM     28  N   UNL     1       4.862   2.186  19.900  0.00  0.00    +0.000 NA
ATOM     29  C   UNL     1       3.899   1.795  19.099  0.00  0.00    +0.000 A 
ATOM     30  N   UNL     1       3.275   2.885  18.574  0.00  0.00    +0.000 N 
ATOM     31  C   UNL     1       2.168   2.857  17.656  0.00  0.00    +0.000 C 
ENDBRANCH  25  26
ENDBRANCH  24  25
ENDBRANCH  17  24
ENDBRANCH   1  21
TORSDOF 5
ENDMDL
