MODEL 1
REMARK VINA RESULT:      -8.1      0.000      0.000
REMARK  Name = 
REMARK  4 active torsions:
REMARK  status: ('A' for Active; 'I' for Inactive)
REMARK    1  A    between atoms: C_1  and  N_2
REMARK    2  A    between atoms: C_4  and  C_5
REMARK    3  A    between atoms: N_7  and  C_8
REMARK    4  A    between atoms: C_17  and  O_18
REMARK                            x       y       z     vdW  Elec       q    Type
REMARK                         _______ _______ _______ _____ _____    ______ ____
ROOT
ATOM      1  C   UNL     1       1.806   8.191  18.632  0.00  0.00    +0.000 C 
ATOM      2  O   UNL     1       1.579   7.923  17.453  0.00  0.00    +0.000 OA
ATOM      3  N   UNL     1       2.442   7.328  19.481  0.00  0.00    +0.000 N 
ATOM      4  H   UNL     1       2.542   7.689  20.430  0.00  0.00    +0.000 HD
ENDROOT
BRANCH   1   8
ATOM      5  C   UNL     1       1.963  13.040  18.259  0.00  0.00    +0.000 C 
ATOM      6  N   UNL     1       1.493  11.904  19.026  0.00  0.00    +0.000 N 
ATOM      7  N   UNL     1       1.785  10.636  18.542  0.00  0.00    +0.000 NA
ATOM      8  C   UNL     1       1.413   9.592  19.236  0.00  0.00    +0.000 A 
ATOM      9  C   UNL     1       0.654   9.709  20.510  0.00  0.00    +0.000 A 
ATOM     10  C   UNL     1       0.114   8.641  21.236  0.00  0.00    +0.000 A 
ATOM     11  C   UNL     1      -0.548   8.850  22.457  0.00  0.00    +0.000 A 
ATOM     12  C   UNL     1      -0.690  10.132  22.976  0.00  0.00    +0.000 A 
ATOM     13  C   UNL     1      -0.190  11.211  22.260  0.00  0.00    +0.000 A 
ATOM     14  C   UNL     1       0.466  11.001  21.032  0.00  0.00    +0.000 A 
ATOM     15  C   UNL     1       0.928  12.167  20.271  0.00  0.00    +0.000 A 
ATOM     16  O   UNL     1       0.785  13.293  20.742  0.00  0.00    +0.000 OA
ENDBRANCH   1   8
BRANCH   3  17
ATOM     17  C   UNL     1       3.296   6.172  19.137  0.00  0.00    +0.000 C 
ATOM     18  C   UNL     1       2.697   4.771  19.035  0.00  0.00    +0.000 A 
ATOM     19  C   UNL     1       1.556   4.358  18.363  0.00  0.00    +0.000 A 
ATOM     20  C   UNL     1       1.196   2.994  18.384  0.00  0.00    +0.000 A 
ATOM     21  C   UNL     1       1.913   2.067  19.150  0.00  0.00    +0.000 A 
ATOM     22  C   UNL     1       3.127   2.442  19.697  0.00  0.00    +0.000 A 
ATOM     23  C   UNL     1       3.577   3.737  19.442  0.00  0.00    +0.000 A 
ATOM     24  C   UNL     1       5.054   3.961  19.143  0.00  0.00    +0.000 C 
ATOM     25  C   UNL     1       5.139   4.893  17.914  0.00  0.00    +0.000 C 
ATOM     26  C   UNL     1       4.545   6.292  18.202  0.00  0.00    +0.000 C 
BRANCH  26  27
ATOM     27  O   UNL     1       4.315   6.896  16.933  0.00  0.00    +0.000 OA
ATOM     28  H   UNL     1       4.949   7.636  16.825  0.00  0.00    +0.000 HD
ENDBRANCH  26  27
ENDBRANCH   3  17
TORSDOF 3
ENDMDL
MODEL 2
REMARK VINA RESULT:      -8.1      2.210      7.790
REMARK  Name = 
REMARK  4 active torsions:
REMARK  status: ('A' for Active; 'I' for Inactive)
REMARK    1  A    between atoms: C_1  and  N_2
REMARK    2  A    between atoms: C_4  and  C_5
REMARK    3  A    between atoms: N_7  and  C_8
REMARK    4  A    between atoms: C_17  and  O_18
REMARK                            x       y       z     vdW  Elec       q    Type
REMARK                         _______ _______ _______ _____ _____    ______ ____
ROOT
ATOM      1  C   UNL     1       2.052   7.863  19.700  0.00  0.00    +0.000 C 
ATOM      2  O   UNL     1       2.226   8.671  18.788  0.00  0.00    +0.000 OA
ATOM      3  N   UNL     1       1.528   8.213  20.913  0.00  0.00    +0.000 N 
ATOM      4  H   UNL     1       1.461   7.433  21.569  0.00  0.00    +0.000 HD
ENDROOT
BRANCH   1   8
ATOM      5  C   UNL     1       1.371   3.270  21.154  0.00  0.00    +0.000 C 
ATOM      6  N   UNL     1       2.030   4.152  20.211  0.00  0.00    +0.000 N 
ATOM      7  N   UNL     1       1.768   5.511  20.311  0.00  0.00    +0.000 NA
ATOM      8  C   UNL     1       2.384   6.335  19.504  0.00  0.00    +0.000 A 
ATOM      9  C   UNL     1       3.328   5.869  18.454  0.00  0.00    +0.000 A 
ATOM     10  C   UNL     1       3.921   6.676  17.476  0.00  0.00    +0.000 A 
ATOM     11  C   UNL     1       4.840   6.149  16.553  0.00  0.00    +0.000 A 
ATOM     12  C   UNL     1       5.182   4.802  16.584  0.00  0.00    +0.000 A 
ATOM     13  C   UNL     1       4.585   3.974  17.525  0.00  0.00    +0.000 A 
ATOM     14  C   UNL     1       3.658   4.502  18.443  0.00  0.00    +0.000 A 
ATOM     15  C   UNL     1       2.999   3.589  19.385  0.00  0.00    +0.000 A 
ATOM     16  O   UNL     1       3.309   2.399  19.391  0.00  0.00    +0.000 OA
ENDBRANCH   1   8
BRANCH   3  17
ATOM     17  C   UNL     1       0.736   9.413  21.254  0.00  0.00    +0.000 C 
ATOM     18  C   UNL     1      -0.013  10.182  20.168  0.00  0.00    +0.000 A 
ATOM     19  C   UNL     1      -0.848   9.693  19.174  0.00  0.00    +0.000 A 
ATOM     20  C   UNL     1      -1.460  10.596  18.280  0.00  0.00    +0.000 A 
ATOM     21  C   UNL     1      -1.165  11.964  18.315  0.00  0.00    +0.000 A 
ATOM     22  C   UNL     1      -0.456  12.471  19.390  0.00  0.00    +0.000 A 
ATOM     23  C   UNL     1      -0.080  11.580  20.392  0.00  0.00    +0.000 A 
ATOM     24  C   UNL     1      -0.181  12.019  21.848  0.00  0.00    +0.000 C 
ATOM     25  C   UNL     1      -0.852  10.868  22.630  0.00  0.00    +0.000 C 
ATOM     26  C   UNL     1       0.011   9.583  22.631  0.00  0.00    +0.000 C 
BRANCH  26  27
ATOM     27  O   UNL     1      -0.857   8.520  23.011  0.00  0.00    +0.000 OA
ATOM     28  H   UNL     1      -0.529   7.693  22.601  0.00  0.00    +0.000 HD
ENDBRANCH  26  27
ENDBRANCH   3  17
TORSDOF 3
ENDMDL
MODEL 3
REMARK VINA RESULT:      -8.0      1.597      1.633
REMARK  Name = 
REMARK  4 active torsions:
REMARK  status: ('A' for Active; 'I' for Inactive)
REMARK    1  A    between atoms: C_1  and  N_2
REMARK    2  A    between atoms: C_4  and  C_5
REMARK    3  A    between atoms: N_7  and  C_8
REMARK    4  A    between atoms: C_17  and  O_18
REMARK                            x       y       z     vdW  Elec       q    Type
REMARK                         _______ _______ _______ _____ _____    ______ ____
ROOT
ATOM      1  C   UNL     1       2.013   8.581  18.124  0.00  0.00    +0.000 C 
ATOM      2  O   UNL     1       2.905   9.136  17.483  0.00  0.00    +0.000 OA
ATOM      3  N   UNL     1       2.029   7.245  18.412  0.00  0.00    +0.000 N 
ATOM      4  H   UNL     1       1.212   6.931  18.938  0.00  0.00    +0.000 HD
ENDROOT
BRANCH   1   8
ATOM      5  C   UNL     1      -1.894  11.349  17.257  0.00  0.00    +0.000 C 
ATOM      6  N   UNL     1      -1.067  10.708  18.261  0.00  0.00    +0.000 N 
ATOM      7  N   UNL     1       0.009   9.952  17.821  0.00  0.00    +0.000 NA
ATOM      8  C   UNL     1       0.799   9.400  18.705  0.00  0.00    +0.000 A 
ATOM      9  C   UNL     1       0.567   9.520  20.169  0.00  0.00    +0.000 A 
ATOM     10  C   UNL     1       1.290   8.854  21.165  0.00  0.00    +0.000 A 
ATOM     11  C   UNL     1       1.025   9.070  22.527  0.00  0.00    +0.000 A 
ATOM     12  C   UNL     1       0.027   9.952  22.924  0.00  0.00    +0.000 A 
ATOM     13  C   UNL     1      -0.726  10.601  21.955  0.00  0.00    +0.000 A 
ATOM     14  C   UNL     1      -0.465  10.378  20.590  0.00  0.00    +0.000 A 
ATOM     15  C   UNL     1      -1.317  11.033  19.591  0.00  0.00    +0.000 A 
ATOM     16  O   UNL     1      -2.202  11.802  19.962  0.00  0.00    +0.000 OA
ENDBRANCH   1   8
BRANCH   3  17
ATOM     17  C   UNL     1       3.182   6.321  18.402  0.00  0.00    +0.000 C 
ATOM     18  C   UNL     1       2.965   4.810  18.460  0.00  0.00    +0.000 A 
ATOM     19  C   UNL     1       2.100   4.025  17.712  0.00  0.00    +0.000 A 
ATOM     20  C   UNL     1       2.079   2.630  17.918  0.00  0.00    +0.000 A 
ATOM     21  C   UNL     1       2.843   2.035  18.928  0.00  0.00    +0.000 A 
ATOM     22  C   UNL     1       3.811   2.787  19.571  0.00  0.00    +0.000 A 
ATOM     23  C   UNL     1       3.977   4.109  19.163  0.00  0.00    +0.000 A 
ATOM     24  C   UNL     1       5.387   4.675  19.046  0.00  0.00    +0.000 C 
ATOM     25  C   UNL     1       5.471   5.427  17.700  0.00  0.00    +0.000 C 
ATOM     26  C   UNL     1       4.516   6.644  17.650  0.00  0.00    +0.000 C 
BRANCH  26  27
ATOM     27  O   UNL     1       4.387   6.994  16.277  0.00  0.00    +0.000 OA
ATOM     28  H   UNL     1       4.940   6.381  15.749  0.00  0.00    +0.000 HD
ENDBRANCH  26  27
ENDBRANCH   3  17
TORSDOF 3
ENDMDL
MODEL 4
REMARK VINA RESULT:      -8.0      2.264      8.010
REMARK  Name = 
REMARK  4 active torsions:
REMARK  status: ('A' for Active; 'I' for Inactive)
REMARK    1  A    between atoms: C_1  and  N_2
REMARK    2  A    between atoms: C_4  and  C_5
REMARK    3  A    between atoms: N_7  and  C_8
REMARK    4  A    between atoms: C_17  and  O_18
REMARK                            x       y       z     vdW  Elec       q    Type
REMARK                         _______ _______ _______ _____ _____    ______ ____
ROOT
ATOM      1  C   UNL     1       2.223   8.451  18.280  0.00  0.00    +0.000 C 
ATOM      2  O   UNL     1       2.254   8.894  17.132  0.00  0.00    +0.000 OA
ATOM      3  N   UNL     1       1.715   9.157  19.335  0.00  0.00    +0.000 N 
ATOM      4  H   UNL     1       1.775   8.660  20.225  0.00  0.00    +0.000 HD
ENDROOT
BRANCH   1   8
ATOM      5  C   UNL     1       1.945   4.515  21.127  0.00  0.00    +0.000 C 
ATOM      6  N   UNL     1       2.570   5.125  19.969  0.00  0.00    +0.000 N 
ATOM      7  N   UNL     1       2.155   6.401  19.614  0.00  0.00    +0.000 NA
ATOM      8  C   UNL     1       2.732   6.995  18.602  0.00  0.00    +0.000 A 
ATOM      9  C   UNL     1       3.794   6.341  17.791  0.00  0.00    +0.000 A 
ATOM     10  C   UNL     1       4.362   6.862  16.623  0.00  0.00    +0.000 A 
ATOM     11  C   UNL     1       5.396   6.188  15.951  0.00  0.00    +0.000 A 
ATOM     12  C   UNL     1       5.880   4.976  16.430  0.00  0.00    +0.000 A 
ATOM     13  C   UNL     1       5.311   4.423  17.569  0.00  0.00    +0.000 A 
ATOM     14  C   UNL     1       4.270   5.095  18.236  0.00  0.00    +0.000 A 
ATOM     15  C   UNL     1       3.650   4.455  19.402  0.00  0.00    +0.000 A 
ATOM     16  O   UNL     1       4.086   3.378  19.805  0.00  0.00    +0.000 OA
ENDBRANCH   1   8
BRANCH   3  17
ATOM     17  C   UNL     1       0.798  10.315  19.302  0.00  0.00    +0.000 C 
ATOM     18  C   UNL     1       1.347  11.735  19.188  0.00  0.00    +0.000 A 
ATOM     19  C   UNL     1       2.296  12.234  18.308  0.00  0.00    +0.000 A 
ATOM     20  C   UNL     1       2.641  13.600  18.365  0.00  0.00    +0.000 A 
ATOM     21  C   UNL     1       2.117  14.440  19.355  0.00  0.00    +0.000 A 
ATOM     22  C   UNL     1       1.067  13.987  20.133  0.00  0.00    +0.000 A 
ATOM     23  C   UNL     1       0.579  12.707  19.877  0.00  0.00    +0.000 A 
ATOM     24  C   UNL     1      -0.926  12.469  19.911  0.00  0.00    +0.000 C 
ATOM     25  C   UNL     1      -1.290  11.642  18.659  0.00  0.00    +0.000 C 
ATOM     26  C   UNL     1      -0.635  10.239  18.676  0.00  0.00    +0.000 C 
BRANCH  26  27
ATOM     27  O   UNL     1      -0.705   9.751  17.341  0.00  0.00    +0.000 OA
ATOM     28  H   UNL     1      -0.839   8.781  17.374  0.00  0.00    +0.000 HD
ENDBRANCH  26  27
ENDBRANCH   3  17
TORSDOF 3
ENDMDL
MODEL 5
REMARK VINA RESULT:      -7.8      2.259      7.506
REMARK  Name = 
REMARK  4 active torsions:
REMARK  status: ('A' for Active; 'I' for Inactive)
REMARK    1  A    between atoms: C_1  and  N_2
REMARK    2  A    between atoms: C_4  and  C_5
REMARK    3  A    between atoms: N_7  and  C_8
REMARK    4  A    between atoms: C_17  and  O_18
REMARK                            x       y       z     vdW  Elec       q    Type
REMARK                         _______ _______ _______ _____ _____    ______ ____
ROOT
ATOM      1  C   UNL     1       1.678   8.173  19.616  0.00  0.00    +0.000 C 
ATOM      2  O   UNL     1       1.810   8.447  20.808  0.00  0.00    +0.000 OA
ATOM      3  N   UNL     1       0.866   8.885  18.776  0.00  0.00    +0.000 N 
ATOM      4  H   UNL     1       0.851   8.525  17.821  0.00  0.00    +0.000 HD
ENDROOT
BRANCH   1   8
ATOM      5  C   UNL     1       5.010   6.760  16.363  0.00  0.00    +0.000 C 
ATOM      6  N   UNL     1       4.092   6.348  17.407  0.00  0.00    +0.000 N 
ATOM      7  N   UNL     1       3.358   7.339  18.045  0.00  0.00    +0.000 NA
ATOM      8  C   UNL     1       2.489   6.993  18.958  0.00  0.00    +0.000 A 
ATOM      9  C   UNL     1       2.281   5.579  19.369  0.00  0.00    +0.000 A 
ATOM     10  C   UNL     1       1.468   5.149  20.424  0.00  0.00    +0.000 A 
ATOM     11  C   UNL     1       1.299   3.783  20.706  0.00  0.00    +0.000 A 
ATOM     12  C   UNL     1       1.945   2.818  19.943  0.00  0.00    +0.000 A 
ATOM     13  C   UNL     1       2.782   3.219  18.911  0.00  0.00    +0.000 A 
ATOM     14  C   UNL     1       2.957   4.588  18.635  0.00  0.00    +0.000 A 
ATOM     15  C   UNL     1       3.895   4.981  17.578  0.00  0.00    +0.000 A 
ATOM     16  O   UNL     1       4.464   4.112  16.920  0.00  0.00    +0.000 OA
ENDBRANCH   1   8
BRANCH   3  17
ATOM     17  C   UNL     1       0.337  10.252  18.958  0.00  0.00    +0.000 C 
ATOM     18  C   UNL     1       1.279  11.454  18.957  0.00  0.00    +0.000 A 
ATOM     19  C   UNL     1       2.287  11.770  18.058  0.00  0.00    +0.000 A 
ATOM     20  C   UNL     1       3.028  12.956  18.238  0.00  0.00    +0.000 A 
ATOM     21  C   UNL     1       2.832  13.769  19.361  0.00  0.00    +0.000 A 
ATOM     22  C   UNL     1       1.737  13.541  20.174  0.00  0.00    +0.000 A 
ATOM     23  C   UNL     1       0.876  12.504  19.819  0.00  0.00    +0.000 A 
ATOM     24  C   UNL     1      -0.628  12.711  19.961  0.00  0.00    +0.000 C 
ATOM     25  C   UNL     1      -1.288  12.203  18.661  0.00  0.00    +0.000 C 
ATOM     26  C   UNL     1      -1.083  10.682  18.459  0.00  0.00    +0.000 C 
BRANCH  26  27
ATOM     27  O   UNL     1      -1.366  10.420  17.089  0.00  0.00    +0.000 OA
ATOM     28  H   UNL     1      -0.862   9.625  16.817  0.00  0.00    +0.000 HD
ENDBRANCH  26  27
ENDBRANCH   3  17
TORSDOF 3
ENDMDL
MODEL 6
REMARK VINA RESULT:      -7.8      2.278      7.647
REMARK  Name = 
REMARK  4 active torsions:
REMARK  status: ('A' for Active; 'I' for Inactive)
REMARK    1  A    between atoms: C_1  and  N_2
REMARK    2  A    between atoms: C_4  and  C_5
REMARK    3  A    between atoms: N_7  and  C_8
REMARK    4  A    between atoms: C_17  and  O_18
REMARK                            x       y       z     vdW  Elec       q    Type
REMARK                         _______ _______ _______ _____ _____    ______ ____
ROOT
ATOM      1  C   UNL     1       2.014   7.767  19.158  0.00  0.00    +0.000 C 
ATOM      2  O   UNL     1       1.803   7.675  20.367  0.00  0.00    +0.000 OA
ATOM      3  N   UNL     1       1.402   8.699  18.366  0.00  0.00    +0.000 N 
ATOM      4  H   UNL     1       1.669   8.638  17.383  0.00  0.00    +0.000 HD
ENDROOT
BRANCH   1   8
ATOM      5  C   UNL     1       6.352   7.307  17.002  0.00  0.00    +0.000 C 
ATOM      6  N   UNL     1       5.139   6.636  17.430  0.00  0.00    +0.000 N 
ATOM      7  N   UNL     1       4.182   7.397  18.086  0.00  0.00    +0.000 NA
ATOM      8  C   UNL     1       3.059   6.830  18.442  0.00  0.00    +0.000 A 
ATOM      9  C   UNL     1       2.781   5.388  18.205  0.00  0.00    +0.000 A 
ATOM     10  C   UNL     1       1.662   4.687  18.671  0.00  0.00    +0.000 A 
ATOM     11  C   UNL     1       1.465   3.333  18.353  0.00  0.00    +0.000 A 
ATOM     12  C   UNL     1       2.385   2.649  17.567  0.00  0.00    +0.000 A 
ATOM     13  C   UNL     1       3.518   3.313  17.118  0.00  0.00    +0.000 A 
ATOM     14  C   UNL     1       3.719   4.667  17.445  0.00  0.00    +0.000 A 
ATOM     15  C   UNL     1       4.956   5.323  17.006  0.00  0.00    +0.000 A 
ATOM     16  O   UNL     1       5.762   4.698  16.319  0.00  0.00    +0.000 OA
ENDBRANCH   1   8
BRANCH   3  17
ATOM     17  C   UNL     1       0.740   9.954  18.778  0.00  0.00    +0.000 C 
ATOM     18  C   UNL     1       1.528  11.261  18.843  0.00  0.00    +0.000 A 
ATOM     19  C   UNL     1       2.383  11.810  17.899  0.00  0.00    +0.000 A 
ATOM     20  C   UNL     1       2.995  13.053  18.161  0.00  0.00    +0.000 A 
ATOM     21  C   UNL     1       2.833  13.695  19.394  0.00  0.00    +0.000 A 
ATOM     22  C   UNL     1       1.872  13.230  20.273  0.00  0.00    +0.000 A 
ATOM     23  C   UNL     1       1.104  12.140  19.871  0.00  0.00    +0.000 A 
ATOM     24  C   UNL     1      -0.388  12.129  20.185  0.00  0.00    +0.000 C 
ATOM     25  C   UNL     1      -1.126  11.696  18.900  0.00  0.00    +0.000 C 
ATOM     26  C   UNL     1      -0.768  10.250  18.481  0.00  0.00    +0.000 C 
BRANCH  26  27
ATOM     27  O   UNL     1      -1.172  10.117  17.122  0.00  0.00    +0.000 OA
ATOM     28  H   UNL     1      -0.421  10.380  16.550  0.00  0.00    +0.000 HD
ENDBRANCH  26  27
ENDBRANCH   3  17
TORSDOF 3
ENDMDL
MODEL 7
REMARK VINA RESULT:      -7.8      2.104      7.559
REMARK  Name = 
REMARK  4 active torsions:
REMARK  status: ('A' for Active; 'I' for Inactive)
REMARK    1  A    between atoms: C_1  and  N_2
REMARK    2  A    between atoms: C_4  and  C_5
REMARK    3  A    between atoms: N_7  and  C_8
REMARK    4  A    between atoms: C_17  and  O_18
REMARK                            x       y       z     vdW  Elec       q    Type
REMARK                         _______ _______ _______ _____ _____    ______ ____
ROOT
ATOM      1  C   UNL     1       1.808   7.183  19.941  0.00  0.00    +0.000 C 
ATOM      2  O   UNL     1       1.670   6.913  21.134  0.00  0.00    +0.000 OA
ATOM      3  N   UNL     1       1.309   8.324  19.376  0.00  0.00    +0.000 N 
ATOM      4  H   UNL     1       1.493   8.397  18.374  0.00  0.00    +0.000 HD
ENDROOT
BRANCH   1   8
ATOM      5  C   UNL     1       5.424   6.691  16.723  0.00  0.00    +0.000 C 
ATOM      6  N   UNL     1       4.367   6.028  17.460  0.00  0.00    +0.000 N 
ATOM      7  N   UNL     1       3.617   6.797  18.339  0.00  0.00    +0.000 NA
ATOM      8  C   UNL     1       2.626   6.237  18.984  0.00  0.00    +0.000 A 
ATOM      9  C   UNL     1       2.295   4.794  18.841  0.00  0.00    +0.000 A 
ATOM     10  C   UNL     1       1.338   4.101  19.591  0.00  0.00    +0.000 A 
ATOM     11  C   UNL     1       1.063   2.745  19.348  0.00  0.00    +0.000 A 
ATOM     12  C   UNL     1       1.742   2.051  18.354  0.00  0.00    +0.000 A 
ATOM     13  C   UNL     1       2.718   2.708  17.617  0.00  0.00    +0.000 A 
ATOM     14  C   UNL     1       2.998   4.064  17.867  0.00  0.00    +0.000 A 
ATOM     15  C   UNL     1       4.077   4.712  17.112  0.00  0.00    +0.000 A 
ATOM     16  O   UNL     1       4.673   4.079  16.242  0.00  0.00    +0.000 OA
ENDBRANCH   1   8
BRANCH   3  17
ATOM     17  C   UNL     1       0.900   9.574  20.049  0.00  0.00    +0.000 C 
ATOM     18  C   UNL     1       0.149  10.658  19.279  0.00  0.00    +0.000 A 
ATOM     19  C   UNL     1      -0.956  10.530  18.450  0.00  0.00    +0.000 A 
ATOM     20  C   UNL     1      -1.508  11.682  17.852  0.00  0.00    +0.000 A 
ATOM     21  C   UNL     1      -0.904  12.936  18.000  0.00  0.00    +0.000 A 
ATOM     22  C   UNL     1       0.100  13.092  18.939  0.00  0.00    +0.000 A 
ATOM     23  C   UNL     1       0.452  11.978  19.698  0.00  0.00    +0.000 A 
ATOM     24  C   UNL     1       0.744  12.157  21.183  0.00  0.00    +0.000 C 
ATOM     25  C   UNL     1      -0.006  11.038  21.938  0.00  0.00    +0.000 C 
ATOM     26  C   UNL     1       0.520   9.630  21.567  0.00  0.00    +0.000 C 
BRANCH  26  27
ATOM     27  O   UNL     1      -0.477   8.707  21.993  0.00  0.00    +0.000 OA
ATOM     28  H   UNL     1      -1.346   9.019  21.665  0.00  0.00    +0.000 HD
ENDBRANCH  26  27
ENDBRANCH   3  17
TORSDOF 3
ENDMDL
MODEL 8
REMARK VINA RESULT:      -7.6      2.268      7.771
REMARK  Name = 
REMARK  4 active torsions:
REMARK  status: ('A' for Active; 'I' for Inactive)
REMARK    1  A    between atoms: C_1  and  N_2
REMARK    2  A    between atoms: C_4  and  C_5
REMARK    3  A    between atoms: N_7  and  C_8
REMARK    4  A    between atoms: C_17  and  O_18
REMARK                            x       y       z     vdW  Elec       q    Type
REMARK                         _______ _______ _______ _____ _____    ______ ____
ROOT
ATOM      1  C   UNL     1       2.192   8.029  18.622  0.00  0.00    +0.000 C 
ATOM      2  O   UNL     1       2.346   8.817  17.690  0.00  0.00    +0.000 OA
ATOM      3  N   UNL     1       1.728   8.414  19.850  0.00  0.00    +0.000 N 
ATOM      4  H   UNL     1       1.670   7.648  20.522  0.00  0.00    +0.000 HD
ENDROOT
BRANCH   1   8
ATOM      5  C   UNL     1       1.012   3.447  19.759  0.00  0.00    +0.000 C 
ATOM      6  N   UNL     1       1.885   4.314  18.991  0.00  0.00    +0.000 N 
ATOM      7  N   UNL     1       1.677   5.683  19.086  0.00  0.00    +0.000 NA
ATOM      8  C   UNL     1       2.478   6.490  18.441  0.00  0.00    +0.000 A 
ATOM      9  C   UNL     1       3.583   5.998  17.577  0.00  0.00    +0.000 A 
ATOM     10  C   UNL     1       4.394   6.794  16.760  0.00  0.00    +0.000 A 
ATOM     11  C   UNL     1       5.447   6.239  16.013  0.00  0.00    +0.000 A 
ATOM     12  C   UNL     1       5.708   4.875  16.063  0.00  0.00    +0.000 A 
ATOM     13  C   UNL     1       4.899   4.059  16.842  0.00  0.00    +0.000 A 
ATOM     14  C   UNL     1       3.839   4.615  17.583  0.00  0.00    +0.000 A 
ATOM     15  C   UNL     1       2.966   3.718  18.348  0.00  0.00    +0.000 A 
ATOM     16  O   UNL     1       3.208   2.513  18.372  0.00  0.00    +0.000 OA
ENDBRANCH   1   8
BRANCH   3  17
ATOM     17  C   UNL     1       0.981   9.639  20.202  0.00  0.00    +0.000 C 
ATOM     18  C   UNL     1      -0.091  10.188  19.263  0.00  0.00    +0.000 A 
ATOM     19  C   UNL     1      -1.133   9.515  18.642  0.00  0.00    +0.000 A 
ATOM     20  C   UNL     1      -2.030  10.234  17.825  0.00  0.00    +0.000 A 
ATOM     21  C   UNL     1      -1.833  11.592  17.551  0.00  0.00    +0.000 A 
ATOM     22  C   UNL     1      -0.891  12.295  18.281  0.00  0.00    +0.000 A 
ATOM     23  C   UNL     1      -0.190  11.602  19.266  0.00  0.00    +0.000 A 
ATOM     24  C   UNL     1       0.086  12.289  20.598  0.00  0.00    +0.000 C 
ATOM     25  C   UNL     1      -0.260  11.281  21.716  0.00  0.00    +0.000 C 
ATOM     26  C   UNL     1       0.656  10.034  21.681  0.00  0.00    +0.000 C 
BRANCH  26  27
ATOM     27  O   UNL     1       0.004   9.038  22.461  0.00  0.00    +0.000 OA
ATOM     28  H   UNL     1      -0.079   8.226  21.918  0.00  0.00    +0.000 HD
ENDBRANCH  26  27
ENDBRANCH   3  17
TORSDOF 3
ENDMDL
MODEL 9
REMARK VINA RESULT:      -7.6      2.401      2.840
REMARK  Name = 
REMARK  4 active torsions:
REMARK  status: ('A' for Active; 'I' for Inactive)
REMARK    1  A    between atoms: C_1  and  N_2
REMARK    2  A    between atoms: C_4  and  C_5
REMARK    3  A    between atoms: N_7  and  C_8
REMARK    4  A    between atoms: C_17  and  O_18
REMARK                            x       y       z     vdW  Elec       q    Type
REMARK                         _______ _______ _______ _____ _____    ______ ____
ROOT
ATOM      1  C   UNL     1       1.556   9.308  18.128  0.00  0.00    +0.000 C 
ATOM      2  O   UNL     1       2.401   9.757  17.354  0.00  0.00    +0.000 OA
ATOM      3  N   UNL     1       1.558   8.010  18.557  0.00  0.00    +0.000 N 
ATOM      4  H   UNL     1       0.784   7.786  19.183  0.00  0.00    +0.000 HD
ENDROOT
BRANCH   1   8
ATOM      5  C   UNL     1       0.194  12.483  21.554  0.00  0.00    +0.000 C 
ATOM      6  N   UNL     1      -0.193  11.754  20.362  0.00  0.00    +0.000 N 
ATOM      7  N   UNL     1       0.760  10.936  19.771  0.00  0.00    +0.000 NA
ATOM      8  C   UNL     1       0.426  10.231  18.722  0.00  0.00    +0.000 A 
ATOM      9  C   UNL     1      -0.928  10.301  18.110  0.00  0.00    +0.000 A 
ATOM     10  C   UNL     1      -1.315   9.680  16.918  0.00  0.00    +0.000 A 
ATOM     11  C   UNL     1      -2.635   9.767  16.444  0.00  0.00    +0.000 A 
ATOM     12  C   UNL     1      -3.595  10.483  17.150  0.00  0.00    +0.000 A 
ATOM     13  C   UNL     1      -3.228  11.135  18.320  0.00  0.00    +0.000 A 
ATOM     14  C   UNL     1      -1.903  11.053  18.788  0.00  0.00    +0.000 A 
ATOM     15  C   UNL     1      -1.534  11.803  19.994  0.00  0.00    +0.000 A 
ATOM     16  O   UNL     1      -2.395  12.439  20.599  0.00  0.00    +0.000 OA
ENDBRANCH   1   8
BRANCH   3  17
ATOM     17  C   UNL     1       2.677   7.044  18.544  0.00  0.00    +0.000 C 
ATOM     18  C   UNL     1       2.410   5.548  18.688  0.00  0.00    +0.000 A 
ATOM     19  C   UNL     1       1.486   4.759  18.019  0.00  0.00    +0.000 A 
ATOM     20  C   UNL     1       1.426   3.378  18.296  0.00  0.00    +0.000 A 
ATOM     21  C   UNL     1       2.214   2.806  19.302  0.00  0.00    +0.000 A 
ATOM     22  C   UNL     1       3.235   3.552  19.864  0.00  0.00    +0.000 A 
ATOM     23  C   UNL     1       3.427   4.845  19.382  0.00  0.00    +0.000 A 
ATOM     24  C   UNL     1       4.850   5.353  19.176  0.00  0.00    +0.000 C 
ATOM     25  C   UNL     1       4.900   6.033  17.790  0.00  0.00    +0.000 C 
ATOM     26  C   UNL     1       3.987   7.281  17.720  0.00  0.00    +0.000 C 
BRANCH  26  27
ATOM     27  O   UNL     1       3.808   7.567  16.337  0.00  0.00    +0.000 OA
ATOM     28  H   UNL     1       2.908   7.281  16.077  0.00  0.00    +0.000 HD
ENDBRANCH  26  27
ENDBRANCH   3  17
TORSDOF 3
ENDMDL
