MODEL 1
REMARK VINA RESULT:      -8.6      0.000      0.000
REMARK  Name = 
REMARK  5 active torsions:
REMARK  status: ('A' for Active; 'I' for Inactive)
REMARK    1  A    between atoms: C_2  and  C_3
REMARK    2  A    between atoms: C_3  and  S_4
REMARK    3  A    between atoms: S_4  and  C_5
REMARK    4  A    between atoms: N_13  and  C_14
REMARK    5  A    between atoms: C_17  and  C_18
REMARK                            x       y       z     vdW  Elec       q    Type
REMARK                         _______ _______ _______ _____ _____    ______ ____
ROOT
ATOM      1  C   UNL     1       2.440   7.384  18.807  0.00  0.00    +0.000 A 
ATOM      2  C   UNL     1       1.780   7.744  19.982  0.00  0.00    +0.000 A 
ATOM      3  C   UNL     1       1.064   8.946  20.058  0.00  0.00    +0.000 A 
ATOM      4  C   UNL     1       0.990   9.810  18.960  0.00  0.00    +0.000 A 
ATOM      5  C   UNL     1       1.723   9.479  17.810  0.00  0.00    +0.000 A 
ATOM      6  C   UNL     1       2.428   8.274  17.729  0.00  0.00    +0.000 A 
ENDROOT
BRANCH   4   7
ATOM      7  C   UNL     1       0.169  11.021  19.043  0.00  0.00    +0.000 A 
ATOM      8  N   UNL     1      -1.149  11.049  18.977  0.00  0.00    +0.000 NA
ATOM      9  N   UNL     1      -1.570  12.343  19.114  0.00  0.00    +0.000 NA
ATOM     10  C   UNL     1      -0.511  13.112  19.242  0.00  0.00    +0.000 A 
ATOM     11  N   UNL     1       0.615  12.326  19.140  0.00  0.00    +0.000 N 
ATOM     12  C   UNL     1       1.992  12.779  19.093  0.00  0.00    +0.000 C 
ATOM     13  C   UNL     1       2.211  14.097  18.363  0.00  0.00    +0.000 C 
ATOM     14  C   UNL     1       1.877  15.327  19.203  0.00  0.00    +0.000 C 
ATOM     15  C   UNL     1       0.665  15.185  20.122  0.00  0.00    +0.000 C 
ATOM     16  C   UNL     1      -0.555  14.592  19.428  0.00  0.00    +0.000 C 
ENDBRANCH   4   7
BRANCH   1  19
ATOM     17  O   UNL     1       1.521   4.818  17.670  0.00  0.00    +0.000 OA
ATOM     18  C   UNL     1       2.643   4.984  18.147  0.00  0.00    +0.000 C 
ATOM     19  N   UNL     1       3.138   6.179  18.636  0.00  0.00    +0.000 N 
ATOM     20  H   UNL     1       4.124   6.180  18.879  0.00  0.00    +0.000 HD
BRANCH  18  21
ATOM     21  C   UNL     1       3.655   3.848  18.100  0.00  0.00    +0.000 C 
BRANCH  21  22
ATOM     22  S   UNL     1       4.770   3.950  16.656  0.00  0.00    +0.000 S 
BRANCH  22  23
ATOM     23  C   UNL     1       5.939   5.142  17.285  0.00  0.00    +0.000 A 
ATOM     24  C   UNL     1       6.781   4.771  18.338  0.00  0.00    +0.000 A 
ATOM     25  C   UNL     1       7.711   5.683  18.828  0.00  0.00    +0.000 A 
ATOM     26  F   UNL     1       8.523   5.318  19.831  0.00  0.00    +0.000 F 
ATOM     27  C   UNL     1       7.820   6.964  18.296  0.00  0.00    +0.000 A 
ATOM     28  C   UNL     1       6.972   7.348  17.259  0.00  0.00    +0.000 A 
ATOM     29  C   UNL     1       6.040   6.439  16.764  0.00  0.00    +0.000 A 
ATOM     30  F   UNL     1       5.229   6.837  15.770  0.00  0.00    +0.000 F 
ENDBRANCH  22  23
ENDBRANCH  21  22
ENDBRANCH  18  21
ENDBRANCH   1  19
TORSDOF 5
ENDMDL
MODEL 2
REMARK VINA RESULT:      -8.5      1.120      1.520
REMARK  Name = 
REMARK  5 active torsions:
REMARK  status: ('A' for Active; 'I' for Inactive)
REMARK    1  A    between atoms: C_2  and  C_3
REMARK    2  A    between atoms: C_3  and  S_4
REMARK    3  A    between atoms: S_4  and  C_5
REMARK    4  A    between atoms: N_13  and  C_14
REMARK    5  A    between atoms: C_17  and  C_18
REMARK                            x       y       z     vdW  Elec       q    Type
REMARK                         _______ _______ _______ _____ _____    ______ ____
ROOT
ATOM      1  C   UNL     1       2.158   7.546  19.628  0.00  0.00    +0.000 A 
ATOM      2  C   UNL     1       2.181   8.113  18.352  0.00  0.00    +0.000 A 
ATOM      3  C   UNL     1       1.507   9.314  18.094  0.00  0.00    +0.000 A 
ATOM      4  C   UNL     1       0.800   9.974  19.104  0.00  0.00    +0.000 A 
ATOM      5  C   UNL     1       0.716   9.357  20.361  0.00  0.00    +0.000 A 
ATOM      6  C   UNL     1       1.398   8.165  20.625  0.00  0.00    +0.000 A 
ENDROOT
BRANCH   4   7
ATOM      7  C   UNL     1       0.172  11.268  18.824  0.00  0.00    +0.000 A 
ATOM      8  N   UNL     1      -1.079  11.436  18.439  0.00  0.00    +0.000 NA
ATOM      9  N   UNL     1      -1.320  12.775  18.297  0.00  0.00    +0.000 NA
ATOM     10  C   UNL     1      -0.212  13.427  18.572  0.00  0.00    +0.000 A 
ATOM     11  N   UNL     1       0.776  12.511  18.851  0.00  0.00    +0.000 N 
ATOM     12  C   UNL     1       2.182  12.789  19.078  0.00  0.00    +0.000 C 
ATOM     13  C   UNL     1       2.753  13.934  18.253  0.00  0.00    +0.000 C 
ATOM     14  C   UNL     1       2.429  15.316  18.816  0.00  0.00    +0.000 C 
ATOM     15  C   UNL     1       1.037  15.468  19.426  0.00  0.00    +0.000 C 
ATOM     16  C   UNL     1      -0.074  14.913  18.543  0.00  0.00    +0.000 C 
ENDBRANCH   4   7
BRANCH   1  19
ATOM     17  O   UNL     1       1.849   4.799  18.589  0.00  0.00    +0.000 OA
ATOM     18  C   UNL     1       2.621   5.096  19.500  0.00  0.00    +0.000 C 
ATOM     19  N   UNL     1       2.844   6.373  19.979  0.00  0.00    +0.000 N 
ATOM     20  H   UNL     1       3.602   6.467  20.647  0.00  0.00    +0.000 HD
BRANCH  18  21
ATOM     21  C   UNL     1       3.527   4.026  20.095  0.00  0.00    +0.000 C 
BRANCH  21  22
ATOM     22  S   UNL     1       4.421   3.067  18.823  0.00  0.00    +0.000 S 
BRANCH  22  23
ATOM     23  C   UNL     1       5.398   4.379  18.112  0.00  0.00    +0.000 A 
ATOM     24  C   UNL     1       6.376   4.996  18.899  0.00  0.00    +0.000 A 
ATOM     25  C   UNL     1       7.158   6.009  18.353  0.00  0.00    +0.000 A 
ATOM     26  F   UNL     1       8.102   6.589  19.109  0.00  0.00    +0.000 F 
ATOM     27  C   UNL     1       6.985   6.430  17.038  0.00  0.00    +0.000 A 
ATOM     28  C   UNL     1       6.000   5.834  16.254  0.00  0.00    +0.000 A 
ATOM     29  C   UNL     1       5.215   4.819  16.794  0.00  0.00    +0.000 A 
ATOM     30  F   UNL     1       4.266   4.268  16.019  0.00  0.00    +0.000 F 
ENDBRANCH  22  23
ENDBRANCH  21  22
ENDBRANCH  18  21
ENDBRANCH   1  19
TORSDOF 5
ENDMDL
MODEL 3
REMARK VINA RESULT:      -8.4      1.069      1.152
REMARK  Name = 
REMARK  5 active torsions:
REMARK  status: ('A' for Active; 'I' for Inactive)
REMARK    1  A    between atoms: C_2  and  C_3
REMARK    2  A    between atoms: C_3  and  S_4
REMARK    3  A    between atoms: S_4  and  C_5
REMARK    4  A    between atoms: N_13  and  C_14
REMARK    5  A    between atoms: C_17  and  C_18
REMARK                            x       y       z     vdW  Elec       q    Type
REMARK                         _______ _______ _______ _____ _____    ______ ____
ROOT
ATOM      1  C   UNL     1       2.339   7.290  19.386  0.00  0.00    +0.000 A 
ATOM      2  C   UNL     1       1.674   7.920  20.439  0.00  0.00    +0.000 A 
ATOM      3  C   UNL     1       1.016   9.141  20.238  0.00  0.00    +0.000 A 
ATOM      4  C   UNL     1       1.007   9.756  18.981  0.00  0.00    +0.000 A 
ATOM      5  C   UNL     1       1.746   9.157  17.949  0.00  0.00    +0.000 A 
ATOM      6  C   UNL     1       2.392   7.933  18.144  0.00  0.00    +0.000 A 
ENDROOT
BRANCH   4   7
ATOM      7  C   UNL     1       0.245  10.991  18.783  0.00  0.00    +0.000 A 
ATOM      8  N   UNL     1      -1.038  11.049  18.474  0.00  0.00    +0.000 NA
ATOM      9  N   UNL     1      -1.412  12.362  18.393  0.00  0.00    +0.000 NA
ATOM     10  C   UNL     1      -0.356  13.109  18.629  0.00  0.00    +0.000 A 
ATOM     11  N   UNL     1       0.729  12.285  18.820  0.00  0.00    +0.000 N 
ATOM     12  C   UNL     1       2.113  12.689  18.977  0.00  0.00    +0.000 C 
ATOM     13  C   UNL     1       2.524  13.909  18.163  0.00  0.00    +0.000 C 
ATOM     14  C   UNL     1       2.105  15.236  18.792  0.00  0.00    +0.000 C 
ATOM     15  C   UNL     1       0.743  15.234  19.483  0.00  0.00    +0.000 C 
ATOM     16  C   UNL     1      -0.361  14.602  18.645  0.00  0.00    +0.000 C 
ENDBRANCH   4   7
BRANCH   1  19
ATOM     17  O   UNL     1       1.185   4.600  19.764  0.00  0.00    +0.000 OA
ATOM     18  C   UNL     1       2.395   4.818  19.727  0.00  0.00    +0.000 C 
ATOM     19  N   UNL     1       2.981   6.047  19.493  0.00  0.00    +0.000 N 
ATOM     20  H   UNL     1       3.989   6.038  19.369  0.00  0.00    +0.000 HD
BRANCH  18  21
ATOM     21  C   UNL     1       3.371   3.652  19.806  0.00  0.00    +0.000 C 
BRANCH  21  22
ATOM     22  S   UNL     1       3.902   3.058  18.162  0.00  0.00    +0.000 S 
BRANCH  22  23
ATOM     23  C   UNL     1       5.223   4.217  17.855  0.00  0.00    +0.000 A 
ATOM     24  C   UNL     1       6.008   4.646  18.929  0.00  0.00    +0.000 A 
ATOM     25  C   UNL     1       7.054   5.536  18.704  0.00  0.00    +0.000 A 
ATOM     26  F   UNL     1       7.811   5.936  19.736  0.00  0.00    +0.000 F 
ATOM     27  C   UNL     1       7.334   6.017  17.428  0.00  0.00    +0.000 A 
ATOM     28  C   UNL     1       6.544   5.609  16.355  0.00  0.00    +0.000 A 
ATOM     29  C   UNL     1       5.497   4.718  16.575  0.00  0.00    +0.000 A 
ATOM     30  F   UNL     1       4.745   4.348  15.525  0.00  0.00    +0.000 F 
ENDBRANCH  22  23
ENDBRANCH  21  22
ENDBRANCH  18  21
ENDBRANCH   1  19
TORSDOF 5
ENDMDL
MODEL 4
REMARK VINA RESULT:      -8.4      4.506      9.488
REMARK  Name = 
REMARK  5 active torsions:
REMARK  status: ('A' for Active; 'I' for Inactive)
REMARK    1  A    between atoms: C_2  and  C_3
REMARK    2  A    between atoms: C_3  and  S_4
REMARK    3  A    between atoms: S_4  and  C_5
REMARK    4  A    between atoms: N_13  and  C_14
REMARK    5  A    between atoms: C_17  and  C_18
REMARK                            x       y       z     vdW  Elec       q    Type
REMARK                         _______ _______ _______ _____ _____    ______ ____
ROOT
ATOM      1  C   UNL     1       1.222   9.821  18.595  0.00  0.00    +0.000 A 
ATOM      2  C   UNL     1       1.989   9.260  17.574  0.00  0.00    +0.000 A 
ATOM      3  C   UNL     1       2.657   8.044  17.770  0.00  0.00    +0.000 A 
ATOM      4  C   UNL     1       2.570   7.363  18.988  0.00  0.00    +0.000 A 
ATOM      5  C   UNL     1       1.863   7.973  20.035  0.00  0.00    +0.000 A 
ATOM      6  C   UNL     1       1.185   9.180  19.838  0.00  0.00    +0.000 A 
ENDROOT
BRANCH   4   7
ATOM      7  C   UNL     1       3.214   6.055  19.136  0.00  0.00    +0.000 A 
ATOM      8  N   UNL     1       4.362   5.708  18.584  0.00  0.00    +0.000 NA
ATOM      9  N   UNL     1       4.663   4.428  18.961  0.00  0.00    +0.000 NA
ATOM     10  C   UNL     1       3.690   3.981  19.724  0.00  0.00    +0.000 A 
ATOM     11  N   UNL     1       2.721   4.955  19.813  0.00  0.00    +0.000 N 
ATOM     12  C   UNL     1       1.421   4.836  20.445  0.00  0.00    +0.000 C 
ATOM     13  C   UNL     1       0.770   3.465  20.323  0.00  0.00    +0.000 C 
ATOM     14  C   UNL     1       1.306   2.440  21.320  0.00  0.00    +0.000 C 
ATOM     15  C   UNL     1       2.804   2.522  21.606  0.00  0.00    +0.000 C 
ATOM     16  C   UNL     1       3.656   2.625  20.347  0.00  0.00    +0.000 C 
ENDBRANCH   4   7
BRANCH   1  19
ATOM     17  O   UNL     1      -1.701  10.237  18.591  0.00  0.00    +0.000 OA
ATOM     18  C   UNL     1      -0.888  11.143  18.412  0.00  0.00    +0.000 C 
ATOM     19  N   UNL     1       0.486  11.009  18.465  0.00  0.00    +0.000 N 
ATOM     20  H   UNL     1       1.015  11.874  18.419  0.00  0.00    +0.000 HD
BRANCH  18  21
ATOM     21  C   UNL     1      -1.383  12.573  18.248  0.00  0.00    +0.000 C 
BRANCH  21  22
ATOM     22  S   UNL     1      -0.690  13.711  19.498  0.00  0.00    +0.000 S 
BRANCH  22  23
ATOM     23  C   UNL     1      -1.369  12.966  20.969  0.00  0.00    +0.000 A 
ATOM     24  C   UNL     1      -2.717  13.183  21.276  0.00  0.00    +0.000 A 
ATOM     25  C   UNL     1      -3.266  12.594  22.410  0.00  0.00    +0.000 A 
ATOM     26  F   UNL     1      -4.561  12.796  22.694  0.00  0.00    +0.000 F 
ATOM     27  C   UNL     1      -2.501  11.795  23.255  0.00  0.00    +0.000 A 
ATOM     28  C   UNL     1      -1.154  11.590  22.967  0.00  0.00    +0.000 A 
ATOM     29  C   UNL     1      -0.599  12.175  21.833  0.00  0.00    +0.000 A 
ATOM     30  F   UNL     1       0.705  11.969  21.583  0.00  0.00    +0.000 F 
ENDBRANCH  22  23
ENDBRANCH  21  22
ENDBRANCH  18  21
ENDBRANCH   1  19
TORSDOF 5
ENDMDL
MODEL 5
REMARK VINA RESULT:      -8.3      4.561      9.476
REMARK  Name = 
REMARK  5 active torsions:
REMARK  status: ('A' for Active; 'I' for Inactive)
REMARK    1  A    between atoms: C_2  and  C_3
REMARK    2  A    between atoms: C_3  and  S_4
REMARK    3  A    between atoms: S_4  and  C_5
REMARK    4  A    between atoms: N_13  and  C_14
REMARK    5  A    between atoms: C_17  and  C_18
REMARK                            x       y       z     vdW  Elec       q    Type
REMARK                         _______ _______ _______ _____ _____    ______ ____
ROOT
ATOM      1  C   UNL     1       1.133   9.875  18.815  0.00  0.00    +0.000 A 
ATOM      2  C   UNL     1       1.889   9.374  17.754  0.00  0.00    +0.000 A 
ATOM      3  C   UNL     1       2.571   8.156  17.879  0.00  0.00    +0.000 A 
ATOM      4  C   UNL     1       2.510   7.414  19.062  0.00  0.00    +0.000 A 
ATOM      5  C   UNL     1       1.814   7.964  20.150  0.00  0.00    +0.000 A 
ATOM      6  C   UNL     1       1.122   9.172  20.024  0.00  0.00    +0.000 A 
ENDROOT
BRANCH   4   7
ATOM      7  C   UNL     1       3.169   6.107  19.135  0.00  0.00    +0.000 A 
ATOM      8  N   UNL     1       4.289   5.787  18.514  0.00  0.00    +0.000 NA
ATOM      9  N   UNL     1       4.615   4.497  18.832  0.00  0.00    +0.000 NA
ATOM     10  C   UNL     1       3.685   4.019  19.629  0.00  0.00    +0.000 A 
ATOM     11  N   UNL     1       2.717   4.982  19.799  0.00  0.00    +0.000 N 
ATOM     12  C   UNL     1       1.451   4.832  20.492  0.00  0.00    +0.000 C 
ATOM     13  C   UNL     1       0.803   3.461  20.358  0.00  0.00    +0.000 C 
ATOM     14  C   UNL     1       1.395   2.408  21.292  0.00  0.00    +0.000 C 
ATOM     15  C   UNL     1       2.905   2.493  21.504  0.00  0.00    +0.000 C 
ATOM     16  C   UNL     1       3.691   2.643  20.208  0.00  0.00    +0.000 C 
ENDBRANCH   4   7
BRANCH   1  19
ATOM     17  O   UNL     1      -1.693  10.284  18.062  0.00  0.00    +0.000 OA
ATOM     18  C   UNL     1      -0.926  11.205  18.341  0.00  0.00    +0.000 C 
ATOM     19  N   UNL     1       0.384  11.061  18.755  0.00  0.00    +0.000 N 
ATOM     20  H   UNL     1       0.844  11.910  19.066  0.00  0.00    +0.000 HD
BRANCH  18  21
ATOM     21  C   UNL     1      -1.451  12.634  18.376  0.00  0.00    +0.000 C 
BRANCH  21  22
ATOM     22  S   UNL     1      -0.652  13.651  19.666  0.00  0.00    +0.000 S 
BRANCH  22  23
ATOM     23  C   UNL     1      -1.503  13.014  21.098  0.00  0.00    +0.000 A 
ATOM     24  C   UNL     1      -0.919  11.969  21.821  0.00  0.00    +0.000 A 
ATOM     25  C   UNL     1      -1.562  11.473  22.951  0.00  0.00    +0.000 A 
ATOM     26  F   UNL     1      -0.992  10.478  23.647  0.00  0.00    +0.000 F 
ATOM     27  C   UNL     1      -2.781  11.990  23.378  0.00  0.00    +0.000 A 
ATOM     28  C   UNL     1      -3.379  13.018  22.652  0.00  0.00    +0.000 A 
ATOM     29  C   UNL     1      -2.740  13.520  21.521  0.00  0.00    +0.000 A 
ATOM     30  F   UNL     1      -3.343  14.504  20.834  0.00  0.00    +0.000 F 
ENDBRANCH  22  23
ENDBRANCH  21  22
ENDBRANCH  18  21
ENDBRANCH   1  19
TORSDOF 5
ENDMDL
MODEL 6
REMARK VINA RESULT:      -8.2      1.190      2.057
REMARK  Name = 
REMARK  5 active torsions:
REMARK  status: ('A' for Active; 'I' for Inactive)
REMARK    1  A    between atoms: C_2  and  C_3
REMARK    2  A    between atoms: C_3  and  S_4
REMARK    3  A    between atoms: S_4  and  C_5
REMARK    4  A    between atoms: N_13  and  C_14
REMARK    5  A    between atoms: C_17  and  C_18
REMARK                            x       y       z     vdW  Elec       q    Type
REMARK                         _______ _______ _______ _____ _____    ______ ____
ROOT
ATOM      1  C   UNL     1       2.215   7.321  19.788  0.00  0.00    +0.000 A 
ATOM      2  C   UNL     1       1.471   8.018  20.740  0.00  0.00    +0.000 A 
ATOM      3  C   UNL     1       0.863   9.239  20.417  0.00  0.00    +0.000 A 
ATOM      4  C   UNL     1       0.984   9.786  19.135  0.00  0.00    +0.000 A 
ATOM      5  C   UNL     1       1.800   9.119  18.208  0.00  0.00    +0.000 A 
ATOM      6  C   UNL     1       2.397   7.895  18.525  0.00  0.00    +0.000 A 
ENDROOT
BRANCH   4   7
ATOM      7  C   UNL     1       0.272  11.023  18.804  0.00  0.00    +0.000 A 
ATOM      8  N   UNL     1      -0.968  11.087  18.356  0.00  0.00    +0.000 NA
ATOM      9  N   UNL     1      -1.305  12.401  18.180  0.00  0.00    +0.000 NA
ATOM     10  C   UNL     1      -0.266  13.142  18.497  0.00  0.00    +0.000 A 
ATOM     11  N   UNL     1       0.776  12.310  18.839  0.00  0.00    +0.000 N 
ATOM     12  C   UNL     1       2.143  12.699  19.129  0.00  0.00    +0.000 C 
ATOM     13  C   UNL     1       2.663  13.876  18.314  0.00  0.00    +0.000 C 
ATOM     14  C   UNL     1       2.205  15.235  18.838  0.00  0.00    +0.000 C 
ATOM     15  C   UNL     1       0.777  15.285  19.377  0.00  0.00    +0.000 C 
ATOM     16  C   UNL     1      -0.243  14.633  18.450  0.00  0.00    +0.000 C 
ENDBRANCH   4   7
BRANCH   1  19
ATOM     17  O   UNL     1       1.510   4.664  18.711  0.00  0.00    +0.000 OA
ATOM     18  C   UNL     1       2.410   4.846  19.530  0.00  0.00    +0.000 C 
ATOM     19  N   UNL     1       2.815   6.074  20.017  0.00  0.00    +0.000 N 
ATOM     20  H   UNL     1       3.652   6.065  20.591  0.00  0.00    +0.000 HD
BRANCH  18  21
ATOM     21  C   UNL     1       3.266   3.669  19.978  0.00  0.00    +0.000 C 
BRANCH  21  22
ATOM     22  S   UNL     1       3.961   2.725  18.577  0.00  0.00    +0.000 S 
BRANCH  22  23
ATOM     23  C   UNL     1       4.902   4.024  17.797  0.00  0.00    +0.000 A 
ATOM     24  C   UNL     1       4.747   4.239  16.424  0.00  0.00    +0.000 A 
ATOM     25  C   UNL     1       5.460   5.259  15.804  0.00  0.00    +0.000 A 
ATOM     26  F   UNL     1       5.299   5.469  14.488  0.00  0.00    +0.000 F 
ATOM     27  C   UNL     1       6.335   6.072  16.519  0.00  0.00    +0.000 A 
ATOM     28  C   UNL     1       6.510   5.852  17.884  0.00  0.00    +0.000 A 
ATOM     29  C   UNL     1       5.797   4.832  18.510  0.00  0.00    +0.000 A 
ATOM     30  F   UNL     1       5.992   4.636  19.825  0.00  0.00    +0.000 F 
ENDBRANCH  22  23
ENDBRANCH  21  22
ENDBRANCH  18  21
ENDBRANCH   1  19
TORSDOF 5
ENDMDL
MODEL 7
REMARK VINA RESULT:      -8.1      4.716      9.591
REMARK  Name = 
REMARK  5 active torsions:
REMARK  status: ('A' for Active; 'I' for Inactive)
REMARK    1  A    between atoms: C_2  and  C_3
REMARK    2  A    between atoms: C_3  and  S_4
REMARK    3  A    between atoms: S_4  and  C_5
REMARK    4  A    between atoms: N_13  and  C_14
REMARK    5  A    between atoms: C_17  and  C_18
REMARK                            x       y       z     vdW  Elec       q    Type
REMARK                         _______ _______ _______ _____ _____    ______ ____
ROOT
ATOM      1  C   UNL     1       1.071   9.992  18.921  0.00  0.00    +0.000 A 
ATOM      2  C   UNL     1       1.799   9.525  17.826  0.00  0.00    +0.000 A 
ATOM      3  C   UNL     1       2.475   8.299  17.890  0.00  0.00    +0.000 A 
ATOM      4  C   UNL     1       2.435   7.514  19.047  0.00  0.00    +0.000 A 
ATOM      5  C   UNL     1       1.768   8.028  20.169  0.00  0.00    +0.000 A 
ATOM      6  C   UNL     1       1.083   9.245  20.104  0.00  0.00    +0.000 A 
ENDROOT
BRANCH   4   7
ATOM      7  C   UNL     1       3.085   6.201  19.057  0.00  0.00    +0.000 A 
ATOM      8  N   UNL     1       4.147   5.876  18.343  0.00  0.00    +0.000 NA
ATOM      9  N   UNL     1       4.487   4.581  18.625  0.00  0.00    +0.000 NA
ATOM     10  C   UNL     1       3.622   4.105  19.494  0.00  0.00    +0.000 A 
ATOM     11  N   UNL     1       2.680   5.075  19.749  0.00  0.00    +0.000 N 
ATOM     12  C   UNL     1       1.475   4.932  20.544  0.00  0.00    +0.000 C 
ATOM     13  C   UNL     1       0.805   3.567  20.456  0.00  0.00    +0.000 C 
ATOM     14  C   UNL     1       1.463   2.503  21.332  0.00  0.00    +0.000 C 
ATOM     15  C   UNL     1       2.986   2.573  21.418  0.00  0.00    +0.000 C 
ATOM     16  C   UNL     1       3.664   2.725  20.061  0.00  0.00    +0.000 C 
ENDBRANCH   4   7
BRANCH   1  19
ATOM     17  O   UNL     1       2.001  12.789  18.748  0.00  0.00    +0.000 OA
ATOM     18  C   UNL     1       0.820  12.476  18.895  0.00  0.00    +0.000 C 
ATOM     19  N   UNL     1       0.330  11.183  18.922  0.00  0.00    +0.000 N 
ATOM     20  H   UNL     1      -0.681  11.096  18.926  0.00  0.00    +0.000 HD
BRANCH  18  21
ATOM     21  C   UNL     1      -0.247  13.561  18.923  0.00  0.00    +0.000 C 
BRANCH  21  22
ATOM     22  S   UNL     1      -0.173  14.591  20.429  0.00  0.00    +0.000 S 
BRANCH  22  23
ATOM     23  C   UNL     1      -1.200  13.601  21.501  0.00  0.00    +0.000 A 
ATOM     24  C   UNL     1      -0.650  12.465  22.102  0.00  0.00    +0.000 A 
ATOM     25  C   UNL     1      -1.432  11.692  22.955  0.00  0.00    +0.000 A 
ATOM     26  F   UNL     1      -0.897  10.610  23.538  0.00  0.00    +0.000 F 
ATOM     27  C   UNL     1      -2.759  12.021  23.219  0.00  0.00    +0.000 A 
ATOM     28  C   UNL     1      -3.320  13.141  22.609  0.00  0.00    +0.000 A 
ATOM     29  C   UNL     1      -2.541  13.919  21.756  0.00  0.00    +0.000 A 
ATOM     30  F   UNL     1      -3.109  14.987  21.173  0.00  0.00    +0.000 F 
ENDBRANCH  22  23
ENDBRANCH  21  22
ENDBRANCH  18  21
ENDBRANCH   1  19
TORSDOF 5
ENDMDL
MODEL 8
REMARK VINA RESULT:      -8.1      1.752      2.501
REMARK  Name = 
REMARK  5 active torsions:
REMARK  status: ('A' for Active; 'I' for Inactive)
REMARK    1  A    between atoms: C_2  and  C_3
REMARK    2  A    between atoms: C_3  and  S_4
REMARK    3  A    between atoms: S_4  and  C_5
REMARK    4  A    between atoms: N_13  and  C_14
REMARK    5  A    between atoms: C_17  and  C_18
REMARK                            x       y       z     vdW  Elec       q    Type
REMARK                         _______ _______ _______ _____ _____    ______ ____
ROOT
ATOM      1  C   UNL     1       2.773   6.359  19.074  0.00  0.00    +0.000 A 
ATOM      2  C   UNL     1       2.619   7.605  18.464  0.00  0.00    +0.000 A 
ATOM      3  C   UNL     1       1.898   8.625  19.100  0.00  0.00    +0.000 A 
ATOM      4  C   UNL     1       1.320   8.423  20.357  0.00  0.00    +0.000 A 
ATOM      5  C   UNL     1       1.412   7.144  20.927  0.00  0.00    +0.000 A 
ATOM      6  C   UNL     1       2.141   6.128  20.300  0.00  0.00    +0.000 A 
ENDROOT
BRANCH   4   7
ATOM      7  C   UNL     1       0.642   9.532  21.031  0.00  0.00    +0.000 A 
ATOM      8  N   UNL     1       0.713   9.793  22.323  0.00  0.00    +0.000 NA
ATOM      9  N   UNL     1      -0.025  10.913  22.589  0.00  0.00    +0.000 NA
ATOM     10  C   UNL     1      -0.568  11.327  21.465  0.00  0.00    +0.000 A 
ATOM     11  N   UNL     1      -0.224  10.449  20.463  0.00  0.00    +0.000 N 
ATOM     12  C   UNL     1      -0.712  10.451  19.097  0.00  0.00    +0.000 C 
ATOM     13  C   UNL     1      -2.162  10.885  18.932  0.00  0.00    +0.000 C 
ATOM     14  C   UNL     1      -2.356  12.399  18.964  0.00  0.00    +0.000 C 
ATOM     15  C   UNL     1      -1.467  13.156  19.948  0.00  0.00    +0.000 C 
ATOM     16  C   UNL     1      -1.438  12.534  21.339  0.00  0.00    +0.000 C 
ENDBRANCH   4   7
BRANCH   1  19
ATOM     17  O   UNL     1       1.891   4.125  17.357  0.00  0.00    +0.000 OA
ATOM     18  C   UNL     1       3.043   4.246  17.772  0.00  0.00    +0.000 C 
ATOM     19  N   UNL     1       3.517   5.302  18.527  0.00  0.00    +0.000 N 
ATOM     20  H   UNL     1       4.519   5.316  18.683  0.00  0.00    +0.000 HD
BRANCH  18  21
ATOM     21  C   UNL     1       4.106   3.247  17.337  0.00  0.00    +0.000 C 
BRANCH  21  22
ATOM     22  S   UNL     1       5.133   3.859  15.956  0.00  0.00    +0.000 S 
BRANCH  22  23
ATOM     23  C   UNL     1       6.106   5.066  16.838  0.00  0.00    +0.000 A 
ATOM     24  C   UNL     1       6.993   4.627  17.826  0.00  0.00    +0.000 A 
ATOM     25  C   UNL     1       7.773   5.554  18.510  0.00  0.00    +0.000 A 
ATOM     26  F   UNL     1       8.631   5.126  19.448  0.00  0.00    +0.000 F 
ATOM     27  C   UNL     1       7.684   6.916  18.240  0.00  0.00    +0.000 A 
ATOM     28  C   UNL     1       6.788   7.364  17.272  0.00  0.00    +0.000 A 
ATOM     29  C   UNL     1       6.007   6.441  16.582  0.00  0.00    +0.000 A 
ATOM     30  F   UNL     1       5.144   6.900  15.661  0.00  0.00    +0.000 F 
ENDBRANCH  22  23
ENDBRANCH  21  22
ENDBRANCH  18  21
ENDBRANCH   1  19
TORSDOF 5
ENDMDL
MODEL 9
REMARK VINA RESULT:      -8.1      5.244     10.441
REMARK  Name = 
REMARK  5 active torsions:
REMARK  status: ('A' for Active; 'I' for Inactive)
REMARK    1  A    between atoms: C_2  and  C_3
REMARK    2  A    between atoms: C_3  and  S_4
REMARK    3  A    between atoms: S_4  and  C_5
REMARK    4  A    between atoms: N_13  and  C_14
REMARK    5  A    between atoms: C_17  and  C_18
REMARK                            x       y       z     vdW  Elec       q    Type
REMARK                         _______ _______ _______ _____ _____    ______ ____
ROOT
ATOM      1  C   UNL     1       0.720   9.849  19.003  0.00  0.00    +0.000 A 
ATOM      2  C   UNL     1       1.364   9.356  17.867  0.00  0.00    +0.000 A 
ATOM      3  C   UNL     1       2.149   8.198  17.939  0.00  0.00    +0.000 A 
ATOM      4  C   UNL     1       2.304   7.506  19.145  0.00  0.00    +0.000 A 
ATOM      5  C   UNL     1       1.719   8.053  20.298  0.00  0.00    +0.000 A 
ATOM      6  C   UNL     1       0.925   9.202  20.226  0.00  0.00    +0.000 A 
ENDROOT
BRANCH   4   7
ATOM      7  C   UNL     1       3.065   6.255  19.172  0.00  0.00    +0.000 A 
ATOM      8  N   UNL     1       4.220   6.056  18.564  0.00  0.00    +0.000 NA
ATOM      9  N   UNL     1       4.644   4.783  18.829  0.00  0.00    +0.000 NA
ATOM     10  C   UNL     1       3.740   4.193  19.580  0.00  0.00    +0.000 A 
ATOM     11  N   UNL     1       2.693   5.065  19.771  0.00  0.00    +0.000 N 
ATOM     12  C   UNL     1       1.430   4.781  20.425  0.00  0.00    +0.000 C 
ATOM     13  C   UNL     1       0.898   3.370  20.210  0.00  0.00    +0.000 C 
ATOM     14  C   UNL     1       1.554   2.324  21.108  0.00  0.00    +0.000 C 
ATOM     15  C   UNL     1       3.048   2.519  21.361  0.00  0.00    +0.000 C 
ATOM     16  C   UNL     1       3.846   2.795  20.092  0.00  0.00    +0.000 C 
ENDBRANCH   4   7
BRANCH   1  19
ATOM     17  O   UNL     1      -2.122  10.082  18.237  0.00  0.00    +0.000 OA
ATOM     18  C   UNL     1      -1.433  11.041  18.582  0.00  0.00    +0.000 C 
ATOM     19  N   UNL     1      -0.119  10.973  19.006  0.00  0.00    +0.000 N 
ATOM     20  H   UNL     1       0.269  11.836  19.374  0.00  0.00    +0.000 HD
BRANCH  18  21
ATOM     21  C   UNL     1      -2.069  12.419  18.698  0.00  0.00    +0.000 C 
BRANCH  21  22
ATOM     22  S   UNL     1      -2.611  12.811  20.397  0.00  0.00    +0.000 S 
BRANCH  22  23
ATOM     23  C   UNL     1      -4.358  12.497  20.218  0.00  0.00    +0.000 A 
ATOM     24  C   UNL     1      -4.859  12.167  18.955  0.00  0.00    +0.000 A 
ATOM     25  C   UNL     1      -6.216  11.901  18.801  0.00  0.00    +0.000 A 
ATOM     26  F   UNL     1      -6.689  11.574  17.590  0.00  0.00    +0.000 F 
ATOM     27  C   UNL     1      -7.093  11.964  19.880  0.00  0.00    +0.000 A 
ATOM     28  C   UNL     1      -6.605  12.311  21.138  0.00  0.00    +0.000 A 
ATOM     29  C   UNL     1      -5.248  12.576  21.298  0.00  0.00    +0.000 A 
ATOM     30  F   UNL     1      -4.806  12.917  22.519  0.00  0.00    +0.000 F 
ENDBRANCH  22  23
ENDBRANCH  21  22
ENDBRANCH  18  21
ENDBRANCH   1  19
TORSDOF 5
ENDMDL
