MODEL 1
REMARK VINA RESULT:      -8.9      0.000      0.000
REMARK  Name = 
REMARK  7 active torsions:
REMARK  status: ('A' for Active; 'I' for Inactive)
REMARK    1  A    between atoms: C_1  and  C_2
REMARK    2  A    between atoms: C_2  and  S_3
REMARK    3  A    between atoms: C_2  and  C_10
REMARK    4  A    between atoms: S_3  and  C_4
REMARK    5  A    between atoms: N_8  and  C_9
REMARK    6  A    between atoms: C_14  and  N_15
REMARK    7  A    between atoms: C_16  and  C_18
REMARK                            x       y       z     vdW  Elec       q    Type
REMARK                         _______ _______ _______ _____ _____    ______ ____
ROOT
ATOM      1  C   UNL     1       4.935   4.536  16.962  0.00  0.00    +0.000 A 
ATOM      2  C   UNL     1       5.578   3.912  15.878  0.00  0.00    +0.000 A 
ATOM      3  C   UNL     1       6.639   4.528  15.236  0.00  0.00    +0.000 A 
ATOM      4  C   UNL     1       7.080   5.780  15.662  0.00  0.00    +0.000 A 
ATOM      5  C   UNL     1       6.472   6.454  16.724  0.00  0.00    +0.000 A 
ATOM      6  C   UNL     1       5.386   5.819  17.371  0.00  0.00    +0.000 A 
ENDROOT
BRANCH   5   7
ATOM      7  N   UNL     1       6.885   7.757  17.149  0.00  0.00    +0.000 N 
ATOM      8  C   UNL     1       7.878   8.008  18.079  0.00  0.00    +0.000 C 
ATOM      9  O   UNL     1       8.460   7.165  18.755  0.00  0.00    +0.000 OA
ATOM     10  H   UNL     1       6.450   8.547  16.692  0.00  0.00    +0.000 HD
BRANCH   8  11
ATOM     11  C   UNL     1       8.372   9.406  18.219  0.00  0.00    +0.000 C 
ATOM     12  C   UNL     1       8.186  10.532  17.507  0.00  0.00    +0.000 C 
ATOM     13  C   UNL     1       9.111  11.541  18.037  0.00  0.00    +0.000 A 
ATOM     14  C   UNL     1       9.392  12.828  17.613  0.00  0.00    +0.000 A 
ATOM     15  C   UNL     1      10.504  13.483  18.166  0.00  0.00    +0.000 A 
ATOM     16  C   UNL     1      11.308  12.857  19.133  0.00  0.00    +0.000 A 
ATOM     17  C   UNL     1      10.973  11.593  19.613  0.00  0.00    +0.000 A 
ATOM     18  C   UNL     1       9.867  10.965  19.064  0.00  0.00    +0.000 A 
ATOM     19  C   UNL     1       9.317   9.618  19.386  0.00  0.00    +0.000 C 
ENDBRANCH   8  11
ENDBRANCH   5   7
BRANCH   1  21
ATOM     20  C   UNL     1       4.152   2.541  18.429  0.00  0.00    +0.000 C 
ATOM     21  C   UNL     1       3.782   3.778  17.603  0.00  0.00    +0.000 C 
BRANCH  21  22
ATOM     22  S   UNL     1       2.573   4.881  18.432  0.00  0.00    +0.000 S 
BRANCH  22  23
ATOM     23  C   UNL     1       2.192   4.036  19.882  0.00  0.00    +0.000 A 
ATOM     24  N   UNL     1       2.704   4.242  21.073  0.00  0.00    +0.000 NA
ATOM     25  N   UNL     1       2.128   3.347  21.942  0.00  0.00    +0.000 NA
ATOM     26  C   UNL     1       1.290   2.611  21.249  0.00  0.00    +0.000 A 
ATOM     27  N   UNL     1       1.310   2.995  19.941  0.00  0.00    +0.000 N 
ATOM     28  C   UNL     1       0.546   2.391  18.883  0.00  0.00    +0.000 C 
ENDBRANCH  22  23
ENDBRANCH  21  22
ENDBRANCH   1  21
TORSDOF 5
ENDMDL
MODEL 2
REMARK VINA RESULT:      -8.7      5.240      8.357
REMARK  Name = 
REMARK  7 active torsions:
REMARK  status: ('A' for Active; 'I' for Inactive)
REMARK    1  A    between atoms: C_1  and  C_2
REMARK    2  A    between atoms: C_2  and  S_3
REMARK    3  A    between atoms: C_2  and  C_10
REMARK    4  A    between atoms: S_3  and  C_4
REMARK    5  A    between atoms: N_8  and  C_9
REMARK    6  A    between atoms: C_14  and  N_15
REMARK    7  A    between atoms: C_16  and  C_18
REMARK                            x       y       z     vdW  Elec       q    Type
REMARK                         _______ _______ _______ _____ _____    ______ ____
ROOT
ATOM      1  C   UNL     1       4.366   5.424  17.435  0.00  0.00    +0.000 A 
ATOM      2  C   UNL     1       3.723   4.175  17.392  0.00  0.00    +0.000 A 
ATOM      3  C   UNL     1       2.583   3.940  18.144  0.00  0.00    +0.000 A 
ATOM      4  C   UNL     1       2.063   4.948  18.955  0.00  0.00    +0.000 A 
ATOM      5  C   UNL     1       2.666   6.204  19.048  0.00  0.00    +0.000 A 
ATOM      6  C   UNL     1       3.831   6.433  18.280  0.00  0.00    +0.000 A 
ENDROOT
BRANCH   5   7
ATOM      7  N   UNL     1       2.169   7.237  19.905  0.00  0.00    +0.000 N 
ATOM      8  C   UNL     1       1.676   8.456  19.472  0.00  0.00    +0.000 C 
ATOM      9  O   UNL     1       1.703   8.873  18.318  0.00  0.00    +0.000 OA
ATOM     10  H   UNL     1       2.129   7.033  20.894  0.00  0.00    +0.000 HD
BRANCH   8  11
ATOM     11  C   UNL     1       0.957   9.312  20.456  0.00  0.00    +0.000 C 
ATOM     12  C   UNL     1       0.510   9.111  21.709  0.00  0.00    +0.000 C 
ATOM     13  C   UNL     1      -0.306  10.276  22.073  0.00  0.00    +0.000 A 
ATOM     14  C   UNL     1      -1.066  10.538  23.199  0.00  0.00    +0.000 A 
ATOM     15  C   UNL     1      -1.941  11.636  23.172  0.00  0.00    +0.000 A 
ATOM     16  C   UNL     1      -2.038  12.458  22.036  0.00  0.00    +0.000 A 
ATOM     17  C   UNL     1      -1.212  12.237  20.937  0.00  0.00    +0.000 A 
ATOM     18  C   UNL     1      -0.348  11.155  20.984  0.00  0.00    +0.000 A 
ATOM     19  C   UNL     1       0.613  10.696  19.942  0.00  0.00    +0.000 C 
ENDBRANCH   8  11
ENDBRANCH   5   7
BRANCH   1  21
ATOM     20  C   UNL     1       6.816   6.259  17.230  0.00  0.00    +0.000 C 
ATOM     21  C   UNL     1       5.608   5.585  16.571  0.00  0.00    +0.000 C 
BRANCH  21  22
ATOM     22  S   UNL     1       6.033   4.062  15.641  0.00  0.00    +0.000 S 
BRANCH  22  23
ATOM     23  C   UNL     1       6.956   4.651  14.313  0.00  0.00    +0.000 A 
ATOM     24  N   UNL     1       7.925   5.535  14.357  0.00  0.00    +0.000 NA
ATOM     25  N   UNL     1       8.385   5.723  13.075  0.00  0.00    +0.000 NA
ATOM     26  C   UNL     1       7.670   4.956  12.285  0.00  0.00    +0.000 A 
ATOM     27  N   UNL     1       6.743   4.275  13.018  0.00  0.00    +0.000 N 
ATOM     28  C   UNL     1       5.762   3.367  12.485  0.00  0.00    +0.000 C 
ENDBRANCH  22  23
ENDBRANCH  21  22
ENDBRANCH   1  21
TORSDOF 5
ENDMDL
MODEL 3
REMARK VINA RESULT:      -8.6      5.372      8.105
REMARK  Name = 
REMARK  7 active torsions:
REMARK  status: ('A' for Active; 'I' for Inactive)
REMARK    1  A    between atoms: C_1  and  C_2
REMARK    2  A    between atoms: C_2  and  S_3
REMARK    3  A    between atoms: C_2  and  C_10
REMARK    4  A    between atoms: S_3  and  C_4
REMARK    5  A    between atoms: N_8  and  C_9
REMARK    6  A    between atoms: C_14  and  N_15
REMARK    7  A    between atoms: C_16  and  C_18
REMARK                            x       y       z     vdW  Elec       q    Type
REMARK                         _______ _______ _______ _____ _____    ______ ____
ROOT
ATOM      1  C   UNL     1       4.695   5.758  17.167  0.00  0.00    +0.000 A 
ATOM      2  C   UNL     1       4.028   4.522  17.103  0.00  0.00    +0.000 A 
ATOM      3  C   UNL     1       2.771   4.367  17.664  0.00  0.00    +0.000 A 
ATOM      4  C   UNL     1       2.153   5.444  18.298  0.00  0.00    +0.000 A 
ATOM      5  C   UNL     1       2.772   6.692  18.404  0.00  0.00    +0.000 A 
ATOM      6  C   UNL     1       4.058   6.839  17.833  0.00  0.00    +0.000 A 
ENDROOT
BRANCH   5   7
ATOM      7  N   UNL     1       2.171   7.797  19.087  0.00  0.00    +0.000 N 
ATOM      8  C   UNL     1       1.701   8.945  18.474  0.00  0.00    +0.000 C 
ATOM      9  O   UNL     1       1.837   9.235  17.289  0.00  0.00    +0.000 OA
ATOM     10  H   UNL     1       2.034   7.700  20.084  0.00  0.00    +0.000 HD
BRANCH   8  11
ATOM     11  C   UNL     1       0.869   9.881  19.281  0.00  0.00    +0.000 C 
ATOM     12  C   UNL     1       0.610  11.198  19.200  0.00  0.00    +0.000 C 
ATOM     13  C   UNL     1      -0.125  11.573  20.414  0.00  0.00    +0.000 A 
ATOM     14  C   UNL     1      -0.550  12.807  20.875  0.00  0.00    +0.000 A 
ATOM     15  C   UNL     1      -1.021  12.899  22.194  0.00  0.00    +0.000 A 
ATOM     16  C   UNL     1      -1.072  11.768  23.027  0.00  0.00    +0.000 A 
ATOM     17  C   UNL     1      -0.719  10.516  22.532  0.00  0.00    +0.000 A 
ATOM     18  C   UNL     1      -0.265  10.440  21.225  0.00  0.00    +0.000 A 
ATOM     19  C   UNL     1       0.188   9.237  20.473  0.00  0.00    +0.000 C 
ENDBRANCH   8  11
ENDBRANCH   5   7
BRANCH   1  21
ATOM     20  C   UNL     1       7.185   6.469  17.352  0.00  0.00    +0.000 C 
ATOM     21  C   UNL     1       6.070   5.828  16.520  0.00  0.00    +0.000 C 
BRANCH  21  22
ATOM     22  S   UNL     1       6.563   4.254  15.718  0.00  0.00    +0.000 S 
BRANCH  22  23
ATOM     23  C   UNL     1       7.204   4.762  14.203  0.00  0.00    +0.000 A 
ATOM     24  N   UNL     1       8.153   5.647  14.006  0.00  0.00    +0.000 NA
ATOM     25  N   UNL     1       8.353   5.758  12.650  0.00  0.00    +0.000 NA
ATOM     26  C   UNL     1       7.507   4.945  12.061  0.00  0.00    +0.000 A 
ATOM     27  N   UNL     1       6.747   4.309  12.998  0.00  0.00    +0.000 N 
ATOM     28  C   UNL     1       5.693   3.371  12.721  0.00  0.00    +0.000 C 
ENDBRANCH  22  23
ENDBRANCH  21  22
ENDBRANCH   1  21
TORSDOF 5
ENDMDL
MODEL 4
REMARK VINA RESULT:      -8.5      4.546      7.723
REMARK  Name = 
REMARK  7 active torsions:
REMARK  status: ('A' for Active; 'I' for Inactive)
REMARK    1  A    between atoms: C_1  and  C_2
REMARK    2  A    between atoms: C_2  and  S_3
REMARK    3  A    between atoms: C_2  and  C_10
REMARK    4  A    between atoms: S_3  and  C_4
REMARK    5  A    between atoms: N_8  and  C_9
REMARK    6  A    between atoms: C_14  and  N_15
REMARK    7  A    between atoms: C_16  and  C_18
REMARK                            x       y       z     vdW  Elec       q    Type
REMARK                         _______ _______ _______ _____ _____    ______ ____
ROOT
ATOM      1  C   UNL     1       4.267   4.433  16.978  0.00  0.00    +0.000 A 
ATOM      2  C   UNL     1       3.466   3.279  16.918  0.00  0.00    +0.000 A 
ATOM      3  C   UNL     1       2.315   3.177  17.681  0.00  0.00    +0.000 A 
ATOM      4  C   UNL     1       1.940   4.224  18.521  0.00  0.00    +0.000 A 
ATOM      5  C   UNL     1       2.702   5.389  18.633  0.00  0.00    +0.000 A 
ATOM      6  C   UNL     1       3.878   5.483  17.853  0.00  0.00    +0.000 A 
ENDROOT
BRANCH   5   7
ATOM      7  N   UNL     1       2.354   6.458  19.519  0.00  0.00    +0.000 N 
ATOM      8  C   UNL     1       1.927   7.711  19.118  0.00  0.00    +0.000 C 
ATOM      9  O   UNL     1       1.898   8.126  17.964  0.00  0.00    +0.000 OA
ATOM     10  H   UNL     1       2.374   6.256  20.509  0.00  0.00    +0.000 HD
BRANCH   8  11
ATOM     11  C   UNL     1       1.353   8.620  20.149  0.00  0.00    +0.000 C 
ATOM     12  C   UNL     1       1.071   8.481  21.457  0.00  0.00    +0.000 C 
ATOM     13  C   UNL     1       0.325   9.674  21.873  0.00  0.00    +0.000 A 
ATOM     14  C   UNL     1      -0.277   9.997  23.076  0.00  0.00    +0.000 A 
ATOM     15  C   UNL     1      -1.134  11.108  23.116  0.00  0.00    +0.000 A 
ATOM     16  C   UNL     1      -1.369  11.884  21.967  0.00  0.00    +0.000 A 
ATOM     17  C   UNL     1      -0.697  11.602  20.780  0.00  0.00    +0.000 A 
ATOM     18  C   UNL     1       0.152  10.508  20.761  0.00  0.00    +0.000 A 
ATOM     19  C   UNL     1       0.962   9.988  19.624  0.00  0.00    +0.000 C 
ENDBRANCH   8  11
ENDBRANCH   5   7
BRANCH   1  21
ATOM     20  C   UNL     1       5.555   5.520  15.003  0.00  0.00    +0.000 C 
ATOM     21  C   UNL     1       5.509   4.451  16.100  0.00  0.00    +0.000 C 
BRANCH  21  22
ATOM     22  S   UNL     1       7.066   4.317  17.061  0.00  0.00    +0.000 S 
BRANCH  22  23
ATOM     23  C   UNL     1       7.462   5.956  17.410  0.00  0.00    +0.000 A 
ATOM     24  N   UNL     1       7.485   6.958  16.562  0.00  0.00    +0.000 NA
ATOM     25  N   UNL     1       7.857   8.087  17.253  0.00  0.00    +0.000 NA
ATOM     26  C   UNL     1       8.063   7.734  18.501  0.00  0.00    +0.000 A 
ATOM     27  N   UNL     1       7.845   6.395  18.644  0.00  0.00    +0.000 N 
ATOM     28  C   UNL     1       8.007   5.650  19.864  0.00  0.00    +0.000 C 
ENDBRANCH  22  23
ENDBRANCH  21  22
ENDBRANCH   1  21
TORSDOF 5
ENDMDL
MODEL 5
REMARK VINA RESULT:      -8.4      1.601      2.743
REMARK  Name = 
REMARK  7 active torsions:
REMARK  status: ('A' for Active; 'I' for Inactive)
REMARK    1  A    between atoms: C_1  and  C_2
REMARK    2  A    between atoms: C_2  and  S_3
REMARK    3  A    between atoms: C_2  and  C_10
REMARK    4  A    between atoms: S_3  and  C_4
REMARK    5  A    between atoms: N_8  and  C_9
REMARK    6  A    between atoms: C_14  and  N_15
REMARK    7  A    between atoms: C_16  and  C_18
REMARK                            x       y       z     vdW  Elec       q    Type
REMARK                         _______ _______ _______ _____ _____    ______ ____
ROOT
ATOM      1  C   UNL     1       5.789   6.159  17.610  0.00  0.00    +0.000 A 
ATOM      2  C   UNL     1       6.541   5.251  18.376  0.00  0.00    +0.000 A 
ATOM      3  C   UNL     1       7.766   5.619  18.907  0.00  0.00    +0.000 A 
ATOM      4  C   UNL     1       8.265   6.901  18.685  0.00  0.00    +0.000 A 
ATOM      5  C   UNL     1       7.569   7.842  17.921  0.00  0.00    +0.000 A 
ATOM      6  C   UNL     1       6.322   7.455  17.379  0.00  0.00    +0.000 A 
ENDROOT
BRANCH   5   7
ATOM      7  N   UNL     1       8.085   9.149  17.649  0.00  0.00    +0.000 N 
ATOM      8  C   UNL     1       8.845   9.899  18.528  0.00  0.00    +0.000 C 
ATOM      9  O   UNL     1       9.087   9.611  19.696  0.00  0.00    +0.000 OA
ATOM     10  H   UNL     1       7.921   9.522  16.723  0.00  0.00    +0.000 HD
BRANCH   8  11
ATOM     11  C   UNL     1       9.525  11.117  18.006  0.00  0.00    +0.000 C 
ATOM     12  C   UNL     1      10.793  11.394  17.652  0.00  0.00    +0.000 C 
ATOM     13  C   UNL     1      10.873  12.839  17.411  0.00  0.00    +0.000 A 
ATOM     14  C   UNL     1      11.952  13.653  17.115  0.00  0.00    +0.000 A 
ATOM     15  C   UNL     1      11.774  15.045  17.174  0.00  0.00    +0.000 A 
ATOM     16  C   UNL     1      10.529  15.602  17.515  0.00  0.00    +0.000 A 
ATOM     17  C   UNL     1       9.427  14.779  17.733  0.00  0.00    +0.000 A 
ATOM     18  C   UNL     1       9.618  13.409  17.661  0.00  0.00    +0.000 A 
ATOM     19  C   UNL     1       8.618  12.325  17.871  0.00  0.00    +0.000 C 
ENDBRANCH   8  11
ENDBRANCH   5   7
BRANCH   1  21
ATOM     20  C   UNL     1       4.379   4.176  16.701  0.00  0.00    +0.000 C 
ATOM     21  C   UNL     1       4.455   5.661  17.072  0.00  0.00    +0.000 C 
BRANCH  21  22
ATOM     22  S   UNL     1       3.024   6.245  18.060  0.00  0.00    +0.000 S 
BRANCH  22  23
ATOM     23  C   UNL     1       2.132   4.804  18.360  0.00  0.00    +0.000 A 
ATOM     24  N   UNL     1       1.540   4.044  17.469  0.00  0.00    +0.000 NA
ATOM     25  N   UNL     1       0.940   3.001  18.134  0.00  0.00    +0.000 NA
ATOM     26  C   UNL     1       1.173   3.168  19.416  0.00  0.00    +0.000 A 
ATOM     27  N   UNL     1       1.905   4.302  19.609  0.00  0.00    +0.000 N 
ATOM     28  C   UNL     1       2.318   4.819  20.886  0.00  0.00    +0.000 C 
ENDBRANCH  22  23
ENDBRANCH  21  22
ENDBRANCH   1  21
TORSDOF 5
ENDMDL
MODEL 6
REMARK VINA RESULT:      -8.4      4.489      7.564
REMARK  Name = 
REMARK  7 active torsions:
REMARK  status: ('A' for Active; 'I' for Inactive)
REMARK    1  A    between atoms: C_1  and  C_2
REMARK    2  A    between atoms: C_2  and  S_3
REMARK    3  A    between atoms: C_2  and  C_10
REMARK    4  A    between atoms: S_3  and  C_4
REMARK    5  A    between atoms: N_8  and  C_9
REMARK    6  A    between atoms: C_14  and  N_15
REMARK    7  A    between atoms: C_16  and  C_18
REMARK                            x       y       z     vdW  Elec       q    Type
REMARK                         _______ _______ _______ _____ _____    ______ ____
ROOT
ATOM      1  C   UNL     1       4.301   4.390  16.775  0.00  0.00    +0.000 A 
ATOM      2  C   UNL     1       3.523   3.222  16.692  0.00  0.00    +0.000 A 
ATOM      3  C   UNL     1       2.382   3.076  17.464  0.00  0.00    +0.000 A 
ATOM      4  C   UNL     1       1.995   4.093  18.335  0.00  0.00    +0.000 A 
ATOM      5  C   UNL     1       2.736   5.270  18.471  0.00  0.00    +0.000 A 
ATOM      6  C   UNL     1       3.901   5.408  17.682  0.00  0.00    +0.000 A 
ENDROOT
BRANCH   5   7
ATOM      7  N   UNL     1       2.376   6.307  19.389  0.00  0.00    +0.000 N 
ATOM      8  C   UNL     1       2.107   7.618  19.037  0.00  0.00    +0.000 C 
ATOM      9  O   UNL     1       2.251   8.106  17.920  0.00  0.00    +0.000 OA
ATOM     10  H   UNL     1       2.260   6.041  20.358  0.00  0.00    +0.000 HD
BRANCH   8  11
ATOM     11  C   UNL     1       1.493   8.508  20.061  0.00  0.00    +0.000 C 
ATOM     12  C   UNL     1       1.248   8.378  21.377  0.00  0.00    +0.000 C 
ATOM     13  C   UNL     1       0.431   9.527  21.784  0.00  0.00    +0.000 A 
ATOM     14  C   UNL     1      -0.169   9.834  22.993  0.00  0.00    +0.000 A 
ATOM     15  C   UNL     1      -1.098  10.886  23.029  0.00  0.00    +0.000 A 
ATOM     16  C   UNL     1      -1.408  11.619  21.870  0.00  0.00    +0.000 A 
ATOM     17  C   UNL     1      -0.742  11.358  20.675  0.00  0.00    +0.000 A 
ATOM     18  C   UNL     1       0.179  10.323  20.660  0.00  0.00    +0.000 A 
ATOM     19  C   UNL     1       1.000   9.835  19.517  0.00  0.00    +0.000 C 
ENDBRANCH   8  11
ENDBRANCH   5   7
BRANCH   1  21
ATOM     20  C   UNL     1       5.350   4.012  14.430  0.00  0.00    +0.000 C 
ATOM     21  C   UNL     1       5.533   4.457  15.885  0.00  0.00    +0.000 C 
BRANCH  21  22
ATOM     22  S   UNL     1       6.458   6.031  16.061  0.00  0.00    +0.000 S 
BRANCH  22  23
ATOM     23  C   UNL     1       7.230   5.871  17.592  0.00  0.00    +0.000 A 
ATOM     24  N   UNL     1       7.308   4.785  18.324  0.00  0.00    +0.000 NA
ATOM     25  N   UNL     1       8.003   5.096  19.469  0.00  0.00    +0.000 NA
ATOM     26  C   UNL     1       8.314   6.371  19.405  0.00  0.00    +0.000 A 
ATOM     27  N   UNL     1       7.831   6.906  18.248  0.00  0.00    +0.000 N 
ATOM     28  C   UNL     1       7.952   8.284  17.853  0.00  0.00    +0.000 C 
ENDBRANCH  22  23
ENDBRANCH  21  22
ENDBRANCH   1  21
TORSDOF 5
ENDMDL
MODEL 7
REMARK VINA RESULT:      -8.4      1.018      1.290
REMARK  Name = 
REMARK  7 active torsions:
REMARK  status: ('A' for Active; 'I' for Inactive)
REMARK    1  A    between atoms: C_1  and  C_2
REMARK    2  A    between atoms: C_2  and  S_3
REMARK    3  A    between atoms: C_2  and  C_10
REMARK    4  A    between atoms: S_3  and  C_4
REMARK    5  A    between atoms: N_8  and  C_9
REMARK    6  A    between atoms: C_14  and  N_15
REMARK    7  A    between atoms: C_16  and  C_18
REMARK                            x       y       z     vdW  Elec       q    Type
REMARK                         _______ _______ _______ _____ _____    ______ ____
ROOT
ATOM      1  C   UNL     1       4.446   5.355  17.064  0.00  0.00    +0.000 A 
ATOM      2  C   UNL     1       5.166   4.411  16.311  0.00  0.00    +0.000 A 
ATOM      3  C   UNL     1       6.470   4.666  15.919  0.00  0.00    +0.000 A 
ATOM      4  C   UNL     1       7.082   5.867  16.273  0.00  0.00    +0.000 A 
ATOM      5  C   UNL     1       6.413   6.847  17.010  0.00  0.00    +0.000 A 
ATOM      6  C   UNL     1       5.080   6.580  17.400  0.00  0.00    +0.000 A 
ENDROOT
BRANCH   5   7
ATOM      7  N   UNL     1       7.012   8.102  17.348  0.00  0.00    +0.000 N 
ATOM      8  C   UNL     1       8.044   8.268  18.253  0.00  0.00    +0.000 C 
ATOM      9  O   UNL     1       8.512   7.396  18.978  0.00  0.00    +0.000 OA
ATOM     10  H   UNL     1       6.686   8.916  16.843  0.00  0.00    +0.000 HD
BRANCH   8  11
ATOM     11  C   UNL     1       8.732   9.589  18.299  0.00  0.00    +0.000 C 
ATOM     12  C   UNL     1       8.995  10.532  17.377  0.00  0.00    +0.000 C 
ATOM     13  C   UNL     1       9.890  11.515  18.000  0.00  0.00    +0.000 A 
ATOM     14  C   UNL     1      10.530  12.623  17.474  0.00  0.00    +0.000 A 
ATOM     15  C   UNL     1      11.524  13.247  18.245  0.00  0.00    +0.000 A 
ATOM     16  C   UNL     1      11.856  12.768  19.524  0.00  0.00    +0.000 A 
ATOM     17  C   UNL     1      11.152  11.703  20.080  0.00  0.00    +0.000 A 
ATOM     18  C   UNL     1      10.168  11.105  19.309  0.00  0.00    +0.000 A 
ATOM     19  C   UNL     1       9.296   9.949  19.660  0.00  0.00    +0.000 C 
ENDBRANCH   8  11
ENDBRANCH   5   7
BRANCH   1  21
ATOM     20  C   UNL     1       2.625   3.514  17.261  0.00  0.00    +0.000 C 
ATOM     21  C   UNL     1       3.022   4.982  17.448  0.00  0.00    +0.000 C 
BRANCH  21  22
ATOM     22  S   UNL     1       2.510   5.681  19.065  0.00  0.00    +0.000 S 
BRANCH  22  23
ATOM     23  C   UNL     1       2.155   4.286  20.008  0.00  0.00    +0.000 A 
ATOM     24  N   UNL     1       0.985   3.939  20.492  0.00  0.00    +0.000 NA
ATOM     25  N   UNL     1       1.147   2.764  21.187  0.00  0.00    +0.000 NA
ATOM     26  C   UNL     1       2.417   2.438  21.117  0.00  0.00    +0.000 A 
ATOM     27  N   UNL     1       3.096   3.378  20.399  0.00  0.00    +0.000 N 
ATOM     28  C   UNL     1       4.512   3.370  20.145  0.00  0.00    +0.000 C 
ENDBRANCH  22  23
ENDBRANCH  21  22
ENDBRANCH   1  21
TORSDOF 5
ENDMDL
MODEL 8
REMARK VINA RESULT:      -8.4      6.648      9.104
REMARK  Name = 
REMARK  7 active torsions:
REMARK  status: ('A' for Active; 'I' for Inactive)
REMARK    1  A    between atoms: C_1  and  C_2
REMARK    2  A    between atoms: C_2  and  S_3
REMARK    3  A    between atoms: C_2  and  C_10
REMARK    4  A    between atoms: S_3  and  C_4
REMARK    5  A    between atoms: N_8  and  C_9
REMARK    6  A    between atoms: C_14  and  N_15
REMARK    7  A    between atoms: C_16  and  C_18
REMARK                            x       y       z     vdW  Elec       q    Type
REMARK                         _______ _______ _______ _____ _____    ______ ____
ROOT
ATOM      1  C   UNL     1       2.655   6.688  19.392  0.00  0.00    +0.000 A 
ATOM      2  C   UNL     1       3.103   7.214  18.168  0.00  0.00    +0.000 A 
ATOM      3  C   UNL     1       2.613   8.420  17.695  0.00  0.00    +0.000 A 
ATOM      4  C   UNL     1       1.665   9.126  18.435  0.00  0.00    +0.000 A 
ATOM      5  C   UNL     1       1.173   8.646  19.652  0.00  0.00    +0.000 A 
ATOM      6  C   UNL     1       1.676   7.412  20.124  0.00  0.00    +0.000 A 
ENDROOT
BRANCH   5   7
ATOM      7  N   UNL     1       0.171   9.337  20.405  0.00  0.00    +0.000 N 
ATOM      8  C   UNL     1       0.417  10.117  21.521  0.00  0.00    +0.000 C 
ATOM      9  O   UNL     1       1.497  10.234  22.093  0.00  0.00    +0.000 OA
ATOM     10  H   UNL     1      -0.777   9.289  20.058  0.00  0.00    +0.000 HD
BRANCH   8  11
ATOM     11  C   UNL     1      -0.685  10.977  22.033  0.00  0.00    +0.000 C 
ATOM     12  C   UNL     1      -1.306  11.083  23.222  0.00  0.00    +0.000 C 
ATOM     13  C   UNL     1      -2.456  11.976  23.037  0.00  0.00    +0.000 A 
ATOM     14  C   UNL     1      -3.468  12.346  23.905  0.00  0.00    +0.000 A 
ATOM     15  C   UNL     1      -4.578  13.028  23.381  0.00  0.00    +0.000 A 
ATOM     16  C   UNL     1      -4.659  13.338  22.013  0.00  0.00    +0.000 A 
ATOM     17  C   UNL     1      -3.601  13.034  21.160  0.00  0.00    +0.000 A 
ATOM     18  C   UNL     1      -2.509  12.370  21.695  0.00  0.00    +0.000 A 
ATOM     19  C   UNL     1      -1.272  11.918  20.998  0.00  0.00    +0.000 C 
ENDBRANCH   8  11
ENDBRANCH   5   7
BRANCH   1  21
ATOM     20  C   UNL     1       2.322   4.397  20.569  0.00  0.00    +0.000 C 
ATOM     21  C   UNL     1       3.255   5.359  19.827  0.00  0.00    +0.000 C 
BRANCH  21  22
ATOM     22  S   UNL     1       4.240   4.554  18.505  0.00  0.00    +0.000 S 
BRANCH  22  23
ATOM     23  C   UNL     1       5.855   5.033  18.864  0.00  0.00    +0.000 A 
ATOM     24  N   UNL     1       6.457   4.965  20.028  0.00  0.00    +0.000 NA
ATOM     25  N   UNL     1       7.732   5.455  19.874  0.00  0.00    +0.000 NA
ATOM     26  C   UNL     1       7.863   5.821  18.619  0.00  0.00    +0.000 A 
ATOM     27  N   UNL     1       6.698   5.592  17.947  0.00  0.00    +0.000 N 
ATOM     28  C   UNL     1       6.461   5.901  16.563  0.00  0.00    +0.000 C 
ENDBRANCH  22  23
ENDBRANCH  21  22
ENDBRANCH   1  21
TORSDOF 5
ENDMDL
MODEL 9
REMARK VINA RESULT:      -8.3      1.252      1.836
REMARK  Name = 
REMARK  7 active torsions:
REMARK  status: ('A' for Active; 'I' for Inactive)
REMARK    1  A    between atoms: C_1  and  C_2
REMARK    2  A    between atoms: C_2  and  S_3
REMARK    3  A    between atoms: C_2  and  C_10
REMARK    4  A    between atoms: S_3  and  C_4
REMARK    5  A    between atoms: N_8  and  C_9
REMARK    6  A    between atoms: C_14  and  N_15
REMARK    7  A    between atoms: C_16  and  C_18
REMARK                            x       y       z     vdW  Elec       q    Type
REMARK                         _______ _______ _______ _____ _____    ______ ____
ROOT
ATOM      1  C   UNL     1       4.451   4.833  16.914  0.00  0.00    +0.000 A 
ATOM      2  C   UNL     1       5.103   4.040  15.954  0.00  0.00    +0.000 A 
ATOM      3  C   UNL     1       6.329   4.423  15.433  0.00  0.00    +0.000 A 
ATOM      4  C   UNL     1       6.928   5.607  15.861  0.00  0.00    +0.000 A 
ATOM      5  C   UNL     1       6.321   6.443  16.803  0.00  0.00    +0.000 A 
ATOM      6  C   UNL     1       5.069   6.045  17.325  0.00  0.00    +0.000 A 
ENDROOT
BRANCH   5   7
ATOM      7  N   UNL     1       6.902   7.681  17.224  0.00  0.00    +0.000 N 
ATOM      8  C   UNL     1       7.861   7.809  18.214  0.00  0.00    +0.000 C 
ATOM      9  O   UNL     1       8.262   6.910  18.947  0.00  0.00    +0.000 OA
ATOM     10  H   UNL     1       6.625   8.512  16.720  0.00  0.00    +0.000 HD
BRANCH   8  11
ATOM     11  C   UNL     1       8.555   9.119  18.353  0.00  0.00    +0.000 C 
ATOM     12  C   UNL     1       9.470   9.599  19.214  0.00  0.00    +0.000 C 
ATOM     13  C   UNL     1       9.605  11.037  18.953  0.00  0.00    +0.000 A 
ATOM     14  C   UNL     1      10.335  12.015  19.605  0.00  0.00    +0.000 A 
ATOM     15  C   UNL     1      10.085  13.359  19.283  0.00  0.00    +0.000 A 
ATOM     16  C   UNL     1       9.126  13.706  18.315  0.00  0.00    +0.000 A 
ATOM     17  C   UNL     1       8.454  12.715  17.605  0.00  0.00    +0.000 A 
ATOM     18  C   UNL     1       8.719  11.394  17.929  0.00  0.00    +0.000 A 
ATOM     19  C   UNL     1       8.124  10.162  17.339  0.00  0.00    +0.000 C 
ENDBRANCH   8  11
ENDBRANCH   5   7
BRANCH   1  21
ATOM     20  C   UNL     1       2.722   2.899  17.024  0.00  0.00    +0.000 C 
ATOM     21  C   UNL     1       3.112   4.325  17.426  0.00  0.00    +0.000 C 
BRANCH  21  22
ATOM     22  S   UNL     1       2.842   4.688  19.204  0.00  0.00    +0.000 S 
BRANCH  22  23
ATOM     23  C   UNL     1       3.626   3.378  20.001  0.00  0.00    +0.000 A 
ATOM     24  N   UNL     1       4.831   2.918  19.761  0.00  0.00    +0.000 NA
ATOM     25  N   UNL     1       5.060   1.865  20.615  0.00  0.00    +0.000 NA
ATOM     26  C   UNL     1       3.977   1.707  21.342  0.00  0.00    +0.000 A 
ATOM     27  N   UNL     1       3.038   2.626  20.977  0.00  0.00    +0.000 N 
ATOM     28  C   UNL     1       1.715   2.732  21.533  0.00  0.00    +0.000 C 
ENDBRANCH  22  23
ENDBRANCH  21  22
ENDBRANCH   1  21
TORSDOF 5
ENDMDL
