MODEL 1
REMARK VINA RESULT:      -8.5      0.000      0.000
REMARK  Name = 
REMARK  7 active torsions:
REMARK  status: ('A' for Active; 'I' for Inactive)
REMARK    1  A    between atoms: C_1  and  N_2
REMARK    2  A    between atoms: C_6  and  C_7
REMARK    3  A    between atoms: C_7  and  C_8
REMARK    4  A    between atoms: C_12  and  O_13
REMARK    5  A    between atoms: O_13  and  C_14
REMARK    6  A    between atoms: C_14  and  N_15
REMARK    7  A    between atoms: C_21  and  C_22
REMARK                            x       y       z     vdW  Elec       q    Type
REMARK                         _______ _______ _______ _____ _____    ______ ____
ROOT
ATOM      1  C   UNL     1       2.729   5.050  18.486  0.00  0.00    +0.000 C 
ENDROOT
BRANCH   1   2
ATOM      2  N   UNL     1       3.627   3.897  18.532  0.00  0.00    +0.000 N 
ATOM      3  C   UNL     1       4.677   3.974  19.533  0.00  0.00    +0.000 C 
ATOM      4  C   UNL     1       5.746   4.690  18.788  0.00  0.00    +0.000 A 
ATOM      5  C   UNL     1       6.628   5.647  19.236  0.00  0.00    +0.000 A 
ATOM      6  C   UNL     1       7.373   6.332  18.277  0.00  0.00    +0.000 A 
ATOM      7  C   UNL     1       7.269   6.003  16.911  0.00  0.00    +0.000 A 
ATOM      8  C   UNL     1       6.382   5.006  16.452  0.00  0.00    +0.000 A 
ATOM      9  C   UNL     1       5.606   4.403  17.427  0.00  0.00    +0.000 A 
ATOM     10  C   UNL     1       4.272   3.756  17.273  0.00  0.00    +0.000 C 
ATOM     11  O   UNL     1       3.779   3.441  16.215  0.00  0.00    +0.000 OA
BRANCH   8  12
ATOM     12  C   UNL     1       6.268   4.644  15.004  0.00  0.00    +0.000 C 
ATOM     13  F   UNL     1       7.325   5.114  14.273  0.00  0.00    +0.000 F 
ATOM     14  F   UNL     1       6.272   3.299  14.803  0.00  0.00    +0.000 F 
ATOM     15  F   UNL     1       5.166   5.139  14.389  0.00  0.00    +0.000 F 
ENDBRANCH   8  12
ENDBRANCH   1   2
BRANCH   1  16
ATOM     16  O   UNL     1       2.852   5.840  19.665  0.00  0.00    +0.000 OA
BRANCH  16  21
ATOM     17  C   UNL     1       0.988   8.946  20.560  0.00  0.00    +0.000 A 
ATOM     18  C   UNL     1       1.124   9.625  19.344  0.00  0.00    +0.000 A 
ATOM     19  C   UNL     1       1.753   9.010  18.260  0.00  0.00    +0.000 A 
ATOM     20  C   UNL     1       2.289   7.728  18.400  0.00  0.00    +0.000 A 
ATOM     21  C   UNL     1       2.236   7.066  19.628  0.00  0.00    +0.000 A 
ATOM     22  C   UNL     1       1.590   7.683  20.706  0.00  0.00    +0.000 A 
BRANCH  17  23
ATOM     23  C   UNL     1       0.222   9.568  21.706  0.00  0.00    +0.000 C 
BRANCH  23  29
ATOM     24  C   UNL     1      -1.894  11.604  22.930  0.00  0.00    +0.000 C 
ATOM     25  N   UNL     1      -0.658  11.917  22.268  0.00  0.00    +0.000 N 
ATOM     26  C   UNL     1      -0.207  13.179  22.016  0.00  0.00    +0.000 A 
ATOM     27  N   UNL     1       0.964  13.118  21.432  0.00  0.00    +0.000 NA
ATOM     28  N   UNL     1       1.281  11.790  21.277  0.00  0.00    +0.000 NA
ATOM     29  C   UNL     1       0.295  11.061  21.766  0.00  0.00    +0.000 A 
ENDBRANCH  23  29
ENDBRANCH  17  23
ENDBRANCH  16  21
ENDBRANCH   1  16
TORSDOF 6
ENDMDL
MODEL 2
REMARK VINA RESULT:      -8.5      4.391      5.540
REMARK  Name = 
REMARK  7 active torsions:
REMARK  status: ('A' for Active; 'I' for Inactive)
REMARK    1  A    between atoms: C_1  and  N_2
REMARK    2  A    between atoms: C_6  and  C_7
REMARK    3  A    between atoms: C_7  and  C_8
REMARK    4  A    between atoms: C_12  and  O_13
REMARK    5  A    between atoms: O_13  and  C_14
REMARK    6  A    between atoms: C_14  and  N_15
REMARK    7  A    between atoms: C_21  and  C_22
REMARK                            x       y       z     vdW  Elec       q    Type
REMARK                         _______ _______ _______ _____ _____    ______ ____
ROOT
ATOM      1  C   UNL     1       2.460   7.737  17.717  0.00  0.00    +0.000 C 
ENDROOT
BRANCH   1   2
ATOM      2  N   UNL     1       3.512   7.127  18.529  0.00  0.00    +0.000 N 
ATOM      3  C   UNL     1       4.452   6.296  17.797  0.00  0.00    +0.000 C 
ATOM      4  C   UNL     1       3.765   4.978  17.820  0.00  0.00    +0.000 A 
ATOM      5  C   UNL     1       3.691   4.017  16.837  0.00  0.00    +0.000 A 
ATOM      6  C   UNL     1       2.784   2.975  17.026  0.00  0.00    +0.000 A 
ATOM      7  C   UNL     1       2.027   2.882  18.211  0.00  0.00    +0.000 A 
ATOM      8  C   UNL     1       2.118   3.854  19.229  0.00  0.00    +0.000 A 
ATOM      9  C   UNL     1       2.973   4.912  18.971  0.00  0.00    +0.000 A 
ATOM     10  C   UNL     1       2.917   6.298  19.517  0.00  0.00    +0.000 C 
ATOM     11  O   UNL     1       2.253   6.633  20.471  0.00  0.00    +0.000 OA
BRANCH   8  12
ATOM     12  C   UNL     1       1.323   3.762  20.495  0.00  0.00    +0.000 C 
ATOM     13  F   UNL     1       0.771   2.521  20.665  0.00  0.00    +0.000 F 
ATOM     14  F   UNL     1       2.086   3.962  21.603  0.00  0.00    +0.000 F 
ATOM     15  F   UNL     1       0.279   4.626  20.563  0.00  0.00    +0.000 F 
ENDBRANCH   8  12
ENDBRANCH   1   2
BRANCH   1  16
ATOM     16  O   UNL     1       2.650   9.146  17.612  0.00  0.00    +0.000 OA
BRANCH  16  21
ATOM     17  C   UNL     1      -0.812  10.391  18.236  0.00  0.00    +0.000 A 
ATOM     18  C   UNL     1      -0.487  11.639  18.781  0.00  0.00    +0.000 A 
ATOM     19  C   UNL     1       0.846  12.051  18.853  0.00  0.00    +0.000 A 
ATOM     20  C   UNL     1       1.863  11.199  18.419  0.00  0.00    +0.000 A 
ATOM     21  C   UNL     1       1.566   9.919  17.948  0.00  0.00    +0.000 A 
ATOM     22  C   UNL     1       0.228   9.518  17.865  0.00  0.00    +0.000 A 
BRANCH  17  23
ATOM     23  C   UNL     1      -2.257   9.980  18.065  0.00  0.00    +0.000 C 
BRANCH  23  29
ATOM     24  C   UNL     1      -4.788  11.734  17.262  0.00  0.00    +0.000 C 
ATOM     25  N   UNL     1      -3.941  10.965  16.392  0.00  0.00    +0.000 N 
ATOM     26  C   UNL     1      -4.124  10.831  15.047  0.00  0.00    +0.000 A 
ATOM     27  N   UNL     1      -3.163  10.098  14.544  0.00  0.00    +0.000 NA
ATOM     28  N   UNL     1      -2.341   9.724  15.580  0.00  0.00    +0.000 NA
ATOM     29  C   UNL     1      -2.819  10.233  16.702  0.00  0.00    +0.000 A 
ENDBRANCH  23  29
ENDBRANCH  17  23
ENDBRANCH  16  21
ENDBRANCH   1  16
TORSDOF 6
ENDMDL
MODEL 3
REMARK VINA RESULT:      -8.5      3.542      4.604
REMARK  Name = 
REMARK  7 active torsions:
REMARK  status: ('A' for Active; 'I' for Inactive)
REMARK    1  A    between atoms: C_1  and  N_2
REMARK    2  A    between atoms: C_6  and  C_7
REMARK    3  A    between atoms: C_7  and  C_8
REMARK    4  A    between atoms: C_12  and  O_13
REMARK    5  A    between atoms: O_13  and  C_14
REMARK    6  A    between atoms: C_14  and  N_15
REMARK    7  A    between atoms: C_21  and  C_22
REMARK                            x       y       z     vdW  Elec       q    Type
REMARK                         _______ _______ _______ _____ _____    ______ ____
ROOT
ATOM      1  C   UNL     1       1.918   7.861  17.631  0.00  0.00    +0.000 C 
ENDROOT
BRANCH   1   2
ATOM      2  N   UNL     1       3.054   7.465  18.462  0.00  0.00    +0.000 N 
ATOM      3  C   UNL     1       4.113   6.760  17.762  0.00  0.00    +0.000 C 
ATOM      4  C   UNL     1       3.644   5.352  17.853  0.00  0.00    +0.000 A 
ATOM      5  C   UNL     1       3.722   4.345  16.918  0.00  0.00    +0.000 A 
ATOM      6  C   UNL     1       2.992   3.183  17.163  0.00  0.00    +0.000 A 
ATOM      7  C   UNL     1       2.260   3.028  18.357  0.00  0.00    +0.000 A 
ATOM      8  C   UNL     1       2.197   4.050  19.328  0.00  0.00    +0.000 A 
ATOM      9  C   UNL     1       2.873   5.216  19.013  0.00  0.00    +0.000 A 
ATOM     10  C   UNL     1       2.598   6.600  19.494  0.00  0.00    +0.000 C 
ATOM     11  O   UNL     1       1.891   6.871  20.436  0.00  0.00    +0.000 OA
BRANCH   8  12
ATOM     12  C   UNL     1       1.428   3.893  20.603  0.00  0.00    +0.000 C 
ATOM     13  F   UNL     1       0.280   4.638  20.605  0.00  0.00    +0.000 F 
ATOM     14  F   UNL     1       1.016   2.613  20.806  0.00  0.00    +0.000 F 
ATOM     15  F   UNL     1       2.102   4.280  21.714  0.00  0.00    +0.000 F 
ENDBRANCH   8  12
ENDBRANCH   1   2
BRANCH   1  16
ATOM     16  O   UNL     1       1.881   9.276  17.460  0.00  0.00    +0.000 OA
BRANCH  16  21
ATOM     17  C   UNL     1       0.043  11.421  19.899  0.00  0.00    +0.000 A 
ATOM     18  C   UNL     1      -1.249  11.252  19.388  0.00  0.00    +0.000 A 
ATOM     19  C   UNL     1      -1.475  10.386  18.316  0.00  0.00    +0.000 A 
ATOM     20  C   UNL     1      -0.404   9.718  17.721  0.00  0.00    +0.000 A 
ATOM     21  C   UNL     1       0.903   9.935  18.162  0.00  0.00    +0.000 A 
ATOM     22  C   UNL     1       1.121  10.793  19.246  0.00  0.00    +0.000 A 
BRANCH  17  23
ATOM     23  C   UNL     1       0.281  12.279  21.120  0.00  0.00    +0.000 C 
BRANCH  23  29
ATOM     24  C   UNL     1      -0.824  10.160  23.221  0.00  0.00    +0.000 C 
ATOM     25  N   UNL     1      -1.374  11.449  22.903  0.00  0.00    +0.000 N 
ATOM     26  C   UNL     1      -2.517  11.961  23.442  0.00  0.00    +0.000 A 
ATOM     27  N   UNL     1      -2.722  13.166  22.971  0.00  0.00    +0.000 NA
ATOM     28  N   UNL     1      -1.705  13.445  22.090  0.00  0.00    +0.000 NA
ATOM     29  C   UNL     1      -0.897  12.402  22.033  0.00  0.00    +0.000 A 
ENDBRANCH  23  29
ENDBRANCH  17  23
ENDBRANCH  16  21
ENDBRANCH   1  16
TORSDOF 6
ENDMDL
MODEL 4
REMARK VINA RESULT:      -8.5      3.439      4.530
REMARK  Name = 
REMARK  7 active torsions:
REMARK  status: ('A' for Active; 'I' for Inactive)
REMARK    1  A    between atoms: C_1  and  N_2
REMARK    2  A    between atoms: C_6  and  C_7
REMARK    3  A    between atoms: C_7  and  C_8
REMARK    4  A    between atoms: C_12  and  O_13
REMARK    5  A    between atoms: O_13  and  C_14
REMARK    6  A    between atoms: C_14  and  N_15
REMARK    7  A    between atoms: C_21  and  C_22
REMARK                            x       y       z     vdW  Elec       q    Type
REMARK                         _______ _______ _______ _____ _____    ______ ____
ROOT
ATOM      1  C   UNL     1       2.134   7.666  17.542  0.00  0.00    +0.000 C 
ENDROOT
BRANCH   1   2
ATOM      2  N   UNL     1       3.238   7.201  18.381  0.00  0.00    +0.000 N 
ATOM      3  C   UNL     1       4.238   6.400  17.696  0.00  0.00    +0.000 C 
ATOM      4  C   UNL     1       3.661   5.036  17.818  0.00  0.00    +0.000 A 
ATOM      5  C   UNL     1       3.660   4.006  16.904  0.00  0.00    +0.000 A 
ATOM      6  C   UNL     1       2.843   2.910  17.175  0.00  0.00    +0.000 A 
ATOM      7  C   UNL     1       2.103   2.837  18.373  0.00  0.00    +0.000 A 
ATOM      8  C   UNL     1       2.122   3.882  19.321  0.00  0.00    +0.000 A 
ATOM      9  C   UNL     1       2.885   4.985  18.980  0.00  0.00    +0.000 A 
ATOM     10  C   UNL     1       2.719   6.396  19.431  0.00  0.00    +0.000 C 
ATOM     11  O   UNL     1       2.036   6.741  20.368  0.00  0.00    +0.000 OA
BRANCH   8  12
ATOM     12  C   UNL     1       1.345   3.812  20.599  0.00  0.00    +0.000 C 
ATOM     13  F   UNL     1       0.238   4.616  20.571  0.00  0.00    +0.000 F 
ATOM     14  F   UNL     1       0.867   2.564  20.849  0.00  0.00    +0.000 F 
ATOM     15  F   UNL     1       2.039   4.204  21.697  0.00  0.00    +0.000 F 
ENDBRANCH   8  12
ENDBRANCH   1   2
BRANCH   1  16
ATOM     16  O   UNL     1       2.027   9.086  17.583  0.00  0.00    +0.000 OA
BRANCH  16  21
ATOM     17  C   UNL     1      -0.034  10.368  20.418  0.00  0.00    +0.000 A 
ATOM     18  C   UNL     1      -1.193  10.689  19.701  0.00  0.00    +0.000 A 
ATOM     19  C   UNL     1      -1.279  10.404  18.337  0.00  0.00    +0.000 A 
ATOM     20  C   UNL     1      -0.190   9.836  17.673  0.00  0.00    +0.000 A 
ATOM     21  C   UNL     1       1.003   9.584  18.352  0.00  0.00    +0.000 A 
ATOM     22  C   UNL     1       1.077   9.858  19.722  0.00  0.00    +0.000 A 
BRANCH  17  23
ATOM     23  C   UNL     1       0.029  10.583  21.913  0.00  0.00    +0.000 C 
BRANCH  23  29
ATOM     24  C   UNL     1       0.481  13.719  21.621  0.00  0.00    +0.000 C 
ATOM     25  N   UNL     1      -0.586  13.047  22.310  0.00  0.00    +0.000 N 
ATOM     26  C   UNL     1      -1.580  13.672  23.004  0.00  0.00    +0.000 A 
ATOM     27  N   UNL     1      -2.410  12.779  23.482  0.00  0.00    +0.000 NA
ATOM     28  N   UNL     1      -1.944  11.540  23.113  0.00  0.00    +0.000 NA
ATOM     29  C   UNL     1      -0.831  11.698  22.419  0.00  0.00    +0.000 A 
ENDBRANCH  23  29
ENDBRANCH  17  23
ENDBRANCH  16  21
ENDBRANCH   1  16
TORSDOF 6
ENDMDL
MODEL 5
REMARK VINA RESULT:      -8.4      0.852      1.118
REMARK  Name = 
REMARK  7 active torsions:
REMARK  status: ('A' for Active; 'I' for Inactive)
REMARK    1  A    between atoms: C_1  and  N_2
REMARK    2  A    between atoms: C_6  and  C_7
REMARK    3  A    between atoms: C_7  and  C_8
REMARK    4  A    between atoms: C_12  and  O_13
REMARK    5  A    between atoms: O_13  and  C_14
REMARK    6  A    between atoms: C_14  and  N_15
REMARK    7  A    between atoms: C_21  and  C_22
REMARK                            x       y       z     vdW  Elec       q    Type
REMARK                         _______ _______ _______ _____ _____    ______ ____
ROOT
ATOM      1  C   UNL     1       2.685   5.458  18.336  0.00  0.00    +0.000 C 
ENDROOT
BRANCH   1   2
ATOM      2  N   UNL     1       3.480   4.245  18.520  0.00  0.00    +0.000 N 
ATOM      3  C   UNL     1       4.494   4.324  19.558  0.00  0.00    +0.000 C 
ATOM      4  C   UNL     1       5.647   4.883  18.806  0.00  0.00    +0.000 A 
ATOM      5  C   UNL     1       6.589   5.801  19.211  0.00  0.00    +0.000 A 
ATOM      6  C   UNL     1       7.426   6.337  18.233  0.00  0.00    +0.000 A 
ATOM      7  C   UNL     1       7.347   5.898  16.896  0.00  0.00    +0.000 A 
ATOM      8  C   UNL     1       6.397   4.941  16.483  0.00  0.00    +0.000 A 
ATOM      9  C   UNL     1       5.536   4.490  17.468  0.00  0.00    +0.000 A 
ATOM     10  C   UNL     1       4.159   3.943  17.309  0.00  0.00    +0.000 C 
ATOM     11  O   UNL     1       3.683   3.577  16.259  0.00  0.00    +0.000 OA
BRANCH   8  12
ATOM     12  C   UNL     1       6.309   4.464  15.066  0.00  0.00    +0.000 C 
ATOM     13  F   UNL     1       6.182   3.104  14.989  0.00  0.00    +0.000 F 
ATOM     14  F   UNL     1       5.219   4.956  14.420  0.00  0.00    +0.000 F 
ATOM     15  F   UNL     1       7.394   4.760  14.308  0.00  0.00    +0.000 F 
ENDBRANCH   8  12
ENDBRANCH   1   2
BRANCH   1  16
ATOM     16  O   UNL     1       2.696   6.259  19.515  0.00  0.00    +0.000 OA
BRANCH  16  21
ATOM     17  C   UNL     1       0.995   9.514  20.178  0.00  0.00    +0.000 A 
ATOM     18  C   UNL     1       1.186  10.104  18.923  0.00  0.00    +0.000 A 
ATOM     19  C   UNL     1       1.795   9.387  17.892  0.00  0.00    +0.000 A 
ATOM     20  C   UNL     1       2.256   8.089  18.122  0.00  0.00    +0.000 A 
ATOM     21  C   UNL     1       2.150   7.512  19.389  0.00  0.00    +0.000 A 
ATOM     22  C   UNL     1       1.524   8.231  20.414  0.00  0.00    +0.000 A 
BRANCH  17  23
ATOM     23  C   UNL     1       0.249  10.248  21.268  0.00  0.00    +0.000 C 
BRANCH  23  29
ATOM     24  C   UNL     1      -2.037  12.019  19.940  0.00  0.00    +0.000 C 
ATOM     25  N   UNL     1      -0.784  12.467  20.482  0.00  0.00    +0.000 N 
ATOM     26  C   UNL     1      -0.350  13.760  20.472  0.00  0.00    +0.000 A 
ATOM     27  N   UNL     1       0.811  13.837  21.074  0.00  0.00    +0.000 NA
ATOM     28  N   UNL     1       1.158  12.568  21.470  0.00  0.00    +0.000 NA
ATOM     29  C   UNL     1       0.203  11.734  21.099  0.00  0.00    +0.000 A 
ENDBRANCH  23  29
ENDBRANCH  17  23
ENDBRANCH  16  21
ENDBRANCH   1  16
TORSDOF 6
ENDMDL
MODEL 6
REMARK VINA RESULT:      -8.4      3.580      4.671
REMARK  Name = 
REMARK  7 active torsions:
REMARK  status: ('A' for Active; 'I' for Inactive)
REMARK    1  A    between atoms: C_1  and  N_2
REMARK    2  A    between atoms: C_6  and  C_7
REMARK    3  A    between atoms: C_7  and  C_8
REMARK    4  A    between atoms: C_12  and  O_13
REMARK    5  A    between atoms: O_13  and  C_14
REMARK    6  A    between atoms: C_14  and  N_15
REMARK    7  A    between atoms: C_21  and  C_22
REMARK                            x       y       z     vdW  Elec       q    Type
REMARK                         _______ _______ _______ _____ _____    ______ ____
ROOT
ATOM      1  C   UNL     1       2.084   7.958  17.565  0.00  0.00    +0.000 C 
ENDROOT
BRANCH   1   2
ATOM      2  N   UNL     1       3.210   7.487  18.371  0.00  0.00    +0.000 N 
ATOM      3  C   UNL     1       4.191   6.692  17.653  0.00  0.00    +0.000 C 
ATOM      4  C   UNL     1       3.618   5.326  17.779  0.00  0.00    +0.000 A 
ATOM      5  C   UNL     1       3.592   4.304  16.857  0.00  0.00    +0.000 A 
ATOM      6  C   UNL     1       2.782   3.205  17.140  0.00  0.00    +0.000 A 
ATOM      7  C   UNL     1       2.075   3.123  18.356  0.00  0.00    +0.000 A 
ATOM      8  C   UNL     1       2.119   4.159  19.312  0.00  0.00    +0.000 A 
ATOM      9  C   UNL     1       2.873   5.266  18.960  0.00  0.00    +0.000 A 
ATOM     10  C   UNL     1       2.719   6.673  19.428  0.00  0.00    +0.000 C 
ATOM     11  O   UNL     1       2.062   7.011  20.385  0.00  0.00    +0.000 OA
BRANCH   8  12
ATOM     12  C   UNL     1       1.376   4.080  20.610  0.00  0.00    +0.000 C 
ATOM     13  F   UNL     1       2.165   4.421  21.675  0.00  0.00    +0.000 F 
ATOM     14  F   UNL     1       0.325   4.941  20.661  0.00  0.00    +0.000 F 
ATOM     15  F   UNL     1       0.899   2.845  20.906  0.00  0.00    +0.000 F 
ENDBRANCH   8  12
ENDBRANCH   1   2
BRANCH   1  16
ATOM     16  O   UNL     1       2.018   9.382  17.566  0.00  0.00    +0.000 OA
BRANCH  16  21
ATOM     17  C   UNL     1      -0.087  11.209  20.047  0.00  0.00    +0.000 A 
ATOM     18  C   UNL     1      -1.332  11.027  19.434  0.00  0.00    +0.000 A 
ATOM     19  C   UNL     1      -1.441  10.252  18.278  0.00  0.00    +0.000 A 
ATOM     20  C   UNL     1      -0.299   9.691  17.703  0.00  0.00    +0.000 A 
ATOM     21  C   UNL     1       0.962   9.928  18.252  0.00  0.00    +0.000 A 
ATOM     22  C   UNL     1       1.063  10.694  19.420  0.00  0.00    +0.000 A 
BRANCH  17  23
ATOM     23  C   UNL     1       0.024  11.964  21.352  0.00  0.00    +0.000 C 
BRANCH  23  29
ATOM     24  C   UNL     1      -2.130  14.293  21.103  0.00  0.00    +0.000 C 
ATOM     25  N   UNL     1      -2.159  13.163  21.990  0.00  0.00    +0.000 N 
ATOM     26  C   UNL     1      -3.126  12.930  22.922  0.00  0.00    +0.000 A 
ATOM     27  N   UNL     1      -2.878  11.801  23.539  0.00  0.00    +0.000 NA
ATOM     28  N   UNL     1      -1.714  11.291  23.018  0.00  0.00    +0.000 NA
ATOM     29  C   UNL     1      -1.267  12.120  22.092  0.00  0.00    +0.000 A 
ENDBRANCH  23  29
ENDBRANCH  17  23
ENDBRANCH  16  21
ENDBRANCH   1  16
TORSDOF 6
ENDMDL
MODEL 7
REMARK VINA RESULT:      -8.4      1.379      1.793
REMARK  Name = 
REMARK  7 active torsions:
REMARK  status: ('A' for Active; 'I' for Inactive)
REMARK    1  A    between atoms: C_1  and  N_2
REMARK    2  A    between atoms: C_6  and  C_7
REMARK    3  A    between atoms: C_7  and  C_8
REMARK    4  A    between atoms: C_12  and  O_13
REMARK    5  A    between atoms: O_13  and  C_14
REMARK    6  A    between atoms: C_14  and  N_15
REMARK    7  A    between atoms: C_21  and  C_22
REMARK                            x       y       z     vdW  Elec       q    Type
REMARK                         _______ _______ _______ _____ _____    ______ ____
ROOT
ATOM      1  C   UNL     1       2.730   4.538  18.616  0.00  0.00    +0.000 C 
ENDROOT
BRANCH   1   2
ATOM      2  N   UNL     1       3.764   3.505  18.591  0.00  0.00    +0.000 N 
ATOM      3  C   UNL     1       4.832   3.679  19.561  0.00  0.00    +0.000 C 
ATOM      4  C   UNL     1       5.777   4.547  18.810  0.00  0.00    +0.000 A 
ATOM      5  C   UNL     1       6.550   5.591  19.266  0.00  0.00    +0.000 A 
ATOM      6  C   UNL     1       7.170   6.394  18.310  0.00  0.00    +0.000 A 
ATOM      7  C   UNL     1       7.058   6.101  16.936  0.00  0.00    +0.000 A 
ATOM      8  C   UNL     1       6.285   5.017  16.469  0.00  0.00    +0.000 A 
ATOM      9  C   UNL     1       5.625   4.290  17.444  0.00  0.00    +0.000 A 
ATOM     10  C   UNL     1       4.376   3.488  17.309  0.00  0.00    +0.000 C 
ATOM     11  O   UNL     1       3.888   3.149  16.255  0.00  0.00    +0.000 OA
BRANCH   8  12
ATOM     12  C   UNL     1       6.165   4.692  15.012  0.00  0.00    +0.000 C 
ATOM     13  F   UNL     1       4.986   5.141  14.482  0.00  0.00    +0.000 F 
ATOM     14  F   UNL     1       7.135   5.286  14.266  0.00  0.00    +0.000 F 
ATOM     15  F   UNL     1       6.197   3.366  14.731  0.00  0.00    +0.000 F 
ENDBRANCH   8  12
ENDBRANCH   1   2
BRANCH   1  16
ATOM     16  O   UNL     1       3.050   5.557  19.560  0.00  0.00    +0.000 OA
BRANCH  16  21
ATOM     17  C   UNL     1       1.415   8.910  19.665  0.00  0.00    +0.000 A 
ATOM     18  C   UNL     1       1.881   9.404  18.441  0.00  0.00    +0.000 A 
ATOM     19  C   UNL     1       2.647   8.595  17.600  0.00  0.00    +0.000 A 
ATOM     20  C   UNL     1       2.988   7.301  17.998  0.00  0.00    +0.000 A 
ATOM     21  C   UNL     1       2.602   6.817  19.249  0.00  0.00    +0.000 A 
ATOM     22  C   UNL     1       1.822   7.629  20.081  0.00  0.00    +0.000 A 
BRANCH  17  23
ATOM     23  C   UNL     1       0.503   9.746  20.535  0.00  0.00    +0.000 C 
BRANCH  23  29
ATOM     24  C   UNL     1       1.191  12.830  20.168  0.00  0.00    +0.000 C 
ATOM     25  N   UNL     1       0.032  12.128  19.692  0.00  0.00    +0.000 N 
ATOM     26  C   UNL     1      -1.007  12.705  19.024  0.00  0.00    +0.000 A 
ATOM     27  N   UNL     1      -1.884  11.787  18.700  0.00  0.00    +0.000 NA
ATOM     28  N   UNL     1      -1.424  10.586  19.183  0.00  0.00    +0.000 NA
ATOM     29  C   UNL     1      -0.273  10.791  19.798  0.00  0.00    +0.000 A 
ENDBRANCH  23  29
ENDBRANCH  17  23
ENDBRANCH  16  21
ENDBRANCH   1  16
TORSDOF 6
ENDMDL
MODEL 8
REMARK VINA RESULT:      -8.3      4.715      9.306
REMARK  Name = 
REMARK  7 active torsions:
REMARK  status: ('A' for Active; 'I' for Inactive)
REMARK    1  A    between atoms: C_1  and  N_2
REMARK    2  A    between atoms: C_6  and  C_7
REMARK    3  A    between atoms: C_7  and  C_8
REMARK    4  A    between atoms: C_12  and  O_13
REMARK    5  A    between atoms: O_13  and  C_14
REMARK    6  A    between atoms: C_14  and  N_15
REMARK    7  A    between atoms: C_21  and  C_22
REMARK                            x       y       z     vdW  Elec       q    Type
REMARK                         _______ _______ _______ _____ _____    ______ ____
ROOT
ATOM      1  C   UNL     1      -0.401   9.959  20.434  0.00  0.00    +0.000 C 
ENDROOT
BRANCH   1   2
ATOM      2  N   UNL     1      -0.205  11.158  19.619  0.00  0.00    +0.000 N 
ATOM      3  C   UNL     1      -0.693  12.392  20.211  0.00  0.00    +0.000 C 
ATOM      4  C   UNL     1      -2.109  12.399  19.760  0.00  0.00    +0.000 A 
ATOM      5  C   UNL     1      -3.237  12.802  20.439  0.00  0.00    +0.000 A 
ATOM      6  C   UNL     1      -4.472  12.483  19.876  0.00  0.00    +0.000 A 
ATOM      7  C   UNL     1      -4.552  11.833  18.628  0.00  0.00    +0.000 A 
ATOM      8  C   UNL     1      -3.396  11.439  17.921  0.00  0.00    +0.000 A 
ATOM      9  C   UNL     1      -2.192  11.706  18.548  0.00  0.00    +0.000 A 
ATOM     10  C   UNL     1      -0.890  10.999  18.384  0.00  0.00    +0.000 C 
ATOM     11  O   UNL     1      -0.632  10.236  17.482  0.00  0.00    +0.000 OA
BRANCH   8  12
ATOM     12  C   UNL     1      -3.469  10.754  16.591  0.00  0.00    +0.000 C 
ATOM     13  F   UNL     1      -3.224   9.412  16.692  0.00  0.00    +0.000 F 
ATOM     14  F   UNL     1      -4.704  10.844  16.028  0.00  0.00    +0.000 F 
ATOM     15  F   UNL     1      -2.576  11.209  15.678  0.00  0.00    +0.000 F 
ENDBRANCH   8  12
ENDBRANCH   1   2
BRANCH   1  16
ATOM     16  O   UNL     1       0.835   9.512  20.986  0.00  0.00    +0.000 OA
BRANCH  16  21
ATOM     17  C   UNL     1       2.056   6.069  20.221  0.00  0.00    +0.000 A 
ATOM     18  C   UNL     1       2.504   6.296  18.914  0.00  0.00    +0.000 A 
ATOM     19  C   UNL     1       2.458   7.579  18.366  0.00  0.00    +0.000 A 
ATOM     20  C   UNL     1       1.923   8.635  19.106  0.00  0.00    +0.000 A 
ATOM     21  C   UNL     1       1.395   8.414  20.379  0.00  0.00    +0.000 A 
ATOM     22  C   UNL     1       1.458   7.128  20.929  0.00  0.00    +0.000 A 
BRANCH  17  23
ATOM     23  C   UNL     1       2.194   4.704  20.855  0.00  0.00    +0.000 C 
BRANCH  23  29
ATOM     24  C   UNL     1       4.259   2.544  19.760  0.00  0.00    +0.000 C 
ATOM     25  N   UNL     1       2.863   2.664  19.441  0.00  0.00    +0.000 N 
ATOM     26  C   UNL     1       2.196   1.869  18.556  0.00  0.00    +0.000 A 
ATOM     27  N   UNL     1       0.934   2.216  18.520  0.00  0.00    +0.000 NA
ATOM     28  N   UNL     1       0.769   3.273  19.382  0.00  0.00    +0.000 NA
ATOM     29  C   UNL     1       1.938   3.558  19.928  0.00  0.00    +0.000 A 
ENDBRANCH  23  29
ENDBRANCH  17  23
ENDBRANCH  16  21
ENDBRANCH   1  16
TORSDOF 6
ENDMDL
MODEL 9
REMARK VINA RESULT:      -8.3      4.307      5.587
REMARK  Name = 
REMARK  7 active torsions:
REMARK  status: ('A' for Active; 'I' for Inactive)
REMARK    1  A    between atoms: C_1  and  N_2
REMARK    2  A    between atoms: C_6  and  C_7
REMARK    3  A    between atoms: C_7  and  C_8
REMARK    4  A    between atoms: C_12  and  O_13
REMARK    5  A    between atoms: O_13  and  C_14
REMARK    6  A    between atoms: C_14  and  N_15
REMARK    7  A    between atoms: C_21  and  C_22
REMARK                            x       y       z     vdW  Elec       q    Type
REMARK                         _______ _______ _______ _____ _____    ______ ____
ROOT
ATOM      1  C   UNL     1       2.178   7.974  17.568  0.00  0.00    +0.000 C 
ENDROOT
BRANCH   1   2
ATOM      2  N   UNL     1       3.278   7.443  18.372  0.00  0.00    +0.000 N 
ATOM      3  C   UNL     1       4.220   6.604  17.651  0.00  0.00    +0.000 C 
ATOM      4  C   UNL     1       3.579   5.268  17.768  0.00  0.00    +0.000 A 
ATOM      5  C   UNL     1       3.503   4.254  16.840  0.00  0.00    +0.000 A 
ATOM      6  C   UNL     1       2.640   3.195  17.117  0.00  0.00    +0.000 A 
ATOM      7  C   UNL     1       1.928   3.141  18.331  0.00  0.00    +0.000 A 
ATOM      8  C   UNL     1       2.021   4.169  19.293  0.00  0.00    +0.000 A 
ATOM      9  C   UNL     1       2.830   5.238  18.949  0.00  0.00    +0.000 A 
ATOM     10  C   UNL     1       2.746   6.648  19.424  0.00  0.00    +0.000 C 
ATOM     11  O   UNL     1       2.104   7.013  20.382  0.00  0.00    +0.000 OA
BRANCH   8  12
ATOM     12  C   UNL     1       1.274   4.118  20.590  0.00  0.00    +0.000 C 
ATOM     13  F   UNL     1       2.066   4.457  21.653  0.00  0.00    +0.000 F 
ATOM     14  F   UNL     1       0.240   5.001  20.627  0.00  0.00    +0.000 F 
ATOM     15  F   UNL     1       0.771   2.897  20.899  0.00  0.00    +0.000 F 
ENDBRANCH   8  12
ENDBRANCH   1   2
BRANCH   1  16
ATOM     16  O   UNL     1       2.187   9.399  17.573  0.00  0.00    +0.000 OA
BRANCH  16  21
ATOM     17  C   UNL     1      -1.406  10.141  18.258  0.00  0.00    +0.000 A 
ATOM     18  C   UNL     1      -1.243  11.377  18.895  0.00  0.00    +0.000 A 
ATOM     19  C   UNL     1       0.025  11.950  19.006  0.00  0.00    +0.000 A 
ATOM     20  C   UNL     1       1.143  11.270  18.520  0.00  0.00    +0.000 A 
ATOM     21  C   UNL     1       1.013  10.000  17.955  0.00  0.00    +0.000 A 
ATOM     22  C   UNL     1      -0.263   9.438  17.833  0.00  0.00    +0.000 A 
BRANCH  17  23
ATOM     23  C   UNL     1      -2.786   9.562  18.046  0.00  0.00    +0.000 C 
BRANCH  23  29
ATOM     24  C   UNL     1      -3.354  10.840  15.188  0.00  0.00    +0.000 C 
ATOM     25  N   UNL     1      -4.024  11.127  16.426  0.00  0.00    +0.000 N 
ATOM     26  C   UNL     1      -5.012  12.055  16.579  0.00  0.00    +0.000 A 
ATOM     27  N   UNL     1      -5.434  12.046  17.819  0.00  0.00    +0.000 NA
ATOM     28  N   UNL     1      -4.696  11.109  18.501  0.00  0.00    +0.000 NA
ATOM     29  C   UNL     1      -3.830  10.563  17.666  0.00  0.00    +0.000 A 
ENDBRANCH  23  29
ENDBRANCH  17  23
ENDBRANCH  16  21
ENDBRANCH   1  16
TORSDOF 6
ENDMDL
