MODEL 1
REMARK VINA RESULT:      -9.3      0.000      0.000
REMARK  Name = 
REMARK  7 active torsions:
REMARK  status: ('A' for Active; 'I' for Inactive)
REMARK    1  A    between atoms: C_1  and  C_2
REMARK    2  A    between atoms: C_6  and  C_7
REMARK    3  A    between atoms: N_13  and  C_14
REMARK    4  A    between atoms: C_18  and  N_19
REMARK    5  A    between atoms: C_22  and  C_23
REMARK    6  A    between atoms: C_23  and  C_24
REMARK    7  A    between atoms: N_28  and  C_29
REMARK                            x       y       z     vdW  Elec       q    Type
REMARK                         _______ _______ _______ _____ _____    ______ ____
ROOT
ATOM      1  C   UNL     1       2.677   6.522  19.017  0.00  0.00    +0.000 A 
ATOM      2  C   UNL     1       1.999   5.298  19.073  0.00  0.00    +0.000 A 
ATOM      3  C   UNL     1       2.618   4.103  18.712  0.00  0.00    +0.000 A 
ATOM      4  C   UNL     1       3.933   4.111  18.262  0.00  0.00    +0.000 A 
ATOM      5  C   UNL     1       4.651   5.308  18.188  0.00  0.00    +0.000 A 
ATOM      6  C   UNL     1       4.011   6.506  18.596  0.00  0.00    +0.000 A 
ENDROOT
BRANCH   1  15
ATOM      7  C   UNL     1      -0.954  12.992  19.002  0.00  0.00    +0.000 C 
ATOM      8  C   UNL     1      -0.352  11.723  19.531  0.00  0.00    +0.000 A 
ATOM      9  C   UNL     1       0.453  10.943  18.708  0.00  0.00    +0.000 A 
ATOM     10  C   UNL     1       0.958   9.765  19.227  0.00  0.00    +0.000 A 
ATOM     11  C   UNL     1       0.722   9.312  20.520  0.00  0.00    +0.000 A 
ATOM     12  C   UNL     1      -0.059  10.090  21.374  0.00  0.00    +0.000 A 
ATOM     13  C   UNL     1      -0.595  11.300  20.855  0.00  0.00    +0.000 A 
ATOM     14  C   UNL     1       1.409   7.981  20.699  0.00  0.00    +0.000 C 
ATOM     15  N   UNL     1       2.004   7.727  19.388  0.00  0.00    +0.000 N 
ATOM     16  C   UNL     1       1.784   8.798  18.520  0.00  0.00    +0.000 C 
ATOM     17  O   UNL     1       2.167   9.008  17.384  0.00  0.00    +0.000 OA
BRANCH  12  18
ATOM     18  C   UNL     1      -0.351   9.721  22.805  0.00  0.00    +0.000 C 
ATOM     19  F   UNL     1       0.763   9.584  23.573  0.00  0.00    +0.000 F 
ATOM     20  F   UNL     1      -1.124  10.653  23.430  0.00  0.00    +0.000 F 
ATOM     21  F   UNL     1      -1.028   8.544  22.910  0.00  0.00    +0.000 F 
ENDBRANCH  12  18
ENDBRANCH   1  15
BRANCH   5  22
ATOM     22  N   UNL     1       5.973   5.338  17.685  0.00  0.00    +0.000 N 
ATOM     23  C   UNL     1       7.174   5.431  18.460  0.00  0.00    +0.000 C 
ATOM     24  C   UNL     1       7.799   4.386  17.547  0.00  0.00    +0.000 C 
ATOM     25  C   UNL     1       6.594   4.586  16.612  0.00  0.00    +0.000 C 
BRANCH  25  26
ATOM     26  C   UNL     1       6.809   5.461  15.368  0.00  0.00    +0.000 C 
BRANCH  26  27
ATOM     27  C   UNL     1       6.621   4.715  14.086  0.00  0.00    +0.000 A 
ATOM     28  N   UNL     1       5.716   3.790  13.830  0.00  0.00    +0.000 NA
ATOM     29  N   UNL     1       5.940   3.297  12.568  0.00  0.00    +0.000 NA
ATOM     30  C   UNL     1       6.965   3.943  12.066  0.00  0.00    +0.000 A 
ATOM     31  N   UNL     1       7.414   4.852  12.973  0.00  0.00    +0.000 N 
ATOM     32  C   UNL     1       8.509   5.763  12.776  0.00  0.00    +0.000 C 
ENDBRANCH  26  27
ENDBRANCH  25  26
ENDBRANCH   5  22
TORSDOF 5
ENDMDL
MODEL 2
REMARK VINA RESULT:      -9.1      3.981      8.906
REMARK  Name = 
REMARK  7 active torsions:
REMARK  status: ('A' for Active; 'I' for Inactive)
REMARK    1  A    between atoms: C_1  and  C_2
REMARK    2  A    between atoms: C_6  and  C_7
REMARK    3  A    between atoms: N_13  and  C_14
REMARK    4  A    between atoms: C_18  and  N_19
REMARK    5  A    between atoms: C_22  and  C_23
REMARK    6  A    between atoms: C_23  and  C_24
REMARK    7  A    between atoms: N_28  and  C_29
REMARK                            x       y       z     vdW  Elec       q    Type
REMARK                         _______ _______ _______ _____ _____    ______ ____
ROOT
ATOM      1  C   UNL     1       1.464   8.474  20.143  0.00  0.00    +0.000 A 
ATOM      2  C   UNL     1       1.466   8.308  21.533  0.00  0.00    +0.000 A 
ATOM      3  C   UNL     1       0.805   9.199  22.376  0.00  0.00    +0.000 A 
ATOM      4  C   UNL     1       0.143  10.298  21.841  0.00  0.00    +0.000 A 
ATOM      5  C   UNL     1       0.114  10.507  20.459  0.00  0.00    +0.000 A 
ATOM      6  C   UNL     1       0.763   9.565  19.620  0.00  0.00    +0.000 A 
ENDROOT
BRANCH   1  15
ATOM      7  C   UNL     1       5.954   5.260  15.187  0.00  0.00    +0.000 C 
ATOM      8  C   UNL     1       4.983   5.387  16.323  0.00  0.00    +0.000 A 
ATOM      9  C   UNL     1       4.407   6.621  16.608  0.00  0.00    +0.000 A 
ATOM     10  C   UNL     1       3.544   6.698  17.685  0.00  0.00    +0.000 A 
ATOM     11  C   UNL     1       3.205   5.623  18.498  0.00  0.00    +0.000 A 
ATOM     12  C   UNL     1       3.746   4.368  18.216  0.00  0.00    +0.000 A 
ATOM     13  C   UNL     1       4.644   4.272  17.118  0.00  0.00    +0.000 A 
ATOM     14  C   UNL     1       2.271   6.108  19.579  0.00  0.00    +0.000 C 
ATOM     15  N   UNL     1       2.162   7.542  19.314  0.00  0.00    +0.000 N 
ATOM     16  C   UNL     1       2.873   7.896  18.166  0.00  0.00    +0.000 C 
ATOM     17  O   UNL     1       2.976   8.956  17.576  0.00  0.00    +0.000 OA
BRANCH  12  18
ATOM     18  C   UNL     1       3.423   3.125  19.002  0.00  0.00    +0.000 C 
ATOM     19  F   UNL     1       3.998   1.997  18.503  0.00  0.00    +0.000 F 
ATOM     20  F   UNL     1       3.834   3.213  20.297  0.00  0.00    +0.000 F 
ATOM     21  F   UNL     1       2.086   2.875  19.051  0.00  0.00    +0.000 F 
ENDBRANCH  12  18
ENDBRANCH   1  15
BRANCH   5  22
ATOM     22  N   UNL     1      -0.513  11.647  19.905  0.00  0.00    +0.000 N 
ATOM     23  C   UNL     1      -0.224  13.014  20.224  0.00  0.00    +0.000 C 
ATOM     24  C   UNL     1      -0.318  13.340  18.740  0.00  0.00    +0.000 C 
ATOM     25  C   UNL     1      -0.916  11.937  18.542  0.00  0.00    +0.000 C 
BRANCH  25  26
ATOM     26  C   UNL     1      -2.441  11.841  18.379  0.00  0.00    +0.000 C 
BRANCH  26  27
ATOM     27  C   UNL     1      -2.852  11.126  17.131  0.00  0.00    +0.000 A 
ATOM     28  N   UNL     1      -2.114  10.314  16.399  0.00  0.00    +0.000 NA
ATOM     29  N   UNL     1      -2.841   9.939  15.296  0.00  0.00    +0.000 NA
ATOM     30  C   UNL     1      -4.017  10.512  15.382  0.00  0.00    +0.000 A 
ATOM     31  N   UNL     1      -4.077  11.251  16.523  0.00  0.00    +0.000 N 
ATOM     32  C   UNL     1      -5.215  12.006  16.973  0.00  0.00    +0.000 C 
ENDBRANCH  26  27
ENDBRANCH  25  26
ENDBRANCH   5  22
TORSDOF 5
ENDMDL
MODEL 3
REMARK VINA RESULT:      -8.8      1.665      2.936
REMARK  Name = 
REMARK  7 active torsions:
REMARK  status: ('A' for Active; 'I' for Inactive)
REMARK    1  A    between atoms: C_1  and  C_2
REMARK    2  A    between atoms: C_6  and  C_7
REMARK    3  A    between atoms: N_13  and  C_14
REMARK    4  A    between atoms: C_18  and  N_19
REMARK    5  A    between atoms: C_22  and  C_23
REMARK    6  A    between atoms: C_23  and  C_24
REMARK    7  A    between atoms: N_28  and  C_29
REMARK                            x       y       z     vdW  Elec       q    Type
REMARK                         _______ _______ _______ _____ _____    ______ ____
ROOT
ATOM      1  C   UNL     1       2.790   6.165  19.222  0.00  0.00    +0.000 A 
ATOM      2  C   UNL     1       2.587   5.093  20.099  0.00  0.00    +0.000 A 
ATOM      3  C   UNL     1       3.179   3.850  19.884  0.00  0.00    +0.000 A 
ATOM      4  C   UNL     1       3.974   3.646  18.762  0.00  0.00    +0.000 A 
ATOM      5  C   UNL     1       4.205   4.686  17.856  0.00  0.00    +0.000 A 
ATOM      6  C   UNL     1       3.622   5.952  18.118  0.00  0.00    +0.000 A 
ENDROOT
BRANCH   1  15
ATOM      7  C   UNL     1      -0.531  12.769  18.581  0.00  0.00    +0.000 C 
ATOM      8  C   UNL     1      -0.013  11.516  19.225  0.00  0.00    +0.000 A 
ATOM      9  C   UNL     1       0.790  10.645  18.498  0.00  0.00    +0.000 A 
ATOM     10  C   UNL     1       1.216   9.486  19.121  0.00  0.00    +0.000 A 
ATOM     11  C   UNL     1       0.903   9.139  20.430  0.00  0.00    +0.000 A 
ATOM     12  C   UNL     1       0.122  10.011  21.190  0.00  0.00    +0.000 A 
ATOM     13  C   UNL     1      -0.334  11.202  20.563  0.00  0.00    +0.000 A 
ATOM     14  C   UNL     1       1.518   7.796  20.736  0.00  0.00    +0.000 C 
ATOM     15  N   UNL     1       2.157   7.422  19.474  0.00  0.00    +0.000 N 
ATOM     16  C   UNL     1       2.027   8.436  18.524  0.00  0.00    +0.000 C 
ATOM     17  O   UNL     1       2.468   8.546  17.395  0.00  0.00    +0.000 OA
BRANCH  12  18
ATOM     18  C   UNL     1      -0.249   9.759  22.628  0.00  0.00    +0.000 C 
ATOM     19  F   UNL     1      -0.952  10.775  23.198  0.00  0.00    +0.000 F 
ATOM     20  F   UNL     1      -1.018   8.644  22.774  0.00  0.00    +0.000 F 
ATOM     21  F   UNL     1       0.842   9.566  23.419  0.00  0.00    +0.000 F 
ENDBRANCH  12  18
ENDBRANCH   1  15
BRANCH   5  22
ATOM     22  N   UNL     1       4.971   4.478  16.686  0.00  0.00    +0.000 N 
ATOM     23  C   UNL     1       4.654   3.586  15.611  0.00  0.00    +0.000 C 
ATOM     24  C   UNL     1       5.089   4.668  14.633  0.00  0.00    +0.000 C 
ATOM     25  C   UNL     1       5.679   5.420  15.839  0.00  0.00    +0.000 C 
BRANCH  25  26
ATOM     26  C   UNL     1       7.198   5.327  16.049  0.00  0.00    +0.000 C 
BRANCH  26  27
ATOM     27  C   UNL     1       7.603   5.500  17.478  0.00  0.00    +0.000 A 
ATOM     28  N   UNL     1       7.823   4.547  18.364  0.00  0.00    +0.000 NA
ATOM     29  N   UNL     1       8.089   5.133  19.577  0.00  0.00    +0.000 NA
ATOM     30  C   UNL     1       8.047   6.432  19.409  0.00  0.00    +0.000 A 
ATOM     31  N   UNL     1       7.764   6.710  18.107  0.00  0.00    +0.000 N 
ATOM     32  C   UNL     1       7.657   8.025  17.535  0.00  0.00    +0.000 C 
ENDBRANCH  26  27
ENDBRANCH  25  26
ENDBRANCH   5  22
TORSDOF 5
ENDMDL
MODEL 4
REMARK VINA RESULT:      -8.8      1.946      3.102
REMARK  Name = 
REMARK  7 active torsions:
REMARK  status: ('A' for Active; 'I' for Inactive)
REMARK    1  A    between atoms: C_1  and  C_2
REMARK    2  A    between atoms: C_6  and  C_7
REMARK    3  A    between atoms: N_13  and  C_14
REMARK    4  A    between atoms: C_18  and  N_19
REMARK    5  A    between atoms: C_22  and  C_23
REMARK    6  A    between atoms: C_23  and  C_24
REMARK    7  A    between atoms: N_28  and  C_29
REMARK                            x       y       z     vdW  Elec       q    Type
REMARK                         _______ _______ _______ _____ _____    ______ ____
ROOT
ATOM      1  C   UNL     1       2.486   6.010  19.736  0.00  0.00    +0.000 A 
ATOM      2  C   UNL     1       2.082   4.964  20.575  0.00  0.00    +0.000 A 
ATOM      3  C   UNL     1       2.584   3.673  20.425  0.00  0.00    +0.000 A 
ATOM      4  C   UNL     1       3.489   3.394  19.408  0.00  0.00    +0.000 A 
ATOM      5  C   UNL     1       3.922   4.405  18.545  0.00  0.00    +0.000 A 
ATOM      6  C   UNL     1       3.425   5.720  18.742  0.00  0.00    +0.000 A 
ENDROOT
BRANCH   1  15
ATOM      7  C   UNL     1      -0.327  12.801  18.726  0.00  0.00    +0.000 C 
ATOM      8  C   UNL     1       0.082  11.544  19.436  0.00  0.00    +0.000 A 
ATOM      9  C   UNL     1       0.836  10.586  18.769  0.00  0.00    +0.000 A 
ATOM     10  C   UNL     1       1.162   9.428  19.452  0.00  0.00    +0.000 A 
ATOM     11  C   UNL     1       0.793   9.163  20.766  0.00  0.00    +0.000 A 
ATOM     12  C   UNL     1       0.061  10.122  21.467  0.00  0.00    +0.000 A 
ATOM     13  C   UNL     1      -0.292  11.313  20.777  0.00  0.00    +0.000 A 
ATOM     14  C   UNL     1       1.302   7.794  21.145  0.00  0.00    +0.000 C 
ATOM     15  N   UNL     1       1.941   7.319  19.918  0.00  0.00    +0.000 N 
ATOM     16  C   UNL     1       1.907   8.297  18.923  0.00  0.00    +0.000 C 
ATOM     17  O   UNL     1       2.383   8.325  17.802  0.00  0.00    +0.000 OA
BRANCH  12  18
ATOM     18  C   UNL     1      -0.362   9.962  22.904  0.00  0.00    +0.000 C 
ATOM     19  F   UNL     1      -1.256   8.956  23.103  0.00  0.00    +0.000 F 
ATOM     20  F   UNL     1       0.692   9.692  23.724  0.00  0.00    +0.000 F 
ATOM     21  F   UNL     1      -0.943  11.087  23.402  0.00  0.00    +0.000 F 
ENDBRANCH  12  18
ENDBRANCH   1  15
BRANCH   5  22
ATOM     22  N   UNL     1       4.804   4.126  17.476  0.00  0.00    +0.000 N 
ATOM     23  C   UNL     1       4.653   3.089  16.499  0.00  0.00    +0.000 C 
ATOM     24  C   UNL     1       5.094   4.081  15.432  0.00  0.00    +0.000 C 
ATOM     25  C   UNL     1       5.515   5.017  16.578  0.00  0.00    +0.000 C 
BRANCH  25  26
ATOM     26  C   UNL     1       7.011   5.078  16.921  0.00  0.00    +0.000 C 
BRANCH  26  27
ATOM     27  C   UNL     1       7.442   6.417  17.427  0.00  0.00    +0.000 A 
ATOM     28  N   UNL     1       7.420   7.561  16.770  0.00  0.00    +0.000 NA
ATOM     29  N   UNL     1       7.980   8.531  17.565  0.00  0.00    +0.000 NA
ATOM     30  C   UNL     1       8.316   7.969  18.700  0.00  0.00    +0.000 A 
ATOM     31  N   UNL     1       7.983   6.650  18.668  0.00  0.00    +0.000 N 
ATOM     32  C   UNL     1       8.177   5.710  19.739  0.00  0.00    +0.000 C 
ENDBRANCH  26  27
ENDBRANCH  25  26
ENDBRANCH   5  22
TORSDOF 5
ENDMDL
MODEL 5
REMARK VINA RESULT:      -8.7      4.022     10.146
REMARK  Name = 
REMARK  7 active torsions:
REMARK  status: ('A' for Active; 'I' for Inactive)
REMARK    1  A    between atoms: C_1  and  C_2
REMARK    2  A    between atoms: C_6  and  C_7
REMARK    3  A    between atoms: N_13  and  C_14
REMARK    4  A    between atoms: C_18  and  N_19
REMARK    5  A    between atoms: C_22  and  C_23
REMARK    6  A    between atoms: C_23  and  C_24
REMARK    7  A    between atoms: N_28  and  C_29
REMARK                            x       y       z     vdW  Elec       q    Type
REMARK                         _______ _______ _______ _____ _____    ______ ____
ROOT
ATOM      1  C   UNL     1       1.061   8.585  20.697  0.00  0.00    +0.000 A 
ATOM      2  C   UNL     1       1.140   8.690  22.091  0.00  0.00    +0.000 A 
ATOM      3  C   UNL     1       0.521   9.731  22.782  0.00  0.00    +0.000 A 
ATOM      4  C   UNL     1      -0.175  10.709  22.082  0.00  0.00    +0.000 A 
ATOM      5  C   UNL     1      -0.282  10.647  20.690  0.00  0.00    +0.000 A 
ATOM      6  C   UNL     1       0.325   9.558  20.013  0.00  0.00    +0.000 A 
ENDROOT
BRANCH   1  15
ATOM      7  C   UNL     1       5.374   4.455  16.294  0.00  0.00    +0.000 C 
ATOM      8  C   UNL     1       4.424   4.799  17.404  0.00  0.00    +0.000 A 
ATOM      9  C   UNL     1       3.891   6.080  17.487  0.00  0.00    +0.000 A 
ATOM     10  C   UNL     1       3.047   6.362  18.545  0.00  0.00    +0.000 A 
ATOM     11  C   UNL     1       2.688   5.447  19.528  0.00  0.00    +0.000 A 
ATOM     12  C   UNL     1       3.187   4.146  19.451  0.00  0.00    +0.000 A 
ATOM     13  C   UNL     1       4.065   3.841  18.375  0.00  0.00    +0.000 A 
ATOM     14  C   UNL     1       1.787   6.133  20.523  0.00  0.00    +0.000 C 
ATOM     15  N   UNL     1       1.717   7.507  20.026  0.00  0.00    +0.000 N 
ATOM     16  C   UNL     1       2.420   7.644  18.829  0.00  0.00    +0.000 C 
ATOM     17  O   UNL     1       2.546   8.588  18.070  0.00  0.00    +0.000 OA
BRANCH  12  18
ATOM     18  C   UNL     1       2.839   3.060  20.435  0.00  0.00    +0.000 C 
ATOM     19  F   UNL     1       2.626   3.515  21.699  0.00  0.00    +0.000 F 
ATOM     20  F   UNL     1       1.706   2.390  20.083  0.00  0.00    +0.000 F 
ATOM     21  F   UNL     1       3.815   2.117  20.534  0.00  0.00    +0.000 F 
ENDBRANCH  12  18
ENDBRANCH   1  15
BRANCH   5  22
ATOM     22  N   UNL     1      -0.946  11.662  19.961  0.00  0.00    +0.000 N 
ATOM     23  C   UNL     1      -0.640  12.088  18.628  0.00  0.00    +0.000 C 
ATOM     24  C   UNL     1      -2.134  12.142  18.343  0.00  0.00    +0.000 C 
ATOM     25  C   UNL     1      -2.357  11.983  19.856  0.00  0.00    +0.000 C 
BRANCH  25  26
ATOM     26  C   UNL     1      -2.701  13.252  20.652  0.00  0.00    +0.000 C 
BRANCH  26  27
ATOM     27  C   UNL     1      -3.366  12.961  21.959  0.00  0.00    +0.000 A 
ATOM     28  N   UNL     1      -4.563  12.437  22.143  0.00  0.00    +0.000 NA
ATOM     29  N   UNL     1      -4.828  12.418  23.491  0.00  0.00    +0.000 NA
ATOM     30  C   UNL     1      -3.782  12.912  24.108  0.00  0.00    +0.000 A 
ATOM     31  N   UNL     1      -2.835  13.250  23.192  0.00  0.00    +0.000 N 
ATOM     32  C   UNL     1      -1.541  13.803  23.489  0.00  0.00    +0.000 C 
ENDBRANCH  26  27
ENDBRANCH  25  26
ENDBRANCH   5  22
TORSDOF 5
ENDMDL
MODEL 6
REMARK VINA RESULT:      -8.7      4.078     10.169
REMARK  Name = 
REMARK  7 active torsions:
REMARK  status: ('A' for Active; 'I' for Inactive)
REMARK    1  A    between atoms: C_1  and  C_2
REMARK    2  A    between atoms: C_6  and  C_7
REMARK    3  A    between atoms: N_13  and  C_14
REMARK    4  A    between atoms: C_18  and  N_19
REMARK    5  A    between atoms: C_22  and  C_23
REMARK    6  A    between atoms: C_23  and  C_24
REMARK    7  A    between atoms: N_28  and  C_29
REMARK                            x       y       z     vdW  Elec       q    Type
REMARK                         _______ _______ _______ _____ _____    ______ ____
ROOT
ATOM      1  C   UNL     1       1.088   8.562  20.699  0.00  0.00    +0.000 A 
ATOM      2  C   UNL     1       1.148   8.703  22.091  0.00  0.00    +0.000 A 
ATOM      3  C   UNL     1       0.521   9.761  22.746  0.00  0.00    +0.000 A 
ATOM      4  C   UNL     1      -0.164  10.723  22.011  0.00  0.00    +0.000 A 
ATOM      5  C   UNL     1      -0.250  10.626  20.619  0.00  0.00    +0.000 A 
ATOM      6  C   UNL     1       0.364   9.518  19.980  0.00  0.00    +0.000 A 
ENDROOT
BRANCH   1  15
ATOM      7  C   UNL     1       5.441   4.313  16.451  0.00  0.00    +0.000 C 
ATOM      8  C   UNL     1       4.484   4.688  17.544  0.00  0.00    +0.000 A 
ATOM      9  C   UNL     1       3.946   5.970  17.584  0.00  0.00    +0.000 A 
ATOM     10  C   UNL     1       3.094   6.281  18.628  0.00  0.00    +0.000 A 
ATOM     11  C   UNL     1       2.733   5.395  19.637  0.00  0.00    +0.000 A 
ATOM     12  C   UNL     1       3.236   4.094  19.603  0.00  0.00    +0.000 A 
ATOM     13  C   UNL     1       4.121   3.759  18.542  0.00  0.00    +0.000 A 
ATOM     14  C   UNL     1       1.823   6.108  20.605  0.00  0.00    +0.000 C 
ATOM     15  N   UNL     1       1.752   7.466  20.065  0.00  0.00    +0.000 N 
ATOM     16  C   UNL     1       2.462   7.569  18.869  0.00  0.00    +0.000 C 
ATOM     17  O   UNL     1       2.590   8.490  18.082  0.00  0.00    +0.000 OA
BRANCH  12  18
ATOM     18  C   UNL     1       2.885   3.038  20.617  0.00  0.00    +0.000 C 
ATOM     19  F   UNL     1       2.496   3.541  21.819  0.00  0.00    +0.000 F 
ATOM     20  F   UNL     1       1.863   2.240  20.198  0.00  0.00    +0.000 F 
ATOM     21  F   UNL     1       3.928   2.202  20.879  0.00  0.00    +0.000 F 
ENDBRANCH  12  18
ENDBRANCH   1  15
BRANCH   5  22
ATOM     22  N   UNL     1      -0.901  11.622  19.856  0.00  0.00    +0.000 N 
ATOM     23  C   UNL     1      -0.509  12.089  18.559  0.00  0.00    +0.000 C 
ATOM     24  C   UNL     1      -1.976  12.079  18.154  0.00  0.00    +0.000 C 
ATOM     25  C   UNL     1      -2.312  11.880  19.641  0.00  0.00    +0.000 C 
BRANCH  25  26
ATOM     26  C   UNL     1      -2.780  13.115  20.426  0.00  0.00    +0.000 C 
BRANCH  26  27
ATOM     27  C   UNL     1      -4.027  12.870  21.215  0.00  0.00    +0.000 A 
ATOM     28  N   UNL     1      -4.110  12.504  22.479  0.00  0.00    +0.000 NA
ATOM     29  N   UNL     1      -5.432  12.305  22.791  0.00  0.00    +0.000 NA
ATOM     30  C   UNL     1      -6.137  12.572  21.718  0.00  0.00    +0.000 A 
ATOM     31  N   UNL     1      -5.302  12.947  20.711  0.00  0.00    +0.000 N 
ATOM     32  C   UNL     1      -5.707  13.338  19.388  0.00  0.00    +0.000 C 
ENDBRANCH  26  27
ENDBRANCH  25  26
ENDBRANCH   5  22
TORSDOF 5
ENDMDL
MODEL 7
REMARK VINA RESULT:      -8.6      4.007      9.104
REMARK  Name = 
REMARK  7 active torsions:
REMARK  status: ('A' for Active; 'I' for Inactive)
REMARK    1  A    between atoms: C_1  and  C_2
REMARK    2  A    between atoms: C_6  and  C_7
REMARK    3  A    between atoms: N_13  and  C_14
REMARK    4  A    between atoms: C_18  and  N_19
REMARK    5  A    between atoms: C_22  and  C_23
REMARK    6  A    between atoms: C_23  and  C_24
REMARK    7  A    between atoms: N_28  and  C_29
REMARK                            x       y       z     vdW  Elec       q    Type
REMARK                         _______ _______ _______ _____ _____    ______ ____
ROOT
ATOM      1  C   UNL     1       1.579   8.140  20.109  0.00  0.00    +0.000 A 
ATOM      2  C   UNL     1       1.670   8.130  21.506  0.00  0.00    +0.000 A 
ATOM      3  C   UNL     1       1.129   9.155  22.280  0.00  0.00    +0.000 A 
ATOM      4  C   UNL     1       0.502  10.232  21.665  0.00  0.00    +0.000 A 
ATOM      5  C   UNL     1       0.386  10.286  20.273  0.00  0.00    +0.000 A 
ATOM      6  C   UNL     1       0.912   9.213  19.509  0.00  0.00    +0.000 A 
ENDROOT
BRANCH   1  15
ATOM      7  C   UNL     1       5.794   4.014  15.608  0.00  0.00    +0.000 C 
ATOM      8  C   UNL     1       4.764   4.351  16.646  0.00  0.00    +0.000 A 
ATOM      9  C   UNL     1       4.418   5.679  16.874  0.00  0.00    +0.000 A 
ATOM     10  C   UNL     1       3.489   5.945  17.863  0.00  0.00    +0.000 A 
ATOM     11  C   UNL     1       2.870   4.972  18.639  0.00  0.00    +0.000 A 
ATOM     12  C   UNL     1       3.178   3.630  18.410  0.00  0.00    +0.000 A 
ATOM     13  C   UNL     1       4.139   3.339  17.404  0.00  0.00    +0.000 A 
ATOM     14  C   UNL     1       1.953   5.651  19.625  0.00  0.00    +0.000 C 
ATOM     15  N   UNL     1       2.154   7.073  19.351  0.00  0.00    +0.000 N 
ATOM     16  C   UNL     1       3.025   7.260  18.277  0.00  0.00    +0.000 C 
ATOM     17  O   UNL     1       3.391   8.267  17.699  0.00  0.00    +0.000 OA
BRANCH  12  18
ATOM     18  C   UNL     1       2.544   2.490  19.162  0.00  0.00    +0.000 C 
ATOM     19  F   UNL     1       2.771   2.524  20.502  0.00  0.00    +0.000 F 
ATOM     20  F   UNL     1       1.190   2.464  19.012  0.00  0.00    +0.000 F 
ATOM     21  F   UNL     1       2.989   1.276  18.736  0.00  0.00    +0.000 F 
ENDBRANCH  12  18
ENDBRANCH   1  15
BRANCH   5  22
ATOM     22  N   UNL     1      -0.205  11.399  19.631  0.00  0.00    +0.000 N 
ATOM     23  C   UNL     1      -1.323  11.367  18.735  0.00  0.00    +0.000 C 
ATOM     24  C   UNL     1      -1.869  12.605  19.432  0.00  0.00    +0.000 C 
ATOM     25  C   UNL     1      -0.503  12.730  20.127  0.00  0.00    +0.000 C 
BRANCH  25  26
ATOM     26  C   UNL     1       0.479  13.768  19.563  0.00  0.00    +0.000 C 
BRANCH  26  27
ATOM     27  C   UNL     1       1.667  13.991  20.444  0.00  0.00    +0.000 A 
ATOM     28  N   UNL     1       1.674  14.083  21.760  0.00  0.00    +0.000 NA
ATOM     29  N   UNL     1       2.952  14.375  22.170  0.00  0.00    +0.000 NA
ATOM     30  C   UNL     1       3.707  14.438  21.100  0.00  0.00    +0.000 A 
ATOM     31  N   UNL     1       2.950  14.187  19.997  0.00  0.00    +0.000 N 
ATOM     32  C   UNL     1       3.430  14.147  18.642  0.00  0.00    +0.000 C 
ENDBRANCH  26  27
ENDBRANCH  25  26
ENDBRANCH   5  22
TORSDOF 5
ENDMDL
MODEL 8
REMARK VINA RESULT:      -8.6      4.036      9.555
REMARK  Name = 
REMARK  7 active torsions:
REMARK  status: ('A' for Active; 'I' for Inactive)
REMARK    1  A    between atoms: C_1  and  C_2
REMARK    2  A    between atoms: C_6  and  C_7
REMARK    3  A    between atoms: N_13  and  C_14
REMARK    4  A    between atoms: C_18  and  N_19
REMARK    5  A    between atoms: C_22  and  C_23
REMARK    6  A    between atoms: C_23  and  C_24
REMARK    7  A    between atoms: N_28  and  C_29
REMARK                            x       y       z     vdW  Elec       q    Type
REMARK                         _______ _______ _______ _____ _____    ______ ____
ROOT
ATOM      1  C   UNL     1       1.616   8.221  19.884  0.00  0.00    +0.000 A 
ATOM      2  C   UNL     1       1.537   7.943  21.254  0.00  0.00    +0.000 A 
ATOM      3  C   UNL     1       0.883   8.801  22.138  0.00  0.00    +0.000 A 
ATOM      4  C   UNL     1       0.313   9.977  21.667  0.00  0.00    +0.000 A 
ATOM      5  C   UNL     1       0.367  10.299  20.307  0.00  0.00    +0.000 A 
ATOM      6  C   UNL     1       1.004   9.391  19.423  0.00  0.00    +0.000 A 
ENDROOT
BRANCH   1  15
ATOM      7  C   UNL     1       6.231   5.139  14.960  0.00  0.00    +0.000 C 
ATOM      8  C   UNL     1       5.180   5.236  16.027  0.00  0.00    +0.000 A 
ATOM      9  C   UNL     1       4.685   6.481  16.400  0.00  0.00    +0.000 A 
ATOM     10  C   UNL     1       3.743   6.526  17.411  0.00  0.00    +0.000 A 
ATOM     11  C   UNL     1       3.250   5.408  18.074  0.00  0.00    +0.000 A 
ATOM     12  C   UNL     1       3.709   4.145  17.698  0.00  0.00    +0.000 A 
ATOM     13  C   UNL     1       4.685   4.080  16.667  0.00  0.00    +0.000 A 
ATOM     14  C   UNL     1       2.271   5.862  19.128  0.00  0.00    +0.000 C 
ATOM     15  N   UNL     1       2.303   7.320  19.013  0.00  0.00    +0.000 N 
ATOM     16  C   UNL     1       3.134   7.724  17.968  0.00  0.00    +0.000 C 
ATOM     17  O   UNL     1       3.374   8.825  17.507  0.00  0.00    +0.000 OA
BRANCH  12  18
ATOM     18  C   UNL     1       3.220   2.862  18.317  0.00  0.00    +0.000 C 
ATOM     19  F   UNL     1       1.873   2.690  18.229  0.00  0.00    +0.000 F 
ATOM     20  F   UNL     1       3.775   1.763  17.733  0.00  0.00    +0.000 F 
ATOM     21  F   UNL     1       3.525   2.775  19.641  0.00  0.00    +0.000 F 
ENDBRANCH  12  18
ENDBRANCH   1  15
BRANCH   5  22
ATOM     22  N   UNL     1      -0.166  11.516  19.822  0.00  0.00    +0.000 N 
ATOM     23  C   UNL     1       0.565  12.721  19.567  0.00  0.00    +0.000 C 
ATOM     24  C   UNL     1      -0.234  12.889  18.283  0.00  0.00    +0.000 C 
ATOM     25  C   UNL     1      -1.158  11.772  18.795  0.00  0.00    +0.000 C 
BRANCH  25  26
ATOM     26  C   UNL     1      -2.500  12.198  19.409  0.00  0.00    +0.000 C 
BRANCH  26  27
ATOM     27  C   UNL     1      -3.675  11.849  18.551  0.00  0.00    +0.000 A 
ATOM     28  N   UNL     1      -3.650  11.451  17.294  0.00  0.00    +0.000 NA
ATOM     29  N   UNL     1      -4.945  11.318  16.853  0.00  0.00    +0.000 NA
ATOM     30  C   UNL     1      -5.737  11.619  17.853  0.00  0.00    +0.000 A 
ATOM     31  N   UNL     1      -4.988  11.940  18.943  0.00  0.00    +0.000 N 
ATOM     32  C   UNL     1      -5.501  12.304  20.236  0.00  0.00    +0.000 C 
ENDBRANCH  26  27
ENDBRANCH  25  26
ENDBRANCH   5  22
TORSDOF 5
ENDMDL
MODEL 9
REMARK VINA RESULT:      -8.6      4.011     10.157
REMARK  Name = 
REMARK  7 active torsions:
REMARK  status: ('A' for Active; 'I' for Inactive)
REMARK    1  A    between atoms: C_1  and  C_2
REMARK    2  A    between atoms: C_6  and  C_7
REMARK    3  A    between atoms: N_13  and  C_14
REMARK    4  A    between atoms: C_18  and  N_19
REMARK    5  A    between atoms: C_22  and  C_23
REMARK    6  A    between atoms: C_23  and  C_24
REMARK    7  A    between atoms: N_28  and  C_29
REMARK                            x       y       z     vdW  Elec       q    Type
REMARK                         _______ _______ _______ _____ _____    ______ ____
ROOT
ATOM      1  C   UNL     1       1.497   8.320  20.251  0.00  0.00    +0.000 A 
ATOM      2  C   UNL     1       1.537   8.228  21.647  0.00  0.00    +0.000 A 
ATOM      3  C   UNL     1       0.919   9.175  22.461  0.00  0.00    +0.000 A 
ATOM      4  C   UNL     1       0.263  10.258  21.888  0.00  0.00    +0.000 A 
ATOM      5  C   UNL     1       0.196  10.395  20.498  0.00  0.00    +0.000 A 
ATOM      6  C   UNL     1       0.801   9.397  19.692  0.00  0.00    +0.000 A 
ENDROOT
BRANCH   1  15
ATOM      7  C   UNL     1       5.861   4.747  15.431  0.00  0.00    +0.000 C 
ATOM      8  C   UNL     1       4.884   4.954  16.551  0.00  0.00    +0.000 A 
ATOM      9  C   UNL     1       4.375   6.224  16.799  0.00  0.00    +0.000 A 
ATOM     10  C   UNL     1       3.504   6.375  17.863  0.00  0.00    +0.000 A 
ATOM     11  C   UNL     1       3.095   5.339  18.695  0.00  0.00    +0.000 A 
ATOM     12  C   UNL     1       3.569   4.050  18.448  0.00  0.00    +0.000 A 
ATOM     13  C   UNL     1       4.473   3.878  17.365  0.00  0.00    +0.000 A 
ATOM     14  C   UNL     1       2.177   5.900  19.752  0.00  0.00    +0.000 C 
ATOM     15  N   UNL     1       2.151   7.332  19.453  0.00  0.00    +0.000 N 
ATOM     16  C   UNL     1       2.895   7.619  18.307  0.00  0.00    +0.000 C 
ATOM     17  O   UNL     1       3.066   8.658  17.695  0.00  0.00    +0.000 OA
BRANCH  12  18
ATOM     18  C   UNL     1       3.166   2.845  19.257  0.00  0.00    +0.000 C 
ATOM     19  F   UNL     1       3.570   2.898  20.555  0.00  0.00    +0.000 F 
ATOM     20  F   UNL     1       1.815   2.676  19.292  0.00  0.00    +0.000 F 
ATOM     21  F   UNL     1       3.674   1.688  18.752  0.00  0.00    +0.000 F 
ENDBRANCH  12  18
ENDBRANCH   1  15
BRANCH   5  22
ATOM     22  N   UNL     1      -0.426  11.517  19.903  0.00  0.00    +0.000 N 
ATOM     23  C   UNL     1      -0.173  12.030  18.589  0.00  0.00    +0.000 C 
ATOM     24  C   UNL     1      -1.672  12.225  18.417  0.00  0.00    +0.000 C 
ATOM     25  C   UNL     1      -1.808  11.956  19.925  0.00  0.00    +0.000 C 
BRANCH  25  26
ATOM     26  C   UNL     1      -1.991  13.176  20.842  0.00  0.00    +0.000 C 
BRANCH  26  27
ATOM     27  C   UNL     1      -2.933  12.921  21.975  0.00  0.00    +0.000 A 
ATOM     28  N   UNL     1      -2.705  12.194  23.051  0.00  0.00    +0.000 NA
ATOM     29  N   UNL     1      -3.856  12.147  23.799  0.00  0.00    +0.000 NA
ATOM     30  C   UNL     1      -4.762  12.862  23.177  0.00  0.00    +0.000 A 
ATOM     31  N   UNL     1      -4.226  13.381  22.039  0.00  0.00    +0.000 N 
ATOM     32  C   UNL     1      -4.907  14.236  21.106  0.00  0.00    +0.000 C 
ENDBRANCH  26  27
ENDBRANCH  25  26
ENDBRANCH   5  22
TORSDOF 5
ENDMDL
