MODEL 1
REMARK VINA RESULT:      -8.8      0.000      0.000
REMARK  Name = 
REMARK  4 active torsions:
REMARK  status: ('A' for Active; 'I' for Inactive)
REMARK    1  A    between atoms: C_7  and  C_8
REMARK    2  A    between atoms: N_10  and  C_11
REMARK    3  A    between atoms: N_10  and  C_21
REMARK    4  A    between atoms: C_11  and  C_12
REMARK                            x       y       z     vdW  Elec       q    Type
REMARK                         _______ _______ _______ _____ _____    ______ ____
ROOT
ATOM      1  C   UNL     1       2.243   7.264  18.606  0.00  0.00    +0.000 C 
ATOM      2  O   UNL     1       2.342   7.802  17.503  0.00  0.00    +0.000 OA
ATOM      3  N   UNL     1       2.541   5.892  18.820  0.00  0.00    +0.000 N 
ENDROOT
BRANCH   1  10
ATOM      4  O   UNL     1      -2.035  11.686  23.203  0.00  0.00    +0.000 OA
ATOM      5  C   UNL     1      -1.255  11.261  22.351  0.00  0.00    +0.000 C 
ATOM      6  C   UNL     1      -1.265  11.778  20.929  0.00  0.00    +0.000 C 
ATOM      7  C   UNL     1       0.057  11.545  20.212  0.00  0.00    +0.000 C 
ATOM      8  C   UNL     1       0.542  10.134  20.417  0.00  0.00    +0.000 A 
ATOM      9  C   UNL     1       1.183   9.391  19.420  0.00  0.00    +0.000 A 
ATOM     10  C   UNL     1       1.727   8.128  19.720  0.00  0.00    +0.000 A 
ATOM     11  C   UNL     1       1.783   7.716  21.054  0.00  0.00    +0.000 A 
ATOM     12  C   UNL     1       1.077   8.417  22.038  0.00  0.00    +0.000 A 
ATOM     13  C   UNL     1       0.409   9.593  21.700  0.00  0.00    +0.000 A 
ATOM     14  N   UNL     1      -0.412  10.219  22.636  0.00  0.00    +0.000 N 
ATOM     15  H   UNL     1      -0.513   9.831  23.568  0.00  0.00    +0.000 HD
ENDBRANCH   1  10
BRANCH   3  16
ATOM     16  C   UNL     1       1.998   5.138  19.968  0.00  0.00    +0.000 C 
ATOM     17  C   UNL     1       3.033   4.472  20.873  0.00  0.00    +0.000 C 
ATOM     18  C   UNL     1       2.238   3.427  21.655  0.00  0.00    +0.000 C 
ATOM     19  C   UNL     1       0.917   3.223  20.908  0.00  0.00    +0.000 C 
ATOM     20  C   UNL     1       1.045   3.997  19.601  0.00  0.00    +0.000 C 
ENDBRANCH   3  16
BRANCH   3  21
ATOM     21  C   UNL     1       2.855   5.105  17.613  0.00  0.00    +0.000 C 
BRANCH  21  22
ATOM     22  C   UNL     1       4.296   5.041  17.135  0.00  0.00    +0.000 A 
ATOM     23  C   UNL     1       5.271   5.935  17.635  0.00  0.00    +0.000 A 
ATOM     24  C   UNL     1       6.493   6.124  16.974  0.00  0.00    +0.000 A 
ATOM     25  C   UNL     1       6.715   5.417  15.813  0.00  0.00    +0.000 A 
ATOM     26  C   UNL     1       5.807   4.497  15.350  0.00  0.00    +0.000 A 
ATOM     27  C   UNL     1       4.609   4.266  15.998  0.00  0.00    +0.000 A 
ATOM     28  O   UNL     1       6.193   3.938  14.170  0.00  0.00    +0.000 OA
ATOM     29  C   UNL     1       7.354   4.742  13.866  0.00  0.00    +0.000 C 
ATOM     30  O   UNL     1       7.776   5.563  14.976  0.00  0.00    +0.000 OA
ENDBRANCH  21  22
ENDBRANCH   3  21
TORSDOF 4
ENDMDL
MODEL 2
REMARK VINA RESULT:      -8.8      1.207      1.448
REMARK  Name = 
REMARK  4 active torsions:
REMARK  status: ('A' for Active; 'I' for Inactive)
REMARK    1  A    between atoms: C_7  and  C_8
REMARK    2  A    between atoms: N_10  and  C_11
REMARK    3  A    between atoms: N_10  and  C_21
REMARK    4  A    between atoms: C_11  and  C_12
REMARK                            x       y       z     vdW  Elec       q    Type
REMARK                         _______ _______ _______ _____ _____    ______ ____
ROOT
ATOM      1  C   UNL     1       3.098   6.084  18.128  0.00  0.00    +0.000 C 
ATOM      2  O   UNL     1       3.391   6.361  16.964  0.00  0.00    +0.000 OA
ATOM      3  N   UNL     1       3.288   4.789  18.679  0.00  0.00    +0.000 N 
ENDROOT
BRANCH   1  10
ATOM      4  O   UNL     1      -1.496  11.626  20.805  0.00  0.00    +0.000 OA
ATOM      5  C   UNL     1      -0.610  10.986  20.238  0.00  0.00    +0.000 C 
ATOM      6  C   UNL     1      -0.259  11.220  18.785  0.00  0.00    +0.000 C 
ATOM      7  C   UNL     1       1.147  10.751  18.440  0.00  0.00    +0.000 C 
ATOM      8  C   UNL     1       1.407   9.372  18.987  0.00  0.00    +0.000 A 
ATOM      9  C   UNL     1       2.151   8.404  18.304  0.00  0.00    +0.000 A 
ATOM     10  C   UNL     1       2.466   7.184  18.931  0.00  0.00    +0.000 A 
ATOM     11  C   UNL     1       2.190   7.032  20.292  0.00  0.00    +0.000 A 
ATOM     12  C   UNL     1       1.381   7.962  20.955  0.00  0.00    +0.000 A 
ATOM     13  C   UNL     1       0.944   9.100  20.278  0.00  0.00    +0.000 A 
ATOM     14  N   UNL     1       0.024   9.956  20.881  0.00  0.00    +0.000 N 
ATOM     15  H   UNL     1      -0.316   9.762  21.818  0.00  0.00    +0.000 HD
ENDBRANCH   1  10
BRANCH   3  16
ATOM     16  C   UNL     1       2.540   4.319  19.862  0.00  0.00    +0.000 C 
ATOM     17  C   UNL     1       3.278   3.333  20.765  0.00  0.00    +0.000 C 
ATOM     18  C   UNL     1       2.174   2.681  21.598  0.00  0.00    +0.000 C 
ATOM     19  C   UNL     1       0.850   2.972  20.887  0.00  0.00    +0.000 C 
ATOM     20  C   UNL     1       1.217   3.612  19.553  0.00  0.00    +0.000 C 
ENDBRANCH   3  16
BRANCH   3  21
ATOM     21  C   UNL     1       3.740   3.748  17.737  0.00  0.00    +0.000 C 
BRANCH  21  22
ATOM     22  C   UNL     1       5.045   3.954  16.988  0.00  0.00    +0.000 A 
ATOM     23  C   UNL     1       6.109   4.687  17.563  0.00  0.00    +0.000 A 
ATOM     24  C   UNL     1       7.163   5.177  16.779  0.00  0.00    +0.000 A 
ATOM     25  C   UNL     1       7.128   4.932  15.424  0.00  0.00    +0.000 A 
ATOM     26  C   UNL     1       6.138   4.167  14.860  0.00  0.00    +0.000 A 
ATOM     27  C   UNL     1       5.104   3.643  15.612  0.00  0.00    +0.000 A 
ATOM     28  O   UNL     1       6.260   4.079  13.507  0.00  0.00    +0.000 OA
ATOM     29  C   UNL     1       7.333   5.018  13.277  0.00  0.00    +0.000 C 
ATOM     30  O   UNL     1       7.987   5.433  14.497  0.00  0.00    +0.000 OA
ENDBRANCH  21  22
ENDBRANCH   3  21
TORSDOF 4
ENDMDL
MODEL 3
REMARK VINA RESULT:      -8.8      3.130      8.524
REMARK  Name = 
REMARK  4 active torsions:
REMARK  status: ('A' for Active; 'I' for Inactive)
REMARK    1  A    between atoms: C_7  and  C_8
REMARK    2  A    between atoms: N_10  and  C_11
REMARK    3  A    between atoms: N_10  and  C_21
REMARK    4  A    between atoms: C_11  and  C_12
REMARK                            x       y       z     vdW  Elec       q    Type
REMARK                         _______ _______ _______ _____ _____    ______ ____
ROOT
ATOM      1  C   UNL     1       1.690   8.739  18.212  0.00  0.00    +0.000 C 
ATOM      2  O   UNL     1       1.919   9.232  17.106  0.00  0.00    +0.000 OA
ATOM      3  N   UNL     1       0.713   9.263  19.098  0.00  0.00    +0.000 N 
ENDROOT
BRANCH   1  10
ATOM      4  O   UNL     1       4.456   1.761  19.835  0.00  0.00    +0.000 OA
ATOM      5  C   UNL     1       3.951   2.882  19.889  0.00  0.00    +0.000 C 
ATOM      6  C   UNL     1       2.648   3.137  20.615  0.00  0.00    +0.000 C 
ATOM      7  C   UNL     1       2.479   4.595  21.019  0.00  0.00    +0.000 C 
ATOM      8  C   UNL     1       2.809   5.515  19.874  0.00  0.00    +0.000 A 
ATOM      9  C   UNL     1       2.107   6.696  19.613  0.00  0.00    +0.000 A 
ATOM     10  C   UNL     1       2.552   7.575  18.608  0.00  0.00    +0.000 A 
ATOM     11  C   UNL     1       3.794   7.345  18.011  0.00  0.00    +0.000 A 
ATOM     12  C   UNL     1       4.458   6.130  18.211  0.00  0.00    +0.000 A 
ATOM     13  C   UNL     1       3.928   5.195  19.099  0.00  0.00    +0.000 A 
ATOM     14  N   UNL     1       4.502   3.929  19.198  0.00  0.00    +0.000 N 
ATOM     15  H   UNL     1       5.314   3.691  18.638  0.00  0.00    +0.000 HD
ENDBRANCH   1  10
BRANCH   3  16
ATOM     16  C   UNL     1       0.747   9.005  20.551  0.00  0.00    +0.000 C 
ATOM     17  C   UNL     1      -0.530   8.424  21.153  0.00  0.00    +0.000 C 
ATOM     18  C   UNL     1      -0.398   8.686  22.653  0.00  0.00    +0.000 C 
ATOM     19  C   UNL     1       0.691   9.747  22.824  0.00  0.00    +0.000 C 
ATOM     20  C   UNL     1       1.035  10.232  21.421  0.00  0.00    +0.000 C 
ENDBRANCH   3  16
BRANCH   3  21
ATOM     21  C   UNL     1       0.066  10.519  18.674  0.00  0.00    +0.000 C 
BRANCH  21  22
ATOM     22  C   UNL     1      -1.393  10.486  18.253  0.00  0.00    +0.000 A 
ATOM     23  C   UNL     1      -1.781   9.934  17.010  0.00  0.00    +0.000 A 
ATOM     24  C   UNL     1      -3.043  10.199  16.458  0.00  0.00    +0.000 A 
ATOM     25  C   UNL     1      -3.895  11.022  17.160  0.00  0.00    +0.000 A 
ATOM     26  C   UNL     1      -3.560  11.512  18.398  0.00  0.00    +0.000 A 
ATOM     27  C   UNL     1      -2.337  11.241  18.981  0.00  0.00    +0.000 A 
ATOM     28  O   UNL     1      -4.517  12.337  18.904  0.00  0.00    +0.000 OA
ATOM     29  C   UNL     1      -5.402  12.442  17.768  0.00  0.00    +0.000 C 
ATOM     30  O   UNL     1      -5.096  11.489  16.727  0.00  0.00    +0.000 OA
ENDBRANCH  21  22
ENDBRANCH   3  21
TORSDOF 4
ENDMDL
MODEL 4
REMARK VINA RESULT:      -8.7      3.161      8.360
REMARK  Name = 
REMARK  4 active torsions:
REMARK  status: ('A' for Active; 'I' for Inactive)
REMARK    1  A    between atoms: C_7  and  C_8
REMARK    2  A    between atoms: N_10  and  C_11
REMARK    3  A    between atoms: N_10  and  C_21
REMARK    4  A    between atoms: C_11  and  C_12
REMARK                            x       y       z     vdW  Elec       q    Type
REMARK                         _______ _______ _______ _____ _____    ______ ____
ROOT
ATOM      1  C   UNL     1       2.145   8.356  18.297  0.00  0.00    +0.000 C 
ATOM      2  O   UNL     1       2.646   8.790  17.259  0.00  0.00    +0.000 OA
ATOM      3  N   UNL     1       1.280   9.132  19.113  0.00  0.00    +0.000 N 
ENDROOT
BRANCH   1  10
ATOM      4  O   UNL     1       3.950   0.892  18.410  0.00  0.00    +0.000 OA
ATOM      5  C   UNL     1       3.370   1.976  18.464  0.00  0.00    +0.000 C 
ATOM      6  C   UNL     1       2.043   2.208  17.774  0.00  0.00    +0.000 C 
ATOM      7  C   UNL     1       1.263   3.366  18.380  0.00  0.00    +0.000 C 
ATOM      8  C   UNL     1       2.146   4.570  18.574  0.00  0.00    +0.000 A 
ATOM      9  C   UNL     1       1.709   5.883  18.368  0.00  0.00    +0.000 A 
ATOM     10  C   UNL     1       2.547   6.966  18.696  0.00  0.00    +0.000 A 
ATOM     11  C   UNL     1       3.730   6.717  19.396  0.00  0.00    +0.000 A 
ATOM     12  C   UNL     1       4.205   5.408  19.535  0.00  0.00    +0.000 A 
ATOM     13  C   UNL     1       3.435   4.344  19.068  0.00  0.00    +0.000 A 
ATOM     14  N   UNL     1       3.960   3.053  19.071  0.00  0.00    +0.000 N 
ATOM     15  H   UNL     1       4.895   2.883  19.427  0.00  0.00    +0.000 HD
ENDBRANCH   1  10
BRANCH   3  16
ATOM     16  C   UNL     1       1.058   8.825  20.541  0.00  0.00    +0.000 C 
ATOM     17  C   UNL     1      -0.359   8.398  20.915  0.00  0.00    +0.000 C 
ATOM     18  C   UNL     1      -0.428   8.592  22.430  0.00  0.00    +0.000 C 
ATOM     19  C   UNL     1       0.747   9.495  22.815  0.00  0.00    +0.000 C 
ATOM     20  C   UNL     1       1.360   9.975  21.505  0.00  0.00    +0.000 C 
ENDBRANCH   3  16
BRANCH   3  21
ATOM     21  C   UNL     1       1.111  10.542  18.716  0.00  0.00    +0.000 C 
BRANCH  21  22
ATOM     22  C   UNL     1      -0.294  11.086  18.523  0.00  0.00    +0.000 A 
ATOM     23  C   UNL     1      -0.773  12.164  19.302  0.00  0.00    +0.000 A 
ATOM     24  C   UNL     1      -2.144  12.450  19.386  0.00  0.00    +0.000 A 
ATOM     25  C   UNL     1      -3.015  11.640  18.691  0.00  0.00    +0.000 A 
ATOM     26  C   UNL     1      -2.562  10.632  17.877  0.00  0.00    +0.000 A 
ATOM     27  C   UNL     1      -1.216  10.348  17.750  0.00  0.00    +0.000 A 
ATOM     28  O   UNL     1      -3.580   9.924  17.315  0.00  0.00    +0.000 OA
ATOM     29  C   UNL     1      -4.712  10.496  18.007  0.00  0.00    +0.000 C 
ATOM     30  O   UNL     1      -4.372  11.685  18.753  0.00  0.00    +0.000 OA
ENDBRANCH  21  22
ENDBRANCH   3  21
TORSDOF 4
ENDMDL
MODEL 5
REMARK VINA RESULT:      -8.6      1.684      2.288
REMARK  Name = 
REMARK  4 active torsions:
REMARK  status: ('A' for Active; 'I' for Inactive)
REMARK    1  A    between atoms: C_7  and  C_8
REMARK    2  A    between atoms: N_10  and  C_11
REMARK    3  A    between atoms: N_10  and  C_21
REMARK    4  A    between atoms: C_11  and  C_12
REMARK                            x       y       z     vdW  Elec       q    Type
REMARK                         _______ _______ _______ _____ _____    ______ ____
ROOT
ATOM      1  C   UNL     1       3.857   6.191  19.129  0.00  0.00    +0.000 C 
ATOM      2  O   UNL     1       5.002   6.575  18.886  0.00  0.00    +0.000 OA
ATOM      3  N   UNL     1       3.551   4.841  19.443  0.00  0.00    +0.000 N 
ENDROOT
BRANCH   1  10
ATOM      4  O   UNL     1      -0.675  12.327  20.023  0.00  0.00    +0.000 OA
ATOM      5  C   UNL     1      -0.159  11.211  20.081  0.00  0.00    +0.000 C 
ATOM      6  C   UNL     1       0.075  10.506  21.400  0.00  0.00    +0.000 C 
ATOM      7  C   UNL     1       0.205   8.998  21.242  0.00  0.00    +0.000 C 
ATOM      8  C   UNL     1       1.138   8.651  20.112  0.00  0.00    +0.000 A 
ATOM      9  C   UNL     1       2.027   7.572  20.157  0.00  0.00    +0.000 A 
ATOM     10  C   UNL     1       2.775   7.225  19.015  0.00  0.00    +0.000 A 
ATOM     11  C   UNL     1       2.480   7.849  17.800  0.00  0.00    +0.000 A 
ATOM     12  C   UNL     1       1.651   8.975  17.768  0.00  0.00    +0.000 A 
ATOM     13  C   UNL     1       1.031   9.406  18.940  0.00  0.00    +0.000 A 
ATOM     14  N   UNL     1       0.321  10.606  18.950  0.00  0.00    +0.000 N 
ATOM     15  H   UNL     1       0.241  11.158  18.102  0.00  0.00    +0.000 HD
ENDBRANCH   1  10
BRANCH   3  16
ATOM     16  C   UNL     1       2.196   4.280  19.274  0.00  0.00    +0.000 C 
ATOM     17  C   UNL     1       1.460   3.922  20.564  0.00  0.00    +0.000 C 
ATOM     18  C   UNL     1       0.344   2.978  20.116  0.00  0.00    +0.000 C 
ATOM     19  C   UNL     1       0.712   2.491  18.712  0.00  0.00    +0.000 C 
ATOM     20  C   UNL     1       2.125   2.995  18.445  0.00  0.00    +0.000 C 
ENDBRANCH   3  16
BRANCH   3  21
ATOM     21  C   UNL     1       4.670   3.885  19.338  0.00  0.00    +0.000 C 
BRANCH  21  22
ATOM     22  C   UNL     1       5.585   3.959  18.128  0.00  0.00    +0.000 A 
ATOM     23  C   UNL     1       6.897   4.475  18.236  0.00  0.00    +0.000 A 
ATOM     24  C   UNL     1       7.620   4.868  17.100  0.00  0.00    +0.000 A 
ATOM     25  C   UNL     1       7.010   4.745  15.872  0.00  0.00    +0.000 A 
ATOM     26  C   UNL     1       5.763   4.185  15.744  0.00  0.00    +0.000 A 
ATOM     27  C   UNL     1       5.040   3.758  16.842  0.00  0.00    +0.000 A 
ATOM     28  O   UNL     1       5.322   4.194  14.456  0.00  0.00    +0.000 OA
ATOM     29  C   UNL     1       6.358   4.979  13.828  0.00  0.00    +0.000 C 
ATOM     30  O   UNL     1       7.502   5.190  14.685  0.00  0.00    +0.000 OA
ENDBRANCH  21  22
ENDBRANCH   3  21
TORSDOF 4
ENDMDL
MODEL 6
REMARK VINA RESULT:      -8.5      2.911      8.417
REMARK  Name = 
REMARK  4 active torsions:
REMARK  status: ('A' for Active; 'I' for Inactive)
REMARK    1  A    between atoms: C_7  and  C_8
REMARK    2  A    between atoms: N_10  and  C_11
REMARK    3  A    between atoms: N_10  and  C_21
REMARK    4  A    between atoms: C_11  and  C_12
REMARK                            x       y       z     vdW  Elec       q    Type
REMARK                         _______ _______ _______ _____ _____    ______ ____
ROOT
ATOM      1  C   UNL     1       1.884   9.293  18.324  0.00  0.00    +0.000 C 
ATOM      2  O   UNL     1       2.326   9.929  17.366  0.00  0.00    +0.000 OA
ATOM      3  N   UNL     1       0.970   9.850  19.257  0.00  0.00    +0.000 N 
ENDROOT
BRANCH   1  10
ATOM      4  O   UNL     1       2.673   1.695  19.122  0.00  0.00    +0.000 OA
ATOM      5  C   UNL     1       2.550   2.905  19.314  0.00  0.00    +0.000 C 
ATOM      6  C   UNL     1       1.553   3.459  20.308  0.00  0.00    +0.000 C 
ATOM      7  C   UNL     1       1.914   4.860  20.780  0.00  0.00    +0.000 C 
ATOM      8  C   UNL     1       2.277   5.746  19.617  0.00  0.00    +0.000 A 
ATOM      9  C   UNL     1       1.928   7.099  19.546  0.00  0.00    +0.000 A 
ATOM     10  C   UNL     1       2.413   7.899  18.494  0.00  0.00    +0.000 A 
ATOM     11  C   UNL     1       3.386   7.374  17.640  0.00  0.00    +0.000 A 
ATOM     12  C   UNL     1       3.678   6.006  17.660  0.00  0.00    +0.000 A 
ATOM     13  C   UNL     1       3.074   5.187  18.613  0.00  0.00    +0.000 A 
ATOM     14  N   UNL     1       3.246   3.806  18.552  0.00  0.00    +0.000 N 
ATOM     15  H   UNL     1       3.823   3.395  17.825  0.00  0.00    +0.000 HD
ENDBRANCH   1  10
BRANCH   3  16
ATOM     16  C   UNL     1       0.802   9.303  20.618  0.00  0.00    +0.000 C 
ATOM     17  C   UNL     1      -0.608   8.838  20.978  0.00  0.00    +0.000 C 
ATOM     18  C   UNL     1      -0.607   8.766  22.504  0.00  0.00    +0.000 C 
ATOM     19  C   UNL     1       0.603   9.570  22.986  0.00  0.00    +0.000 C 
ATOM     20  C   UNL     1       1.170  10.262  21.753  0.00  0.00    +0.000 C 
ENDBRANCH   3  16
BRANCH   3  21
ATOM     21  C   UNL     1       0.672  11.285  19.090  0.00  0.00    +0.000 C 
BRANCH  21  22
ATOM     22  C   UNL     1      -0.777  11.721  18.958  0.00  0.00    +0.000 A 
ATOM     23  C   UNL     1      -1.410  12.469  19.978  0.00  0.00    +0.000 A 
ATOM     24  C   UNL     1      -2.807  12.581  20.038  0.00  0.00    +0.000 A 
ATOM     25  C   UNL     1      -3.549  11.932  19.076  0.00  0.00    +0.000 A 
ATOM     26  C   UNL     1      -2.948  11.258  18.042  0.00  0.00    +0.000 A 
ATOM     27  C   UNL     1      -1.574  11.158  17.938  0.00  0.00    +0.000 A 
ATOM     28  O   UNL     1      -3.853  10.653  17.224  0.00  0.00    +0.000 OA
ATOM     29  C   UNL     1      -5.072  10.881  17.965  0.00  0.00    +0.000 C 
ATOM     30  O   UNL     1      -4.904  11.824  19.047  0.00  0.00    +0.000 OA
ENDBRANCH  21  22
ENDBRANCH   3  21
TORSDOF 4
ENDMDL
MODEL 7
REMARK VINA RESULT:      -8.5      1.358      2.038
REMARK  Name = 
REMARK  4 active torsions:
REMARK  status: ('A' for Active; 'I' for Inactive)
REMARK    1  A    between atoms: C_7  and  C_8
REMARK    2  A    between atoms: N_10  and  C_11
REMARK    3  A    between atoms: N_10  and  C_21
REMARK    4  A    between atoms: C_11  and  C_12
REMARK                            x       y       z     vdW  Elec       q    Type
REMARK                         _______ _______ _______ _____ _____    ______ ____
ROOT
ATOM      1  C   UNL     1       3.346   5.978  17.970  0.00  0.00    +0.000 C 
ATOM      2  O   UNL     1       3.903   6.128  16.882  0.00  0.00    +0.000 OA
ATOM      3  N   UNL     1       3.434   4.773  18.717  0.00  0.00    +0.000 N 
ENDROOT
BRANCH   1  10
ATOM      4  O   UNL     1       0.446  11.969  21.802  0.00  0.00    +0.000 OA
ATOM      5  C   UNL     1       0.715  10.844  21.380  0.00  0.00    +0.000 C 
ATOM      6  C   UNL     1       1.017   9.691  22.313  0.00  0.00    +0.000 C 
ATOM      7  C   UNL     1       0.793   8.336  21.659  0.00  0.00    +0.000 C 
ATOM      8  C   UNL     1       1.423   8.284  20.292  0.00  0.00    +0.000 A 
ATOM      9  C   UNL     1       2.056   7.146  19.782  0.00  0.00    +0.000 A 
ATOM     10  C   UNL     1       2.505   7.126  18.448  0.00  0.00    +0.000 A 
ATOM     11  C   UNL     1       2.145   8.175  17.598  0.00  0.00    +0.000 A 
ATOM     12  C   UNL     1       1.583   9.345  18.121  0.00  0.00    +0.000 A 
ATOM     13  C   UNL     1       1.279   9.414  19.480  0.00  0.00    +0.000 A 
ATOM     14  N   UNL     1       0.853  10.619  20.036  0.00  0.00    +0.000 N 
ATOM     15  H   UNL     1       0.748  11.442  19.452  0.00  0.00    +0.000 HD
ENDBRANCH   1  10
BRANCH   3  16
ATOM     16  C   UNL     1       2.436   4.406  19.741  0.00  0.00    +0.000 C 
ATOM     17  C   UNL     1       2.977   3.652  20.954  0.00  0.00    +0.000 C 
ATOM     18  C   UNL     1       1.741   3.014  21.588  0.00  0.00    +0.000 C 
ATOM     19  C   UNL     1       0.632   3.050  20.533  0.00  0.00    +0.000 C 
ATOM     20  C   UNL     1       1.291   3.520  19.241  0.00  0.00    +0.000 C 
ENDBRANCH   3  16
BRANCH   3  21
ATOM     21  C   UNL     1       4.132   3.654  18.055  0.00  0.00    +0.000 C 
BRANCH  21  22
ATOM     22  C   UNL     1       5.363   3.952  17.218  0.00  0.00    +0.000 A 
ATOM     23  C   UNL     1       6.368   4.832  17.684  0.00  0.00    +0.000 A 
ATOM     24  C   UNL     1       7.317   5.381  16.810  0.00  0.00    +0.000 A 
ATOM     25  C   UNL     1       7.238   5.045  15.476  0.00  0.00    +0.000 A 
ATOM     26  C   UNL     1       6.312   4.141  15.019  0.00  0.00    +0.000 A 
ATOM     27  C   UNL     1       5.384   3.559  15.862  0.00  0.00    +0.000 A 
ATOM     28  O   UNL     1       6.371   3.978  13.669  0.00  0.00    +0.000 OA
ATOM     29  C   UNL     1       7.319   5.010  13.320  0.00  0.00    +0.000 C 
ATOM     30  O   UNL     1       7.985   5.574  14.471  0.00  0.00    +0.000 OA
ENDBRANCH  21  22
ENDBRANCH   3  21
TORSDOF 4
ENDMDL
MODEL 8
REMARK VINA RESULT:      -8.4      1.955      2.673
REMARK  Name = 
REMARK  4 active torsions:
REMARK  status: ('A' for Active; 'I' for Inactive)
REMARK    1  A    between atoms: C_7  and  C_8
REMARK    2  A    between atoms: N_10  and  C_11
REMARK    3  A    between atoms: N_10  and  C_21
REMARK    4  A    between atoms: C_11  and  C_12
REMARK                            x       y       z     vdW  Elec       q    Type
REMARK                         _______ _______ _______ _____ _____    ______ ____
ROOT
ATOM      1  C   UNL     1       2.500   7.714  18.199  0.00  0.00    +0.000 C 
ATOM      2  O   UNL     1       3.059   8.321  17.284  0.00  0.00    +0.000 OA
ATOM      3  N   UNL     1       2.809   6.369  18.528  0.00  0.00    +0.000 N 
ENDROOT
BRANCH   1  10
ATOM      4  O   UNL     1      -1.582  11.939  23.146  0.00  0.00    +0.000 OA
ATOM      5  C   UNL     1      -1.034  11.022  22.536  0.00  0.00    +0.000 C 
ATOM      6  C   UNL     1      -0.261   9.935  23.251  0.00  0.00    +0.000 C 
ATOM      7  C   UNL     1      -0.134   8.665  22.423  0.00  0.00    +0.000 C 
ATOM      8  C   UNL     1       0.286   8.979  21.012  0.00  0.00    +0.000 A 
ATOM      9  C   UNL     1       1.169   8.179  20.278  0.00  0.00    +0.000 A 
ATOM     10  C   UNL     1       1.414   8.460  18.921  0.00  0.00    +0.000 A 
ATOM     11  C   UNL     1       0.631   9.420  18.277  0.00  0.00    +0.000 A 
ATOM     12  C   UNL     1      -0.194  10.271  19.021  0.00  0.00    +0.000 A 
ATOM     13  C   UNL     1      -0.315  10.083  20.397  0.00  0.00    +0.000 A 
ATOM     14  N   UNL     1      -1.017  11.008  21.166  0.00  0.00    +0.000 N 
ATOM     15  H   UNL     1      -1.454  11.811  20.725  0.00  0.00    +0.000 HD
ENDBRANCH   1  10
BRANCH   3  16
ATOM     16  C   UNL     1       1.868   5.501  19.264  0.00  0.00    +0.000 C 
ATOM     17  C   UNL     1       2.342   5.020  20.634  0.00  0.00    +0.000 C 
ATOM     18  C   UNL     1       1.440   3.828  20.952  0.00  0.00    +0.000 C 
ATOM     19  C   UNL     1       0.792   3.398  19.634  0.00  0.00    +0.000 C 
ATOM     20  C   UNL     1       1.475   4.210  18.540  0.00  0.00    +0.000 C 
ENDBRANCH   3  16
BRANCH   3  21
ATOM     21  C   UNL     1       3.756   5.686  17.626  0.00  0.00    +0.000 C 
BRANCH  21  22
ATOM     22  C   UNL     1       5.243   5.949  17.790  0.00  0.00    +0.000 A 
ATOM     23  C   UNL     1       6.007   5.247  18.751  0.00  0.00    +0.000 A 
ATOM     24  C   UNL     1       7.270   5.705  19.153  0.00  0.00    +0.000 A 
ATOM     25  C   UNL     1       7.744   6.869  18.590  0.00  0.00    +0.000 A 
ATOM     26  C   UNL     1       7.045   7.526  17.608  0.00  0.00    +0.000 A 
ATOM     27  C   UNL     1       5.813   7.081  17.168  0.00  0.00    +0.000 A 
ATOM     28  O   UNL     1       7.662   8.674  17.214  0.00  0.00    +0.000 OA
ATOM     29  C   UNL     1       8.731   8.745  18.182  0.00  0.00    +0.000 C 
ATOM     30  O   UNL     1       8.879   7.527  18.946  0.00  0.00    +0.000 OA
ENDBRANCH  21  22
ENDBRANCH   3  21
TORSDOF 4
ENDMDL
MODEL 9
REMARK VINA RESULT:      -8.4      1.437      2.428
REMARK  Name = 
REMARK  4 active torsions:
REMARK  status: ('A' for Active; 'I' for Inactive)
REMARK    1  A    between atoms: C_7  and  C_8
REMARK    2  A    between atoms: N_10  and  C_11
REMARK    3  A    between atoms: N_10  and  C_21
REMARK    4  A    between atoms: C_11  and  C_12
REMARK                            x       y       z     vdW  Elec       q    Type
REMARK                         _______ _______ _______ _____ _____    ______ ____
ROOT
ATOM      1  C   UNL     1       3.956   6.818  18.223  0.00  0.00    +0.000 C 
ATOM      2  O   UNL     1       4.800   7.392  17.534  0.00  0.00    +0.000 OA
ATOM      3  N   UNL     1       4.077   5.457  18.609  0.00  0.00    +0.000 N 
ENDROOT
BRANCH   1  10
ATOM      4  O   UNL     1      -1.074  11.562  21.568  0.00  0.00    +0.000 OA
ATOM      5  C   UNL     1      -0.411  10.585  21.220  0.00  0.00    +0.000 C 
ATOM      6  C   UNL     1       0.192   9.629  22.225  0.00  0.00    +0.000 C 
ATOM      7  C   UNL     1       0.489   8.261  21.627  0.00  0.00    +0.000 C 
ATOM      8  C   UNL     1       1.199   8.392  20.305  0.00  0.00    +0.000 A 
ATOM      9  C   UNL     1       2.216   7.525  19.892  0.00  0.00    +0.000 A 
ATOM     10  C   UNL     1       2.744   7.624  18.591  0.00  0.00    +0.000 A 
ATOM     11  C   UNL     1       2.115   8.466  17.670  0.00  0.00    +0.000 A 
ATOM     12  C   UNL     1       1.153   9.387  18.098  0.00  0.00    +0.000 A 
ATOM     13  C   UNL     1       0.744   9.384  19.431  0.00  0.00    +0.000 A 
ATOM     14  N   UNL     1      -0.104  10.386  19.899  0.00  0.00    +0.000 N 
ATOM     15  H   UNL     1      -0.437  11.109  19.269  0.00  0.00    +0.000 HD
ENDBRANCH   1  10
BRANCH   3  16
ATOM     16  C   UNL     1       2.910   4.645  19.007  0.00  0.00    +0.000 C 
ATOM     17  C   UNL     1       3.228   3.292  19.641  0.00  0.00    +0.000 C 
ATOM     18  C   UNL     1       1.925   2.502  19.527  0.00  0.00    +0.000 C 
ATOM     19  C   UNL     1       1.059   3.222  18.490  0.00  0.00    +0.000 C 
ATOM     20  C   UNL     1       1.944   4.297  17.871  0.00  0.00    +0.000 C 
ENDBRANCH   3  16
BRANCH   3  21
ATOM     21  C   UNL     1       5.216   4.721  18.030  0.00  0.00    +0.000 C 
BRANCH  21  22
ATOM     22  C   UNL     1       5.433   4.774  16.527  0.00  0.00    +0.000 A 
ATOM     23  C   UNL     1       4.691   3.946  15.653  0.00  0.00    +0.000 A 
ATOM     24  C   UNL     1       5.105   3.726  14.331  0.00  0.00    +0.000 A 
ATOM     25  C   UNL     1       6.265   4.337  13.908  0.00  0.00    +0.000 A 
ATOM     26  C   UNL     1       6.961   5.196  14.723  0.00  0.00    +0.000 A 
ATOM     27  C   UNL     1       6.559   5.456  16.019  0.00  0.00    +0.000 A 
ATOM     28  O   UNL     1       8.097   5.660  14.134  0.00  0.00    +0.000 OA
ATOM     29  C   UNL     1       8.119   4.858  12.934  0.00  0.00    +0.000 C 
ATOM     30  O   UNL     1       6.884   4.142  12.714  0.00  0.00    +0.000 OA
ENDBRANCH  21  22
ENDBRANCH   3  21
TORSDOF 4
ENDMDL
