MODEL 1
REMARK VINA RESULT:      -8.9      0.000      0.000
REMARK  Name = 
REMARK  7 active torsions:
REMARK  status: ('A' for Active; 'I' for Inactive)
REMARK    1  A    between atoms: C_1  and  C_2
REMARK    2  A    between atoms: C_6  and  C_7
REMARK    3  A    between atoms: N_13  and  C_14
REMARK    4  A    between atoms: C_18  and  C_19
REMARK    5  A    between atoms: C_19  and  C_20
REMARK    6  A    between atoms: C_20  and  C_21
REMARK    7  A    between atoms: N_25  and  C_26
REMARK                            x       y       z     vdW  Elec       q    Type
REMARK                         _______ _______ _______ _____ _____    ______ ____
ROOT
ATOM      1  C   UNL     1      -1.190  13.046  19.335  0.00  0.00    +0.000 C 
ATOM      2  C   UNL     1      -0.500  11.752  19.650  0.00  0.00    +0.000 A 
ATOM      3  C   UNL     1       0.342  11.162  18.710  0.00  0.00    +0.000 A 
ATOM      4  C   UNL     1       0.949   9.965  19.044  0.00  0.00    +0.000 A 
ATOM      5  C   UNL     1       0.750   9.301  20.250  0.00  0.00    +0.000 A 
ATOM      6  C   UNL     1      -0.057   9.886  21.220  0.00  0.00    +0.000 A 
ATOM      7  C   UNL     1      -0.684  11.117  20.900  0.00  0.00    +0.000 A 
ATOM      8  C   UNL     1       1.503   7.994  20.214  0.00  0.00    +0.000 C 
ATOM      9  N   UNL     1       2.189   8.037  18.927  0.00  0.00    +0.000 N 
ATOM     10  C   UNL     1       1.858   9.190  18.214  0.00  0.00    +0.000 C 
ATOM     11  O   UNL     1       2.173   9.559  17.096  0.00  0.00    +0.000 OA
ENDROOT
BRANCH   9  12
ATOM     12  C   UNL     1       2.978   6.982  18.388  0.00  0.00    +0.000 A 
ATOM     13  C   UNL     1       4.199   7.283  17.762  0.00  0.00    +0.000 A 
ATOM     14  C   UNL     1       4.940   6.308  17.100  0.00  0.00    +0.000 A 
ATOM     15  C   UNL     1       4.462   5.007  17.029  0.00  0.00    +0.000 A 
ATOM     16  C   UNL     1       3.252   4.667  17.650  0.00  0.00    +0.000 A 
ATOM     17  C   UNL     1       2.545   5.649  18.380  0.00  0.00    +0.000 A 
BRANCH  16  18
ATOM     18  C   UNL     1       2.671   3.288  17.420  0.00  0.00    +0.000 C 
BRANCH  18  19
ATOM     19  C   UNL     1       3.258   2.200  18.319  0.00  0.00    +0.000 C 
BRANCH  19  20
ATOM     20  C   UNL     1       2.793   2.373  19.729  0.00  0.00    +0.000 A 
ATOM     21  N   UNL     1       3.567   2.399  20.796  0.00  0.00    +0.000 NA
ATOM     22  N   UNL     1       2.772   2.596  21.901  0.00  0.00    +0.000 NA
ATOM     23  C   UNL     1       1.533   2.687  21.488  0.00  0.00    +0.000 A 
ATOM     24  N   UNL     1       1.494   2.555  20.133  0.00  0.00    +0.000 N 
ATOM     25  C   UNL     1       0.310   2.609  19.319  0.00  0.00    +0.000 C 
ENDBRANCH  19  20
ENDBRANCH  18  19
ENDBRANCH  16  18
ENDBRANCH   9  12
BRANCH   6  26
ATOM     26  C   UNL     1      -0.284   9.284  22.583  0.00  0.00    +0.000 C 
ATOM     27  F   UNL     1      -1.111  10.021  23.373  0.00  0.00    +0.000 F 
ATOM     28  F   UNL     1      -0.844   8.046  22.511  0.00  0.00    +0.000 F 
ATOM     29  F   UNL     1       0.871   9.133  23.286  0.00  0.00    +0.000 F 
ENDBRANCH   6  26
TORSDOF 5
ENDMDL
MODEL 2
REMARK VINA RESULT:      -8.9      0.763      1.389
REMARK  Name = 
REMARK  7 active torsions:
REMARK  status: ('A' for Active; 'I' for Inactive)
REMARK    1  A    between atoms: C_1  and  C_2
REMARK    2  A    between atoms: C_6  and  C_7
REMARK    3  A    between atoms: N_13  and  C_14
REMARK    4  A    between atoms: C_18  and  C_19
REMARK    5  A    between atoms: C_19  and  C_20
REMARK    6  A    between atoms: C_20  and  C_21
REMARK    7  A    between atoms: N_25  and  C_26
REMARK                            x       y       z     vdW  Elec       q    Type
REMARK                         _______ _______ _______ _____ _____    ______ ____
ROOT
ATOM      1  C   UNL     1      -0.439  13.769  19.681  0.00  0.00    +0.000 C 
ATOM      2  C   UNL     1      -0.001  12.359  19.946  0.00  0.00    +0.000 A 
ATOM      3  C   UNL     1       0.773  11.681  19.008  0.00  0.00    +0.000 A 
ATOM      4  C   UNL     1       1.146  10.379  19.294  0.00  0.00    +0.000 A 
ATOM      5  C   UNL     1       0.774   9.699  20.448  0.00  0.00    +0.000 A 
ATOM      6  C   UNL     1       0.031  10.365  21.418  0.00  0.00    +0.000 A 
ATOM      7  C   UNL     1      -0.356  11.702  21.147  0.00  0.00    +0.000 A 
ATOM      8  C   UNL     1       1.290   8.284  20.364  0.00  0.00    +0.000 C 
ATOM      9  N   UNL     1       2.038   8.272  19.112  0.00  0.00    +0.000 N 
ATOM     10  C   UNL     1       1.948   9.501  18.457  0.00  0.00    +0.000 C 
ATOM     11  O   UNL     1       2.379   9.867  17.377  0.00  0.00    +0.000 OA
ENDROOT
BRANCH   9  12
ATOM     12  C   UNL     1       2.659   7.125  18.544  0.00  0.00    +0.000 A 
ATOM     13  C   UNL     1       3.945   7.237  17.991  0.00  0.00    +0.000 A 
ATOM     14  C   UNL     1       4.540   6.184  17.302  0.00  0.00    +0.000 A 
ATOM     15  C   UNL     1       3.847   4.994  17.130  0.00  0.00    +0.000 A 
ATOM     16  C   UNL     1       2.565   4.840  17.676  0.00  0.00    +0.000 A 
ATOM     17  C   UNL     1       2.001   5.891  18.434  0.00  0.00    +0.000 A 
BRANCH  16  18
ATOM     18  C   UNL     1       1.766   3.600  17.337  0.00  0.00    +0.000 C 
BRANCH  18  19
ATOM     19  C   UNL     1       2.224   2.336  18.065  0.00  0.00    +0.000 C 
BRANCH  19  20
ATOM     20  C   UNL     1       2.092   2.503  19.544  0.00  0.00    +0.000 A 
ATOM     21  N   UNL     1       0.963   2.686  20.200  0.00  0.00    +0.000 NA
ATOM     22  N   UNL     1       1.252   2.775  21.541  0.00  0.00    +0.000 NA
ATOM     23  C   UNL     1       2.547   2.644  21.678  0.00  0.00    +0.000 A 
ATOM     24  N   UNL     1       3.119   2.470  20.454  0.00  0.00    +0.000 N 
ATOM     25  C   UNL     1       4.522   2.283  20.203  0.00  0.00    +0.000 C 
ENDBRANCH  19  20
ENDBRANCH  18  19
ENDBRANCH  16  18
ENDBRANCH   9  12
BRANCH   6  26
ATOM     26  C   UNL     1      -0.367   9.742  22.731  0.00  0.00    +0.000 C 
ATOM     27  F   UNL     1      -0.971   8.530  22.599  0.00  0.00    +0.000 F 
ATOM     28  F   UNL     1       0.703   9.538  23.548  0.00  0.00    +0.000 F 
ATOM     29  F   UNL     1      -1.234  10.518  23.436  0.00  0.00    +0.000 F 
ENDBRANCH   6  26
TORSDOF 5
ENDMDL
MODEL 3
REMARK VINA RESULT:      -8.8      2.981      4.300
REMARK  Name = 
REMARK  7 active torsions:
REMARK  status: ('A' for Active; 'I' for Inactive)
REMARK    1  A    between atoms: C_1  and  C_2
REMARK    2  A    between atoms: C_6  and  C_7
REMARK    3  A    between atoms: N_13  and  C_14
REMARK    4  A    between atoms: C_18  and  C_19
REMARK    5  A    between atoms: C_19  and  C_20
REMARK    6  A    between atoms: C_20  and  C_21
REMARK    7  A    between atoms: N_25  and  C_26
REMARK                            x       y       z     vdW  Elec       q    Type
REMARK                         _______ _______ _______ _____ _____    ______ ____
ROOT
ATOM      1  C   UNL     1       0.085  12.707  18.663  0.00  0.00    +0.000 C 
ATOM      2  C   UNL     1       0.446  11.387  19.278  0.00  0.00    +0.000 A 
ATOM      3  C   UNL     1       1.188  10.459  18.553  0.00  0.00    +0.000 A 
ATOM      4  C   UNL     1       1.488   9.253  19.161  0.00  0.00    +0.000 A 
ATOM      5  C   UNL     1       1.072   8.901  20.441  0.00  0.00    +0.000 A 
ATOM      6  C   UNL     1       0.360   9.824  21.199  0.00  0.00    +0.000 A 
ATOM      7  C   UNL     1       0.048  11.070  20.597  0.00  0.00    +0.000 A 
ATOM      8  C   UNL     1       1.512   7.485  20.721  0.00  0.00    +0.000 C 
ATOM      9  N   UNL     1       2.267   7.124  19.526  0.00  0.00    +0.000 N 
ATOM     10  C   UNL     1       2.248   8.154  18.585  0.00  0.00    +0.000 C 
ATOM     11  O   UNL     1       2.706   8.218  17.457  0.00  0.00    +0.000 OA
ENDROOT
BRANCH   9  12
ATOM     12  C   UNL     1       2.830   5.842  19.274  0.00  0.00    +0.000 A 
ATOM     13  C   UNL     1       2.608   4.798  20.187  0.00  0.00    +0.000 A 
ATOM     14  C   UNL     1       3.247   3.567  20.060  0.00  0.00    +0.000 A 
ATOM     15  C   UNL     1       4.145   3.361  19.022  0.00  0.00    +0.000 A 
ATOM     16  C   UNL     1       4.385   4.375  18.085  0.00  0.00    +0.000 A 
ATOM     17  C   UNL     1       3.677   5.595  18.184  0.00  0.00    +0.000 A 
BRANCH  16  18
ATOM     18  C   UNL     1       5.485   4.187  17.064  0.00  0.00    +0.000 C 
BRANCH  18  19
ATOM     19  C   UNL     1       5.049   4.420  15.617  0.00  0.00    +0.000 C 
BRANCH  19  20
ATOM     20  C   UNL     1       6.227   4.751  14.758  0.00  0.00    +0.000 A 
ATOM     21  N   UNL     1       7.237   5.524  15.103  0.00  0.00    +0.000 NA
ATOM     22  N   UNL     1       8.126   5.567  14.055  0.00  0.00    +0.000 NA
ATOM     23  C   UNL     1       7.643   4.819  13.094  0.00  0.00    +0.000 A 
ATOM     24  N   UNL     1       6.454   4.284  13.488  0.00  0.00    +0.000 N 
ATOM     25  C   UNL     1       5.631   3.404  12.704  0.00  0.00    +0.000 C 
ENDBRANCH  19  20
ENDBRANCH  18  19
ENDBRANCH  16  18
ENDBRANCH   9  12
BRANCH   6  26
ATOM     26  C   UNL     1      -0.080   9.569  22.618  0.00  0.00    +0.000 C 
ATOM     27  F   UNL     1      -0.733  10.620  23.183  0.00  0.00    +0.000 F 
ATOM     28  F   UNL     1      -0.929   8.510  22.710  0.00  0.00    +0.000 F 
ATOM     29  F   UNL     1       0.963   9.287  23.445  0.00  0.00    +0.000 F 
ENDBRANCH   6  26
TORSDOF 5
ENDMDL
MODEL 4
REMARK VINA RESULT:      -8.7      2.455      3.828
REMARK  Name = 
REMARK  7 active torsions:
REMARK  status: ('A' for Active; 'I' for Inactive)
REMARK    1  A    between atoms: C_1  and  C_2
REMARK    2  A    between atoms: C_6  and  C_7
REMARK    3  A    between atoms: N_13  and  C_14
REMARK    4  A    between atoms: C_18  and  C_19
REMARK    5  A    between atoms: C_19  and  C_20
REMARK    6  A    between atoms: C_20  and  C_21
REMARK    7  A    between atoms: N_25  and  C_26
REMARK                            x       y       z     vdW  Elec       q    Type
REMARK                         _______ _______ _______ _____ _____    ______ ____
ROOT
ATOM      1  C   UNL     1      -0.954  12.611  18.705  0.00  0.00    +0.000 C 
ATOM      2  C   UNL     1      -0.346  11.402  19.352  0.00  0.00    +0.000 A 
ATOM      3  C   UNL     1       0.481  10.557  18.616  0.00  0.00    +0.000 A 
ATOM      4  C   UNL     1       1.011   9.451  19.256  0.00  0.00    +0.000 A 
ATOM      5  C   UNL     1       0.749   9.118  20.581  0.00  0.00    +0.000 A 
ATOM      6  C   UNL     1      -0.044   9.964  21.348  0.00  0.00    +0.000 A 
ATOM      7  C   UNL     1      -0.592  11.108  20.713  0.00  0.00    +0.000 A 
ATOM      8  C   UNL     1       1.427   7.807  20.894  0.00  0.00    +0.000 C 
ATOM      9  N   UNL     1       2.141   7.494  19.660  0.00  0.00    +0.000 N 
ATOM     10  C   UNL     1       1.892   8.450  18.675  0.00  0.00    +0.000 C 
ATOM     11  O   UNL     1       2.251   8.515  17.512  0.00  0.00    +0.000 OA
ENDROOT
BRANCH   9  12
ATOM     12  C   UNL     1       2.880   6.301  19.426  0.00  0.00    +0.000 A 
ATOM     13  C   UNL     1       2.239   5.057  19.540  0.00  0.00    +0.000 A 
ATOM     14  C   UNL     1       2.945   3.860  19.458  0.00  0.00    +0.000 A 
ATOM     15  C   UNL     1       4.322   3.882  19.281  0.00  0.00    +0.000 A 
ATOM     16  C   UNL     1       4.996   5.104  19.153  0.00  0.00    +0.000 A 
ATOM     17  C   UNL     1       4.258   6.310  19.167  0.00  0.00    +0.000 A 
BRANCH  16  18
ATOM     18  C   UNL     1       6.509   5.110  19.128  0.00  0.00    +0.000 C 
BRANCH  18  19
ATOM     19  C   UNL     1       7.118   6.030  18.069  0.00  0.00    +0.000 C 
BRANCH  19  20
ATOM     20  C   UNL     1       6.924   5.461  16.701  0.00  0.00    +0.000 A 
ATOM     21  N   UNL     1       7.626   4.479  16.170  0.00  0.00    +0.000 NA
ATOM     22  N   UNL     1       7.135   4.230  14.910  0.00  0.00    +0.000 NA
ATOM     23  C   UNL     1       6.144   5.060  14.698  0.00  0.00    +0.000 A 
ATOM     24  N   UNL     1       5.972   5.851  15.793  0.00  0.00    +0.000 N 
ATOM     25  C   UNL     1       4.975   6.877  15.937  0.00  0.00    +0.000 C 
ENDBRANCH  19  20
ENDBRANCH  18  19
ENDBRANCH  16  18
ENDBRANCH   9  12
BRANCH   6  26
ATOM     26  C   UNL     1      -0.334   9.731  22.809  0.00  0.00    +0.000 C 
ATOM     27  F   UNL     1      -1.022  10.747  23.397  0.00  0.00    +0.000 F 
ATOM     28  F   UNL     1      -1.079   8.610  23.012  0.00  0.00    +0.000 F 
ATOM     29  F   UNL     1       0.797   9.568  23.546  0.00  0.00    +0.000 F 
ENDBRANCH   6  26
TORSDOF 5
ENDMDL
MODEL 5
REMARK VINA RESULT:      -8.7      2.169      3.678
REMARK  Name = 
REMARK  7 active torsions:
REMARK  status: ('A' for Active; 'I' for Inactive)
REMARK    1  A    between atoms: C_1  and  C_2
REMARK    2  A    between atoms: C_6  and  C_7
REMARK    3  A    between atoms: N_13  and  C_14
REMARK    4  A    between atoms: C_18  and  C_19
REMARK    5  A    between atoms: C_19  and  C_20
REMARK    6  A    between atoms: C_20  and  C_21
REMARK    7  A    between atoms: N_25  and  C_26
REMARK                            x       y       z     vdW  Elec       q    Type
REMARK                         _______ _______ _______ _____ _____    ______ ____
ROOT
ATOM      1  C   UNL     1       0.308  12.978  18.667  0.00  0.00    +0.000 C 
ATOM      2  C   UNL     1       0.612  11.612  19.210  0.00  0.00    +0.000 A 
ATOM      3  C   UNL     1       1.268  10.676  18.415  0.00  0.00    +0.000 A 
ATOM      4  C   UNL     1       1.519   9.428  18.958  0.00  0.00    +0.000 A 
ATOM      5  C   UNL     1       1.134   9.044  20.238  0.00  0.00    +0.000 A 
ATOM      6  C   UNL     1       0.509   9.972  21.064  0.00  0.00    +0.000 A 
ATOM      7  C   UNL     1       0.248  11.259  20.530  0.00  0.00    +0.000 A 
ATOM      8  C   UNL     1       1.498   7.594  20.439  0.00  0.00    +0.000 C 
ATOM      9  N   UNL     1       2.181   7.243  19.199  0.00  0.00    +0.000 N 
ATOM     10  C   UNL     1       2.187   8.314  18.304  0.00  0.00    +0.000 C 
ATOM     11  O   UNL     1       2.603   8.401  17.161  0.00  0.00    +0.000 OA
ENDROOT
BRANCH   9  12
ATOM     12  C   UNL     1       2.656   5.943  18.868  0.00  0.00    +0.000 A 
ATOM     13  C   UNL     1       2.425   4.877  19.753  0.00  0.00    +0.000 A 
ATOM     14  C   UNL     1       2.985   3.620  19.546  0.00  0.00    +0.000 A 
ATOM     15  C   UNL     1       3.812   3.405  18.452  0.00  0.00    +0.000 A 
ATOM     16  C   UNL     1       4.057   4.441  17.540  0.00  0.00    +0.000 A 
ATOM     17  C   UNL     1       3.426   5.693  17.724  0.00  0.00    +0.000 A 
BRANCH  16  18
ATOM     18  C   UNL     1       5.088   4.234  16.452  0.00  0.00    +0.000 C 
BRANCH  18  19
ATOM     19  C   UNL     1       6.088   5.381  16.304  0.00  0.00    +0.000 C 
BRANCH  19  20
ATOM     20  C   UNL     1       6.921   5.517  17.538  0.00  0.00    +0.000 A 
ATOM     21  N   UNL     1       7.240   4.538  18.362  0.00  0.00    +0.000 NA
ATOM     22  N   UNL     1       8.030   5.056  19.361  0.00  0.00    +0.000 NA
ATOM     23  C   UNL     1       8.179   6.335  19.127  0.00  0.00    +0.000 A 
ATOM     24  N   UNL     1       7.504   6.672  17.994  0.00  0.00    +0.000 N 
ATOM     25  C   UNL     1       7.441   7.987  17.414  0.00  0.00    +0.000 C 
ENDBRANCH  19  20
ENDBRANCH  18  19
ENDBRANCH  16  18
ENDBRANCH   9  12
BRANCH   6  26
ATOM     26  C   UNL     1       0.111   9.679  22.489  0.00  0.00    +0.000 C 
ATOM     27  F   UNL     1      -0.803   8.678  22.604  0.00  0.00    +0.000 F 
ATOM     28  F   UNL     1       1.173   9.302  23.251  0.00  0.00    +0.000 F 
ATOM     29  F   UNL     1      -0.433  10.759  23.111  0.00  0.00    +0.000 F 
ENDBRANCH   6  26
TORSDOF 5
ENDMDL
MODEL 6
REMARK VINA RESULT:      -8.5      4.166      8.570
REMARK  Name = 
REMARK  7 active torsions:
REMARK  status: ('A' for Active; 'I' for Inactive)
REMARK    1  A    between atoms: C_1  and  C_2
REMARK    2  A    between atoms: C_6  and  C_7
REMARK    3  A    between atoms: N_13  and  C_14
REMARK    4  A    between atoms: C_18  and  C_19
REMARK    5  A    between atoms: C_19  and  C_20
REMARK    6  A    between atoms: C_20  and  C_21
REMARK    7  A    between atoms: N_25  and  C_26
REMARK                            x       y       z     vdW  Elec       q    Type
REMARK                         _______ _______ _______ _____ _____    ______ ____
ROOT
ATOM      1  C   UNL     1       3.721   1.384  18.300  0.00  0.00    +0.000 C 
ATOM      2  C   UNL     1       3.655   2.881  18.230  0.00  0.00    +0.000 A 
ATOM      3  C   UNL     1       2.877   3.589  19.142  0.00  0.00    +0.000 A 
ATOM      4  C   UNL     1       2.843   4.968  19.031  0.00  0.00    +0.000 A 
ATOM      5  C   UNL     1       3.516   5.687  18.049  0.00  0.00    +0.000 A 
ATOM      6  C   UNL     1       4.329   5.007  17.148  0.00  0.00    +0.000 A 
ATOM      7  C   UNL     1       4.383   3.593  17.249  0.00  0.00    +0.000 A 
ATOM      8  C   UNL     1       3.168   7.148  18.194  0.00  0.00    +0.000 C 
ATOM      9  N   UNL     1       2.317   7.175  19.378  0.00  0.00    +0.000 N 
ATOM     10  C   UNL     1       2.100   5.890  19.876  0.00  0.00    +0.000 C 
ATOM     11  O   UNL     1       1.413   5.494  20.801  0.00  0.00    +0.000 OA
ENDROOT
BRANCH   9  12
ATOM     12  C   UNL     1       1.663   8.333  19.886  0.00  0.00    +0.000 A 
ATOM     13  C   UNL     1       1.427   8.444  21.266  0.00  0.00    +0.000 A 
ATOM     14  C   UNL     1       0.672   9.486  21.797  0.00  0.00    +0.000 A 
ATOM     15  C   UNL     1       0.114  10.434  20.951  0.00  0.00    +0.000 A 
ATOM     16  C   UNL     1       0.336  10.363  19.569  0.00  0.00    +0.000 A 
ATOM     17  C   UNL     1       1.163   9.341  19.049  0.00  0.00    +0.000 A 
BRANCH  16  18
ATOM     18  C   UNL     1      -0.414  11.306  18.654  0.00  0.00    +0.000 C 
BRANCH  18  19
ATOM     19  C   UNL     1      -1.871  11.543  19.051  0.00  0.00    +0.000 C 
BRANCH  19  20
ATOM     20  C   UNL     1      -2.766  11.437  17.859  0.00  0.00    +0.000 A 
ATOM     21  N   UNL     1      -2.389  11.101  16.642  0.00  0.00    +0.000 NA
ATOM     22  N   UNL     1      -3.500  11.097  15.831  0.00  0.00    +0.000 NA
ATOM     23  C   UNL     1      -4.530  11.428  16.567  0.00  0.00    +0.000 A 
ATOM     24  N   UNL     1      -4.122  11.649  17.847  0.00  0.00    +0.000 N 
ATOM     25  C   UNL     1      -4.972  12.024  18.945  0.00  0.00    +0.000 C 
ENDBRANCH  19  20
ENDBRANCH  18  19
ENDBRANCH  16  18
ENDBRANCH   9  12
BRANCH   6  26
ATOM     26  C   UNL     1       5.152   5.695  16.090  0.00  0.00    +0.000 C 
ATOM     27  F   UNL     1       6.424   5.974  16.485  0.00  0.00    +0.000 F 
ATOM     28  F   UNL     1       5.269   4.945  14.961  0.00  0.00    +0.000 F 
ATOM     29  F   UNL     1       4.612   6.881  15.699  0.00  0.00    +0.000 F 
ENDBRANCH   6  26
TORSDOF 5
ENDMDL
MODEL 7
REMARK VINA RESULT:      -8.4      3.403      8.035
REMARK  Name = 
REMARK  7 active torsions:
REMARK  status: ('A' for Active; 'I' for Inactive)
REMARK    1  A    between atoms: C_1  and  C_2
REMARK    2  A    between atoms: C_6  and  C_7
REMARK    3  A    between atoms: N_13  and  C_14
REMARK    4  A    between atoms: C_18  and  C_19
REMARK    5  A    between atoms: C_19  and  C_20
REMARK    6  A    between atoms: C_20  and  C_21
REMARK    7  A    between atoms: N_25  and  C_26
REMARK                            x       y       z     vdW  Elec       q    Type
REMARK                         _______ _______ _______ _____ _____    ______ ____
ROOT
ATOM      1  C   UNL     1       5.291   3.928  16.210  0.00  0.00    +0.000 C 
ATOM      2  C   UNL     1       4.359   4.412  17.282  0.00  0.00    +0.000 A 
ATOM      3  C   UNL     1       4.002   5.756  17.341  0.00  0.00    +0.000 A 
ATOM      4  C   UNL     1       3.146   6.155  18.353  0.00  0.00    +0.000 A 
ATOM      5  C   UNL     1       2.642   5.300  19.328  0.00  0.00    +0.000 A 
ATOM      6  C   UNL     1       2.955   3.946  19.270  0.00  0.00    +0.000 A 
ATOM      7  C   UNL     1       3.826   3.516  18.237  0.00  0.00    +0.000 A 
ATOM      8  C   UNL     1       1.824   6.109  20.304  0.00  0.00    +0.000 C 
ATOM      9  N   UNL     1       1.858   7.453  19.739  0.00  0.00    +0.000 N 
ATOM     10  C   UNL     1       2.651   7.501  18.593  0.00  0.00    +0.000 C 
ATOM     11  O   UNL     1       2.970   8.435  17.877  0.00  0.00    +0.000 OA
ENDROOT
BRANCH   9  12
ATOM     12  C   UNL     1       1.285   8.607  20.345  0.00  0.00    +0.000 A 
ATOM     13  C   UNL     1       1.044   8.613  21.729  0.00  0.00    +0.000 A 
ATOM     14  C   UNL     1       0.362   9.657  22.347  0.00  0.00    +0.000 A 
ATOM     15  C   UNL     1      -0.118  10.714  21.586  0.00  0.00    +0.000 A 
ATOM     16  C   UNL     1       0.112  10.748  20.204  0.00  0.00    +0.000 A 
ATOM     17  C   UNL     1       0.867   9.718  19.599  0.00  0.00    +0.000 A 
BRANCH  16  18
ATOM     18  C   UNL     1      -0.559  11.821  19.374  0.00  0.00    +0.000 C 
BRANCH  18  19
ATOM     19  C   UNL     1      -2.076  11.898  19.550  0.00  0.00    +0.000 C 
BRANCH  19  20
ATOM     20  C   UNL     1      -2.772  11.614  18.259  0.00  0.00    +0.000 A 
ATOM     21  N   UNL     1      -2.185  11.283  17.125  0.00  0.00    +0.000 NA
ATOM     22  N   UNL     1      -3.160  11.085  16.176  0.00  0.00    +0.000 NA
ATOM     23  C   UNL     1      -4.319  11.297  16.747  0.00  0.00    +0.000 A 
ATOM     24  N   UNL     1      -4.129  11.629  18.054  0.00  0.00    +0.000 N 
ATOM     25  C   UNL     1      -5.167  11.925  19.004  0.00  0.00    +0.000 C 
ENDBRANCH  19  20
ENDBRANCH  18  19
ENDBRANCH  16  18
ENDBRANCH   9  12
BRANCH   6  26
ATOM     26  C   UNL     1       2.409   2.927  20.237  0.00  0.00    +0.000 C 
ATOM     27  F   UNL     1       1.270   3.326  20.864  0.00  0.00    +0.000 F 
ATOM     28  F   UNL     1       2.104   1.750  19.625  0.00  0.00    +0.000 F 
ATOM     29  F   UNL     1       3.293   2.618  21.224  0.00  0.00    +0.000 F 
ENDBRANCH   6  26
TORSDOF 5
ENDMDL
MODEL 8
REMARK VINA RESULT:      -8.4      3.386      7.869
REMARK  Name = 
REMARK  7 active torsions:
REMARK  status: ('A' for Active; 'I' for Inactive)
REMARK    1  A    between atoms: C_1  and  C_2
REMARK    2  A    between atoms: C_6  and  C_7
REMARK    3  A    between atoms: N_13  and  C_14
REMARK    4  A    between atoms: C_18  and  C_19
REMARK    5  A    between atoms: C_19  and  C_20
REMARK    6  A    between atoms: C_20  and  C_21
REMARK    7  A    between atoms: N_25  and  C_26
REMARK                            x       y       z     vdW  Elec       q    Type
REMARK                         _______ _______ _______ _____ _____    ______ ____
ROOT
ATOM      1  C   UNL     1       4.905   4.358  16.662  0.00  0.00    +0.000 C 
ATOM      2  C   UNL     1       3.981   4.833  17.745  0.00  0.00    +0.000 A 
ATOM      3  C   UNL     1       3.584   6.167  17.788  0.00  0.00    +0.000 A 
ATOM      4  C   UNL     1       2.739   6.558  18.810  0.00  0.00    +0.000 A 
ATOM      5  C   UNL     1       2.281   5.707  19.811  0.00  0.00    +0.000 A 
ATOM      6  C   UNL     1       2.633   4.363  19.771  0.00  0.00    +0.000 A 
ATOM      7  C   UNL     1       3.495   3.939  18.727  0.00  0.00    +0.000 A 
ATOM      8  C   UNL     1       1.459   6.509  20.790  0.00  0.00    +0.000 C 
ATOM      9  N   UNL     1       1.440   7.843  20.200  0.00  0.00    +0.000 N 
ATOM     10  C   UNL     1       2.208   7.894  19.036  0.00  0.00    +0.000 C 
ATOM     11  O   UNL     1       2.483   8.823  18.297  0.00  0.00    +0.000 OA
ENDROOT
BRANCH   9  12
ATOM     12  C   UNL     1       0.846   8.990  20.797  0.00  0.00    +0.000 A 
ATOM     13  C   UNL     1       0.518   8.967  22.163  0.00  0.00    +0.000 A 
ATOM     14  C   UNL     1      -0.188  10.006  22.763  0.00  0.00    +0.000 A 
ATOM     15  C   UNL     1      -0.605  11.088  22.000  0.00  0.00    +0.000 A 
ATOM     16  C   UNL     1      -0.288  11.152  20.636  0.00  0.00    +0.000 A 
ATOM     17  C   UNL     1       0.491  10.125  20.054  0.00  0.00    +0.000 A 
BRANCH  16  18
ATOM     18  C   UNL     1      -0.891  12.253  19.792  0.00  0.00    +0.000 C 
BRANCH  18  19
ATOM     19  C   UNL     1      -1.247  11.832  18.366  0.00  0.00    +0.000 C 
BRANCH  19  20
ATOM     20  C   UNL     1      -2.706  11.533  18.253  0.00  0.00    +0.000 A 
ATOM     21  N   UNL     1      -3.653  12.018  19.033  0.00  0.00    +0.000 NA
ATOM     22  N   UNL     1      -4.863  11.527  18.599  0.00  0.00    +0.000 NA
ATOM     23  C   UNL     1      -4.631  10.757  17.567  0.00  0.00    +0.000 A 
ATOM     24  N   UNL     1      -3.295  10.730  17.309  0.00  0.00    +0.000 N 
ATOM     25  C   UNL     1      -2.660   9.998  16.246  0.00  0.00    +0.000 C 
ENDBRANCH  19  20
ENDBRANCH  18  19
ENDBRANCH  16  18
ENDBRANCH   9  12
BRANCH   6  26
ATOM     26  C   UNL     1       2.139   3.345  20.767  0.00  0.00    +0.000 C 
ATOM     27  F   UNL     1       2.625   2.093  20.554  0.00  0.00    +0.000 F 
ATOM     28  F   UNL     1       2.483   3.666  22.043  0.00  0.00    +0.000 F 
ATOM     29  F   UNL     1       0.783   3.227  20.762  0.00  0.00    +0.000 F 
ENDBRANCH   6  26
TORSDOF 5
ENDMDL
MODEL 9
REMARK VINA RESULT:      -8.3      2.909      4.305
REMARK  Name = 
REMARK  7 active torsions:
REMARK  status: ('A' for Active; 'I' for Inactive)
REMARK    1  A    between atoms: C_1  and  C_2
REMARK    2  A    between atoms: C_6  and  C_7
REMARK    3  A    between atoms: N_13  and  C_14
REMARK    4  A    between atoms: C_18  and  C_19
REMARK    5  A    between atoms: C_19  and  C_20
REMARK    6  A    between atoms: C_20  and  C_21
REMARK    7  A    between atoms: N_25  and  C_26
REMARK                            x       y       z     vdW  Elec       q    Type
REMARK                         _______ _______ _______ _____ _____    ______ ____
ROOT
ATOM      1  C   UNL     1      -0.906  13.231  19.420  0.00  0.00    +0.000 C 
ATOM      2  C   UNL     1      -0.287  11.898  19.722  0.00  0.00    +0.000 A 
ATOM      3  C   UNL     1       0.435  11.225  18.740  0.00  0.00    +0.000 A 
ATOM      4  C   UNL     1       0.979   9.995  19.065  0.00  0.00    +0.000 A 
ATOM      5  C   UNL     1       0.829   9.380  20.303  0.00  0.00    +0.000 A 
ATOM      6  C   UNL     1       0.143  10.047  21.312  0.00  0.00    +0.000 A 
ATOM      7  C   UNL     1      -0.418  11.312  21.002  0.00  0.00    +0.000 A 
ATOM      8  C   UNL     1       1.483   8.021  20.251  0.00  0.00    +0.000 C 
ATOM      9  N   UNL     1       2.067   7.979  18.915  0.00  0.00    +0.000 N 
ATOM     10  C   UNL     1       1.764   9.134  18.193  0.00  0.00    +0.000 C 
ATOM     11  O   UNL     1       2.016   9.451  17.043  0.00  0.00    +0.000 OA
ENDROOT
BRANCH   9  12
ATOM     12  C   UNL     1       2.736   6.856  18.352  0.00  0.00    +0.000 A 
ATOM     13  C   UNL     1       2.102   5.603  18.352  0.00  0.00    +0.000 A 
ATOM     14  C   UNL     1       2.763   4.449  17.941  0.00  0.00    +0.000 A 
ATOM     15  C   UNL     1       4.090   4.520  17.540  0.00  0.00    +0.000 A 
ATOM     16  C   UNL     1       4.754   5.755  17.517  0.00  0.00    +0.000 A 
ATOM     17  C   UNL     1       4.050   6.929  17.868  0.00  0.00    +0.000 A 
BRANCH  16  18
ATOM     18  C   UNL     1       6.240   5.785  17.236  0.00  0.00    +0.000 C 
BRANCH  18  19
ATOM     19  C   UNL     1       6.769   4.550  16.507  0.00  0.00    +0.000 C 
BRANCH  19  20
ATOM     20  C   UNL     1       7.125   4.883  15.094  0.00  0.00    +0.000 A 
ATOM     21  N   UNL     1       8.148   5.623  14.714  0.00  0.00    +0.000 NA
ATOM     22  N   UNL     1       8.151   5.682  13.339  0.00  0.00    +0.000 NA
ATOM     23  C   UNL     1       7.134   4.978  12.910  0.00  0.00    +0.000 A 
ATOM     24  N   UNL     1       6.461   4.455  13.972  0.00  0.00    +0.000 N 
ATOM     25  C   UNL     1       5.294   3.619  13.896  0.00  0.00    +0.000 C 
ENDBRANCH  19  20
ENDBRANCH  18  19
ENDBRANCH  16  18
ENDBRANCH   9  12
BRANCH   6  26
ATOM     26  C   UNL     1      -0.019   9.499  22.707  0.00  0.00    +0.000 C 
ATOM     27  F   UNL     1      -0.713   8.330  22.756  0.00  0.00    +0.000 F 
ATOM     28  F   UNL     1       1.178   9.245  23.302  0.00  0.00    +0.000 F 
ATOM     29  F   UNL     1      -0.674  10.359  23.533  0.00  0.00    +0.000 F 
ENDBRANCH   6  26
TORSDOF 5
ENDMDL
