MODEL 1
REMARK VINA RESULT:      -8.1      0.000      0.000
REMARK  Name = 
REMARK  4 active torsions:
REMARK  status: ('A' for Active; 'I' for Inactive)
REMARK    1  A    between atoms: C_1  and  C_2
REMARK    2  A    between atoms: N_10  and  C_11
REMARK    3  A    between atoms: C_11  and  C_12
REMARK    4  A    between atoms: C_16  and  C_17
REMARK                            x       y       z     vdW  Elec       q    Type
REMARK                         _______ _______ _______ _____ _____    ______ ____
ROOT
ATOM      1  C   UNL     1       1.010  10.080  19.264  0.00  0.00    +0.000 A 
ATOM      2  N   UNL     1       1.671   9.218  18.556  0.00  0.00    +0.000 NA
ATOM      3  C   UNL     1       2.017   8.011  19.177  0.00  0.00    +0.000 A 
ATOM      4  C   UNL     1       2.387   6.949  18.347  0.00  0.00    +0.000 A 
ATOM      5  C   UNL     1       2.287   5.627  18.805  0.00  0.00    +0.000 A 
ATOM      6  C   UNL     1       1.954   5.388  20.151  0.00  0.00    +0.000 A 
ATOM      7  C   UNL     1       1.724   6.452  21.023  0.00  0.00    +0.000 A 
ATOM      8  C   UNL     1       1.738   7.753  20.521  0.00  0.00    +0.000 A 
ATOM      9  C   UNL     1       1.267   8.879  21.342  0.00  0.00    +0.000 A 
ATOM     10  O   UNL     1       1.199   8.821  22.565  0.00  0.00    +0.000 OA
ATOM     11  N   UNL     1       0.835   9.966  20.619  0.00  0.00    +0.000 N 
ATOM     12  H   UNL     1       0.453  10.754  21.123  0.00  0.00    +0.000 HD
ENDROOT
BRANCH   5  13
ATOM     13  C   UNL     1       2.380   4.476  17.832  0.00  0.00    +0.000 C 
ATOM     14  F   UNL     1       3.402   4.594  16.939  0.00  0.00    +0.000 F 
ATOM     15  F   UNL     1       2.553   3.276  18.446  0.00  0.00    +0.000 F 
ATOM     16  F   UNL     1       1.249   4.355  17.083  0.00  0.00    +0.000 F 
ENDBRANCH   5  13
BRANCH   1  17
ATOM     17  C   UNL     1       0.241  11.220  18.615  0.00  0.00    +0.000 C 
BRANCH  17  27
ATOM     18  C   UNL     1      -1.199  13.299  20.150  0.00  0.00    +0.000 C 
ATOM     19  C   UNL     1      -1.890  11.977  19.831  0.00  0.00    +0.000 C 
ATOM     20  C   UNL     1      -3.311  12.241  19.269  0.00  0.00    +0.000 C 
ATOM     21  C   UNL     1      -3.290  11.490  17.982  0.00  0.00    +0.000 A 
ATOM     22  C   UNL     1      -4.310  11.401  17.041  0.00  0.00    +0.000 A 
ATOM     23  C   UNL     1      -4.112  10.583  15.932  0.00  0.00    +0.000 A 
ATOM     24  C   UNL     1      -2.920   9.863  15.791  0.00  0.00    +0.000 A 
ATOM     25  C   UNL     1      -1.894   9.996  16.736  0.00  0.00    +0.000 A 
ATOM     26  C   UNL     1      -2.071  10.837  17.821  0.00  0.00    +0.000 A 
ATOM     27  N   UNL     1      -1.185  11.083  18.873  0.00  0.00    +0.000 N 
ENDBRANCH  17  27
ENDBRANCH   1  17
TORSDOF 3
ENDMDL
MODEL 2
REMARK VINA RESULT:      -8.0      0.959      1.286
REMARK  Name = 
REMARK  4 active torsions:
REMARK  status: ('A' for Active; 'I' for Inactive)
REMARK    1  A    between atoms: C_1  and  C_2
REMARK    2  A    between atoms: N_10  and  C_11
REMARK    3  A    between atoms: C_11  and  C_12
REMARK    4  A    between atoms: C_16  and  C_17
REMARK                            x       y       z     vdW  Elec       q    Type
REMARK                         _______ _______ _______ _____ _____    ______ ____
ROOT
ATOM      1  C   UNL     1       1.449   9.303  18.748  0.00  0.00    +0.000 A 
ATOM      2  N   UNL     1       2.270   8.512  18.130  0.00  0.00    +0.000 NA
ATOM      3  C   UNL     1       2.585   7.300  18.759  0.00  0.00    +0.000 A 
ATOM      4  C   UNL     1       3.152   6.299  17.966  0.00  0.00    +0.000 A 
ATOM      5  C   UNL     1       3.061   4.954  18.356  0.00  0.00    +0.000 A 
ATOM      6  C   UNL     1       2.529   4.637  19.619  0.00  0.00    +0.000 A 
ATOM      7  C   UNL     1       2.092   5.647  20.476  0.00  0.00    +0.000 A 
ATOM      8  C   UNL     1       2.106   6.968  20.028  0.00  0.00    +0.000 A 
ATOM      9  C   UNL     1       1.437   8.029  20.797  0.00  0.00    +0.000 A 
ATOM     10  O   UNL     1       1.174   7.914  21.989  0.00  0.00    +0.000 OA
ATOM     11  N   UNL     1       1.061   9.120  20.050  0.00  0.00    +0.000 N 
ATOM     12  H   UNL     1       0.554   9.862  20.510  0.00  0.00    +0.000 HD
ENDROOT
BRANCH   5  13
ATOM     13  C   UNL     1       3.386   3.854  17.374  0.00  0.00    +0.000 C 
ATOM     14  F   UNL     1       2.287   3.299  16.789  0.00  0.00    +0.000 F 
ATOM     15  F   UNL     1       4.185   4.269  16.357  0.00  0.00    +0.000 F 
ATOM     16  F   UNL     1       4.044   2.821  17.972  0.00  0.00    +0.000 F 
ENDBRANCH   5  13
BRANCH   1  17
ATOM     17  C   UNL     1       0.726  10.425  18.019  0.00  0.00    +0.000 C 
BRANCH  17  27
ATOM     18  C   UNL     1       0.113  12.736  19.763  0.00  0.00    +0.000 C 
ATOM     19  C   UNL     1      -0.902  11.605  19.615  0.00  0.00    +0.000 C 
ATOM     20  C   UNL     1      -2.312  12.189  19.339  0.00  0.00    +0.000 C 
ATOM     21  C   UNL     1      -2.713  11.480  18.091  0.00  0.00    +0.000 A 
ATOM     22  C   UNL     1      -3.892  11.639  17.372  0.00  0.00    +0.000 A 
ATOM     23  C   UNL     1      -4.103  10.822  16.265  0.00  0.00    +0.000 A 
ATOM     24  C   UNL     1      -3.151   9.861  15.907  0.00  0.00    +0.000 A 
ATOM     25  C   UNL     1      -1.955   9.744  16.627  0.00  0.00    +0.000 A 
ATOM     26  C   UNL     1      -1.723  10.579  17.707  0.00  0.00    +0.000 A 
ATOM     27  N   UNL     1      -0.615  10.600  18.557  0.00  0.00    +0.000 N 
ENDBRANCH  17  27
ENDBRANCH   1  17
TORSDOF 3
ENDMDL
MODEL 3
REMARK VINA RESULT:      -8.0      5.538      8.126
REMARK  Name = 
REMARK  4 active torsions:
REMARK  status: ('A' for Active; 'I' for Inactive)
REMARK    1  A    between atoms: C_1  and  C_2
REMARK    2  A    between atoms: N_10  and  C_11
REMARK    3  A    between atoms: C_11  and  C_12
REMARK    4  A    between atoms: C_16  and  C_17
REMARK                            x       y       z     vdW  Elec       q    Type
REMARK                         _______ _______ _______ _____ _____    ______ ____
ROOT
ATOM      1  C   UNL     1       5.266   4.377  17.524  0.00  0.00    +0.000 A 
ATOM      2  N   UNL     1       4.764   4.004  16.388  0.00  0.00    +0.000 NA
ATOM      3  C   UNL     1       5.439   4.405  15.228  0.00  0.00    +0.000 A 
ATOM      4  C   UNL     1       5.139   3.721  14.047  0.00  0.00    +0.000 A 
ATOM      5  C   UNL     1       6.057   3.709  12.986  0.00  0.00    +0.000 A 
ATOM      6  C   UNL     1       7.211   4.511  13.064  0.00  0.00    +0.000 A 
ATOM      7  C   UNL     1       7.443   5.309  14.184  0.00  0.00    +0.000 A 
ATOM      8  C   UNL     1       6.564   5.231  15.264  0.00  0.00    +0.000 A 
ATOM      9  C   UNL     1       6.897   5.865  16.549  0.00  0.00    +0.000 A 
ATOM     10  O   UNL     1       7.722   6.767  16.647  0.00  0.00    +0.000 OA
ATOM     11  N   UNL     1       6.267   5.307  17.637  0.00  0.00    +0.000 N 
ATOM     12  H   UNL     1       6.491   5.665  18.554  0.00  0.00    +0.000 HD
ENDROOT
BRANCH   5  13
ATOM     13  C   UNL     1       5.890   2.733  11.847  0.00  0.00    +0.000 C 
ATOM     14  F   UNL     1       5.674   1.449  12.250  0.00  0.00    +0.000 F 
ATOM     15  F   UNL     1       4.854   3.048  11.026  0.00  0.00    +0.000 F 
ATOM     16  F   UNL     1       6.998   2.687  11.054  0.00  0.00    +0.000 F 
ENDBRANCH   5  13
BRANCH   1  17
ATOM     17  C   UNL     1       4.880   3.694  18.827  0.00  0.00    +0.000 C 
BRANCH  17  27
ATOM     18  C   UNL     1       3.560   2.197  21.011  0.00  0.00    +0.000 C 
ATOM     19  C   UNL     1       2.720   3.025  20.043  0.00  0.00    +0.000 C 
ATOM     20  C   UNL     1       1.713   3.904  20.830  0.00  0.00    +0.000 C 
ATOM     21  C   UNL     1       2.004   5.269  20.308  0.00  0.00    +0.000 A 
ATOM     22  C   UNL     1       1.405   6.464  20.691  0.00  0.00    +0.000 A 
ATOM     23  C   UNL     1       1.774   7.628  20.023  0.00  0.00    +0.000 A 
ATOM     24  C   UNL     1       2.713   7.578  18.986  0.00  0.00    +0.000 A 
ATOM     25  C   UNL     1       3.329   6.368  18.644  0.00  0.00    +0.000 A 
ATOM     26  C   UNL     1       2.993   5.213  19.328  0.00  0.00    +0.000 A 
ATOM     27  N   UNL     1       3.472   3.917  19.120  0.00  0.00    +0.000 N 
ENDBRANCH  17  27
ENDBRANCH   1  17
TORSDOF 3
ENDMDL
MODEL 4
REMARK VINA RESULT:      -7.9      2.092      2.937
REMARK  Name = 
REMARK  4 active torsions:
REMARK  status: ('A' for Active; 'I' for Inactive)
REMARK    1  A    between atoms: C_1  and  C_2
REMARK    2  A    between atoms: N_10  and  C_11
REMARK    3  A    between atoms: C_11  and  C_12
REMARK    4  A    between atoms: C_16  and  C_17
REMARK                            x       y       z     vdW  Elec       q    Type
REMARK                         _______ _______ _______ _____ _____    ______ ____
ROOT
ATOM      1  C   UNL     1       2.292   8.679  18.232  0.00  0.00    +0.000 A 
ATOM      2  N   UNL     1       3.359   8.332  17.581  0.00  0.00    +0.000 NA
ATOM      3  C   UNL     1       3.820   7.021  17.762  0.00  0.00    +0.000 A 
ATOM      4  C   UNL     1       4.718   6.524  16.814  0.00  0.00    +0.000 A 
ATOM      5  C   UNL     1       4.859   5.140  16.632  0.00  0.00    +0.000 A 
ATOM      6  C   UNL     1       4.202   4.260  17.512  0.00  0.00    +0.000 A 
ATOM      7  C   UNL     1       3.416   4.755  18.552  0.00  0.00    +0.000 A 
ATOM      8  C   UNL     1       3.217   6.132  18.654  0.00  0.00    +0.000 A 
ATOM      9  C   UNL     1       2.212   6.678  19.579  0.00  0.00    +0.000 A 
ATOM     10  O   UNL     1       1.782   6.044  20.536  0.00  0.00    +0.000 OA
ATOM     11  N   UNL     1       1.739   7.922  19.232  0.00  0.00    +0.000 N 
ATOM     12  H   UNL     1       1.011   8.331  19.799  0.00  0.00    +0.000 HD
ENDROOT
BRANCH   5  13
ATOM     13  C   UNL     1       5.577   4.602  15.419  0.00  0.00    +0.000 C 
ATOM     14  F   UNL     1       4.829   4.629  14.280  0.00  0.00    +0.000 F 
ATOM     15  F   UNL     1       6.720   5.279  15.135  0.00  0.00    +0.000 F 
ATOM     16  F   UNL     1       5.944   3.299  15.586  0.00  0.00    +0.000 F 
ENDBRANCH   5  13
BRANCH   1  17
ATOM     17  C   UNL     1       1.476   9.897  17.828  0.00  0.00    +0.000 C 
BRANCH  17  27
ATOM     18  C   UNL     1       1.602  11.903  19.999  0.00  0.00    +0.000 C 
ATOM     19  C   UNL     1       0.457  10.894  19.963  0.00  0.00    +0.000 C 
ATOM     20  C   UNL     1      -0.898  11.620  20.170  0.00  0.00    +0.000 C 
ATOM     21  C   UNL     1      -1.683  11.174  18.984  0.00  0.00    +0.000 A 
ATOM     22  C   UNL     1      -2.979  11.544  18.643  0.00  0.00    +0.000 A 
ATOM     23  C   UNL     1      -3.559  10.952  17.524  0.00  0.00    +0.000 A 
ATOM     24  C   UNL     1      -2.849  10.001  16.782  0.00  0.00    +0.000 A 
ATOM     25  C   UNL     1      -1.531   9.672  17.126  0.00  0.00    +0.000 A 
ATOM     26  C   UNL     1      -0.937  10.283  18.216  0.00  0.00    +0.000 A 
ATOM     27  N   UNL     1       0.346  10.073  18.729  0.00  0.00    +0.000 N 
ENDBRANCH  17  27
ENDBRANCH   1  17
TORSDOF 3
ENDMDL
MODEL 5
REMARK VINA RESULT:      -7.8      4.198      7.483
REMARK  Name = 
REMARK  4 active torsions:
REMARK  status: ('A' for Active; 'I' for Inactive)
REMARK    1  A    between atoms: C_1  and  C_2
REMARK    2  A    between atoms: N_10  and  C_11
REMARK    3  A    between atoms: C_11  and  C_12
REMARK    4  A    between atoms: C_16  and  C_17
REMARK                            x       y       z     vdW  Elec       q    Type
REMARK                         _______ _______ _______ _____ _____    ______ ____
ROOT
ATOM      1  C   UNL     1       1.864   7.704  19.859  0.00  0.00    +0.000 A 
ATOM      2  N   UNL     1       1.771   8.695  19.027  0.00  0.00    +0.000 NA
ATOM      3  C   UNL     1       0.975   9.780  19.414  0.00  0.00    +0.000 A 
ATOM      4  C   UNL     1       1.156  10.982  18.723  0.00  0.00    +0.000 A 
ATOM      5  C   UNL     1       0.784  12.198  19.314  0.00  0.00    +0.000 A 
ATOM      6  C   UNL     1       0.093  12.186  20.541  0.00  0.00    +0.000 A 
ATOM      7  C   UNL     1      -0.217  10.979  21.165  0.00  0.00    +0.000 A 
ATOM      8  C   UNL     1       0.245   9.788  20.605  0.00  0.00    +0.000 A 
ATOM      9  C   UNL     1       0.151   8.522  21.348  0.00  0.00    +0.000 A 
ATOM     10  O   UNL     1      -0.631   8.360  22.278  0.00  0.00    +0.000 OA
ATOM     11  N   UNL     1       1.066   7.570  20.965  0.00  0.00    +0.000 N 
ATOM     12  H   UNL     1       1.085   6.696  21.470  0.00  0.00    +0.000 HD
ENDROOT
BRANCH   5  13
ATOM     13  C   UNL     1       1.253  13.506  18.723  0.00  0.00    +0.000 C 
ATOM     14  F   UNL     1       1.957  14.281  19.595  0.00  0.00    +0.000 F 
ATOM     15  F   UNL     1       2.052  13.341  17.637  0.00  0.00    +0.000 F 
ATOM     16  F   UNL     1       0.209  14.276  18.308  0.00  0.00    +0.000 F 
ENDBRANCH   5  13
BRANCH   1  17
ATOM     17  C   UNL     1       2.982   6.678  19.750  0.00  0.00    +0.000 C 
BRANCH  17  27
ATOM     18  C   UNL     1       5.183   6.180  17.837  0.00  0.00    +0.000 C 
ATOM     19  C   UNL     1       3.766   5.727  17.498  0.00  0.00    +0.000 C 
ATOM     20  C   UNL     1       3.782   4.261  16.993  0.00  0.00    +0.000 C 
ATOM     21  C   UNL     1       2.796   3.601  17.895  0.00  0.00    +0.000 A 
ATOM     22  C   UNL     1       2.430   2.260  17.907  0.00  0.00    +0.000 A 
ATOM     23  C   UNL     1       1.430   1.859  18.789  0.00  0.00    +0.000 A 
ATOM     24  C   UNL     1       0.808   2.796  19.623  0.00  0.00    +0.000 A 
ATOM     25  C   UNL     1       1.220   4.135  19.616  0.00  0.00    +0.000 A 
ATOM     26  C   UNL     1       2.239   4.532  18.768  0.00  0.00    +0.000 A 
ATOM     27  N   UNL     1       2.769   5.814  18.598  0.00  0.00    +0.000 N 
ENDBRANCH  17  27
ENDBRANCH   1  17
TORSDOF 3
ENDMDL
MODEL 6
REMARK VINA RESULT:      -7.8      1.182      1.402
REMARK  Name = 
REMARK  4 active torsions:
REMARK  status: ('A' for Active; 'I' for Inactive)
REMARK    1  A    between atoms: C_1  and  C_2
REMARK    2  A    between atoms: N_10  and  C_11
REMARK    3  A    between atoms: C_11  and  C_12
REMARK    4  A    between atoms: C_16  and  C_17
REMARK                            x       y       z     vdW  Elec       q    Type
REMARK                         _______ _______ _______ _____ _____    ______ ____
ROOT
ATOM      1  C   UNL     1       1.583   9.249  18.725  0.00  0.00    +0.000 A 
ATOM      2  N   UNL     1       2.392   8.438  18.117  0.00  0.00    +0.000 NA
ATOM      3  C   UNL     1       2.656   7.212  18.741  0.00  0.00    +0.000 A 
ATOM      4  C   UNL     1       3.209   6.200  17.951  0.00  0.00    +0.000 A 
ATOM      5  C   UNL     1       3.069   4.856  18.326  0.00  0.00    +0.000 A 
ATOM      6  C   UNL     1       2.499   4.545  19.575  0.00  0.00    +0.000 A 
ATOM      7  C   UNL     1       2.076   5.560  20.432  0.00  0.00    +0.000 A 
ATOM      8  C   UNL     1       2.140   6.884  19.996  0.00  0.00    +0.000 A 
ATOM      9  C   UNL     1       1.487   7.958  20.761  0.00  0.00    +0.000 A 
ATOM     10  O   UNL     1       1.195   7.840  21.946  0.00  0.00    +0.000 OA
ATOM     11  N   UNL     1       1.162   9.067  20.016  0.00  0.00    +0.000 N 
ATOM     12  H   UNL     1       0.668   9.820  20.473  0.00  0.00    +0.000 HD
ENDROOT
BRANCH   5  13
ATOM     13  C   UNL     1       3.380   3.755  17.341  0.00  0.00    +0.000 C 
ATOM     14  F   UNL     1       4.190   4.146  16.318  0.00  0.00    +0.000 F 
ATOM     15  F   UNL     1       3.989   2.685  17.916  0.00  0.00    +0.000 F 
ATOM     16  F   UNL     1       2.250   3.271  16.751  0.00  0.00    +0.000 F 
ENDBRANCH   5  13
BRANCH   1  17
ATOM     17  C   UNL     1       0.911  10.399  17.991  0.00  0.00    +0.000 C 
BRANCH  17  27
ATOM     18  C   UNL     1       0.954  13.241  18.817  0.00  0.00    +0.000 C 
ATOM     19  C   UNL     1      -0.079  12.291  19.417  0.00  0.00    +0.000 C 
ATOM     20  C   UNL     1      -1.488  12.937  19.367  0.00  0.00    +0.000 C 
ATOM     21  C   UNL     1      -2.290  11.898  18.662  0.00  0.00    +0.000 A 
ATOM     22  C   UNL     1      -3.636  11.961  18.318  0.00  0.00    +0.000 A 
ATOM     23  C   UNL     1      -4.216  10.844  17.722  0.00  0.00    +0.000 A 
ATOM     24  C   UNL     1      -3.455   9.691  17.496  0.00  0.00    +0.000 A 
ATOM     25  C   UNL     1      -2.092   9.665  17.819  0.00  0.00    +0.000 A 
ATOM     26  C   UNL     1      -1.502  10.785  18.379  0.00  0.00    +0.000 A 
ATOM     27  N   UNL     1      -0.176  10.946  18.790  0.00  0.00    +0.000 N 
ENDBRANCH  17  27
ENDBRANCH   1  17
TORSDOF 3
ENDMDL
MODEL 7
REMARK VINA RESULT:      -7.7      6.118      8.668
REMARK  Name = 
REMARK  4 active torsions:
REMARK  status: ('A' for Active; 'I' for Inactive)
REMARK    1  A    between atoms: C_1  and  C_2
REMARK    2  A    between atoms: N_10  and  C_11
REMARK    3  A    between atoms: C_11  and  C_12
REMARK    4  A    between atoms: C_16  and  C_17
REMARK                            x       y       z     vdW  Elec       q    Type
REMARK                         _______ _______ _______ _____ _____    ______ ____
ROOT
ATOM      1  C   UNL     1       5.359   4.317  16.973  0.00  0.00    +0.000 A 
ATOM      2  N   UNL     1       4.851   3.909  15.852  0.00  0.00    +0.000 NA
ATOM      3  C   UNL     1       5.548   4.232  14.680  0.00  0.00    +0.000 A 
ATOM      4  C   UNL     1       5.231   3.505  13.529  0.00  0.00    +0.000 A 
ATOM      5  C   UNL     1       6.155   3.412  12.477  0.00  0.00    +0.000 A 
ATOM      6  C   UNL     1       7.336   4.175  12.527  0.00  0.00    +0.000 A 
ATOM      7  C   UNL     1       7.589   5.016  13.611  0.00  0.00    +0.000 A 
ATOM      8  C   UNL     1       6.701   5.019  14.687  0.00  0.00    +0.000 A 
ATOM      9  C   UNL     1       7.048   5.699  15.944  0.00  0.00    +0.000 A 
ATOM     10  O   UNL     1       7.904   6.575  16.007  0.00  0.00    +0.000 OA
ATOM     11  N   UNL     1       6.392   5.214  17.051  0.00  0.00    +0.000 N 
ATOM     12  H   UNL     1       6.622   5.606  17.953  0.00  0.00    +0.000 HD
ENDROOT
BRANCH   5  13
ATOM     13  C   UNL     1       5.960   2.391  11.382  0.00  0.00    +0.000 C 
ATOM     14  F   UNL     1       5.693   1.137  11.842  0.00  0.00    +0.000 F 
ATOM     15  F   UNL     1       4.943   2.706  10.537  0.00  0.00    +0.000 F 
ATOM     16  F   UNL     1       7.071   2.268  10.603  0.00  0.00    +0.000 F 
ENDBRANCH   5  13
BRANCH   1  17
ATOM     17  C   UNL     1       4.941   3.708  18.303  0.00  0.00    +0.000 C 
BRANCH  17  27
ATOM     18  C   UNL     1       3.618   1.156  19.006  0.00  0.00    +0.000 C 
ATOM     19  C   UNL     1       2.782   2.334  18.513  0.00  0.00    +0.000 C 
ATOM     20  C   UNL     1       1.559   2.545  19.444  0.00  0.00    +0.000 C 
ATOM     21  C   UNL     1       1.692   3.980  19.825  0.00  0.00    +0.000 A 
ATOM     22  C   UNL     1       0.868   4.705  20.678  0.00  0.00    +0.000 A 
ATOM     23  C   UNL     1       1.127   6.064  20.845  0.00  0.00    +0.000 A 
ATOM     24  C   UNL     1       2.182   6.670  20.153  0.00  0.00    +0.000 A 
ATOM     25  C   UNL     1       3.019   5.910  19.327  0.00  0.00    +0.000 A 
ATOM     26  C   UNL     1       2.789   4.552  19.185  0.00  0.00    +0.000 A 
ATOM     27  N   UNL     1       3.490   3.637  18.395  0.00  0.00    +0.000 N 
ENDBRANCH  17  27
ENDBRANCH   1  17
TORSDOF 3
ENDMDL
MODEL 8
REMARK VINA RESULT:      -7.7      4.046      7.409
REMARK  Name = 
REMARK  4 active torsions:
REMARK  status: ('A' for Active; 'I' for Inactive)
REMARK    1  A    between atoms: C_1  and  C_2
REMARK    2  A    between atoms: N_10  and  C_11
REMARK    3  A    between atoms: C_11  and  C_12
REMARK    4  A    between atoms: C_16  and  C_17
REMARK                            x       y       z     vdW  Elec       q    Type
REMARK                         _______ _______ _______ _____ _____    ______ ____
ROOT
ATOM      1  C   UNL     1       1.628   8.166  20.572  0.00  0.00    +0.000 A 
ATOM      2  N   UNL     1       1.044   8.887  19.666  0.00  0.00    +0.000 NA
ATOM      3  C   UNL     1       0.378  10.041  20.098  0.00  0.00    +0.000 A 
ATOM      4  C   UNL     1       0.073  11.002  19.130  0.00  0.00    +0.000 A 
ATOM      5  C   UNL     1      -0.142  12.337  19.504  0.00  0.00    +0.000 A 
ATOM      6  C   UNL     1      -0.195  12.670  20.870  0.00  0.00    +0.000 A 
ATOM      7  C   UNL     1      -0.033  11.686  21.845  0.00  0.00    +0.000 A 
ATOM      8  C   UNL     1       0.272  10.384  21.448  0.00  0.00    +0.000 A 
ATOM      9  C   UNL     1       0.686   9.375  22.436  0.00  0.00    +0.000 A 
ATOM     10  O   UNL     1       0.437   9.482  23.632  0.00  0.00    +0.000 OA
ATOM     11  N   UNL     1       1.441   8.350  21.918  0.00  0.00    +0.000 N 
ATOM     12  H   UNL     1       1.797   7.651  22.554  0.00  0.00    +0.000 HD
ENDROOT
BRANCH   5  13
ATOM     13  C   UNL     1      -0.160  13.426  18.459  0.00  0.00    +0.000 C 
ATOM     14  F   UNL     1       1.075  13.758  17.989  0.00  0.00    +0.000 F 
ATOM     15  F   UNL     1      -0.902  13.101  17.368  0.00  0.00    +0.000 F 
ATOM     16  F   UNL     1      -0.692  14.583  18.944  0.00  0.00    +0.000 F 
ENDBRANCH   5  13
BRANCH   1  17
ATOM     17  C   UNL     1       2.695   7.145  20.210  0.00  0.00    +0.000 C 
BRANCH  17  27
ATOM     18  C   UNL     1       3.998   6.767  17.580  0.00  0.00    +0.000 C 
ATOM     19  C   UNL     1       2.645   6.119  17.857  0.00  0.00    +0.000 C 
ATOM     20  C   UNL     1       2.670   4.630  17.425  0.00  0.00    +0.000 C 
ATOM     21  C   UNL     1       2.231   3.929  18.665  0.00  0.00    +0.000 A 
ATOM     22  C   UNL     1       2.097   2.559  18.857  0.00  0.00    +0.000 A 
ATOM     23  C   UNL     1       1.600   2.111  20.079  0.00  0.00    +0.000 A 
ATOM     24  C   UNL     1       1.235   3.030  21.070  0.00  0.00    +0.000 A 
ATOM     25  C   UNL     1       1.412   4.404  20.864  0.00  0.00    +0.000 A 
ATOM     26  C   UNL     1       1.940   4.853  19.666  0.00  0.00    +0.000 A 
ATOM     27  N   UNL     1       2.168   6.172  19.265  0.00  0.00    +0.000 N 
ENDBRANCH  17  27
ENDBRANCH   1  17
TORSDOF 3
ENDMDL
MODEL 9
REMARK VINA RESULT:      -7.6      4.983      7.148
REMARK  Name = 
REMARK  4 active torsions:
REMARK  status: ('A' for Active; 'I' for Inactive)
REMARK    1  A    between atoms: C_1  and  C_2
REMARK    2  A    between atoms: N_10  and  C_11
REMARK    3  A    between atoms: C_11  and  C_12
REMARK    4  A    between atoms: C_16  and  C_17
REMARK                            x       y       z     vdW  Elec       q    Type
REMARK                         _______ _______ _______ _____ _____    ______ ____
ROOT
ATOM      1  C   UNL     1       4.347   6.772  17.511  0.00  0.00    +0.000 A 
ATOM      2  N   UNL     1       4.378   6.619  16.224  0.00  0.00    +0.000 NA
ATOM      3  C   UNL     1       5.495   5.968  15.685  0.00  0.00    +0.000 A 
ATOM      4  C   UNL     1       5.379   5.472  14.383  0.00  0.00    +0.000 A 
ATOM      5  C   UNL     1       6.214   4.434  13.946  0.00  0.00    +0.000 A 
ATOM      6  C   UNL     1       7.265   4.000  14.774  0.00  0.00    +0.000 A 
ATOM      7  C   UNL     1       7.476   4.592  16.019  0.00  0.00    +0.000 A 
ATOM      8  C   UNL     1       6.575   5.557  16.470  0.00  0.00    +0.000 A 
ATOM      9  C   UNL     1       6.616   6.030  17.863  0.00  0.00    +0.000 A 
ATOM     10  O   UNL     1       7.611   5.913  18.570  0.00  0.00    +0.000 OA
ATOM     11  N   UNL     1       5.425   6.538  18.325  0.00  0.00    +0.000 N 
ATOM     12  H   UNL     1       5.375   6.834  19.289  0.00  0.00    +0.000 HD
ENDROOT
BRANCH   5  13
ATOM     13  C   UNL     1       5.896   3.687  12.673  0.00  0.00    +0.000 C 
ATOM     14  F   UNL     1       6.197   2.359  12.726  0.00  0.00    +0.000 F 
ATOM     15  F   UNL     1       4.584   3.761  12.328  0.00  0.00    +0.000 F 
ATOM     16  F   UNL     1       6.593   4.180  11.610  0.00  0.00    +0.000 F 
ENDBRANCH   5  13
BRANCH   1  17
ATOM     17  C   UNL     1       3.051   7.085  18.243  0.00  0.00    +0.000 C 
BRANCH  17  27
ATOM     18  C   UNL     1       1.401   7.794  20.594  0.00  0.00    +0.000 C 
ATOM     19  C   UNL     1       2.190   6.488  20.587  0.00  0.00    +0.000 C 
ATOM     20  C   UNL     1       1.283   5.315  21.040  0.00  0.00    +0.000 C 
ATOM     21  C   UNL     1       1.430   4.345  19.919  0.00  0.00    +0.000 A 
ATOM     22  C   UNL     1       0.807   3.109  19.785  0.00  0.00    +0.000 A 
ATOM     23  C   UNL     1       1.139   2.320  18.687  0.00  0.00    +0.000 A 
ATOM     24  C   UNL     1       2.088   2.766  17.760  0.00  0.00    +0.000 A 
ATOM     25  C   UNL     1       2.676   4.030  17.899  0.00  0.00    +0.000 A 
ATOM     26  C   UNL     1       2.322   4.835  18.968  0.00  0.00    +0.000 A 
ATOM     27  N   UNL     1       2.810   6.104  19.291  0.00  0.00    +0.000 N 
ENDBRANCH  17  27
ENDBRANCH   1  17
TORSDOF 3
ENDMDL
