MODEL 1
REMARK VINA RESULT:      -9.0      0.000      0.000
REMARK  Name = 
REMARK  2 active torsions:
REMARK  status: ('A' for Active; 'I' for Inactive)
REMARK    1  A    between atoms: C_10  and  C_11
REMARK    2  A    between atoms: C_13  and  C_14
REMARK                            x       y       z     vdW  Elec       q    Type
REMARK                         _______ _______ _______ _____ _____    ______ ____
ROOT
ATOM      1  C   UNL     1       2.404   7.343  19.264  0.00  0.00    +0.000 A 
ATOM      2  N   UNL     1       1.801   7.702  20.373  0.00  0.00    +0.000 NA
ATOM      3  C   UNL     1       1.151   8.860  19.999  0.00  0.00    +0.000 A 
ATOM      4  N   UNL     1       1.337   9.197  18.712  0.00  0.00    +0.000 NA
ATOM      5  O   UNL     1       2.162   8.191  18.221  0.00  0.00    +0.000 OA
ENDROOT
BRANCH   1  15
ATOM      6  C   UNL     1       1.001   2.496  18.984  0.00  0.00    +0.000 A 
ATOM      7  C   UNL     1       0.873   3.386  20.049  0.00  0.00    +0.000 A 
ATOM      8  C   UNL     1       1.633   4.554  20.074  0.00  0.00    +0.000 A 
ATOM      9  C   UNL     1       2.519   4.856  19.024  0.00  0.00    +0.000 A 
ATOM     10  C   UNL     1       2.689   3.920  17.999  0.00  0.00    +0.000 A 
ATOM     11  C   UNL     1       1.916   2.761  17.965  0.00  0.00    +0.000 A 
ATOM     12  O   UNL     1       3.576   4.082  16.967  0.00  0.00    +0.000 OA
ATOM     13  C   UNL     1       4.603   5.041  17.224  0.00  0.00    +0.000 C 
ATOM     14  C   UNL     1       4.012   6.362  17.668  0.00  0.00    +0.000 C 
ATOM     15  C   UNL     1       3.279   6.165  18.999  0.00  0.00    +0.000 C 
ENDBRANCH   1  15
BRANCH   3  16
ATOM     16  C   UNL     1       0.378   9.651  20.946  0.00  0.00    +0.000 A 
ATOM     17  C   UNL     1       0.255   9.252  22.289  0.00  0.00    +0.000 A 
ATOM     18  C   UNL     1      -0.528   9.967  23.205  0.00  0.00    +0.000 A 
ATOM     19  C   UNL     1      -1.183  11.094  22.713  0.00  0.00    +0.000 A 
ATOM     20  N   UNL     1      -2.033  11.998  23.295  0.00  0.00    +0.000 N 
ATOM     21  C   UNL     1      -2.397  12.910  22.345  0.00  0.00    +0.000 A 
ATOM     22  N   UNL     1      -1.827  12.659  21.189  0.00  0.00    +0.000 NA
ATOM     23  C   UNL     1      -1.075  11.529  21.395  0.00  0.00    +0.000 A 
ATOM     24  C   UNL     1      -0.279  10.809  20.498  0.00  0.00    +0.000 A 
ATOM     25  H   UNL     1      -2.348  11.985  24.255  0.00  0.00    +0.000 HD
ENDBRANCH   3  16
TORSDOF 2
ENDMDL
MODEL 2
REMARK VINA RESULT:      -9.0      1.023      1.646
REMARK  Name = 
REMARK  2 active torsions:
REMARK  status: ('A' for Active; 'I' for Inactive)
REMARK    1  A    between atoms: C_10  and  C_11
REMARK    2  A    between atoms: C_13  and  C_14
REMARK                            x       y       z     vdW  Elec       q    Type
REMARK                         _______ _______ _______ _____ _____    ______ ____
ROOT
ATOM      1  C   UNL     1       2.815   7.462  18.371  0.00  0.00    +0.000 A 
ATOM      2  N   UNL     1       2.000   7.889  19.306  0.00  0.00    +0.000 NA
ATOM      3  C   UNL     1       1.494   9.049  18.755  0.00  0.00    +0.000 A 
ATOM      4  N   UNL     1       1.970   9.321  17.529  0.00  0.00    +0.000 NA
ATOM      5  O   UNL     1       2.841   8.269  17.269  0.00  0.00    +0.000 OA
ENDROOT
BRANCH   1  15
ATOM      6  C   UNL     1       1.318   2.643  18.645  0.00  0.00    +0.000 A 
ATOM      7  C   UNL     1       1.123   3.675  19.560  0.00  0.00    +0.000 A 
ATOM      8  C   UNL     1       1.908   4.825  19.489  0.00  0.00    +0.000 A 
ATOM      9  C   UNL     1       2.887   4.964  18.489  0.00  0.00    +0.000 A 
ATOM     10  C   UNL     1       3.120   3.891  17.623  0.00  0.00    +0.000 A 
ATOM     11  C   UNL     1       2.322   2.750  17.682  0.00  0.00    +0.000 A 
ATOM     12  O   UNL     1       4.094   3.895  16.660  0.00  0.00    +0.000 OA
ATOM     13  C   UNL     1       5.121   4.867  16.870  0.00  0.00    +0.000 C 
ATOM     14  C   UNL     1       4.528   6.245  17.074  0.00  0.00    +0.000 C 
ATOM     15  C   UNL     1       3.680   6.247  18.350  0.00  0.00    +0.000 C 
ENDBRANCH   1  15
BRANCH   3  16
ATOM     16  C   UNL     1       0.565   9.905  19.478  0.00  0.00    +0.000 A 
ATOM     17  C   UNL     1      -0.317  10.756  18.790  0.00  0.00    +0.000 A 
ATOM     18  C   UNL     1      -1.182  11.629  19.465  0.00  0.00    +0.000 A 
ATOM     19  C   UNL     1      -1.118  11.611  20.857  0.00  0.00    +0.000 A 
ATOM     20  N   UNL     1      -1.777  12.326  21.823  0.00  0.00    +0.000 N 
ATOM     21  C   UNL     1      -1.319  11.913  23.042  0.00  0.00    +0.000 A 
ATOM     22  N   UNL     1      -0.414  10.969  22.925  0.00  0.00    +0.000 NA
ATOM     23  C   UNL     1      -0.269  10.773  21.574  0.00  0.00    +0.000 A 
ATOM     24  C   UNL     1       0.579   9.900  20.884  0.00  0.00    +0.000 A 
ATOM     25  H   UNL     1      -2.470  13.043  21.663  0.00  0.00    +0.000 HD
ENDBRANCH   3  16
TORSDOF 2
ENDMDL
MODEL 3
REMARK VINA RESULT:      -8.9      1.997      3.684
REMARK  Name = 
REMARK  2 active torsions:
REMARK  status: ('A' for Active; 'I' for Inactive)
REMARK    1  A    between atoms: C_10  and  C_11
REMARK    2  A    between atoms: C_13  and  C_14
REMARK                            x       y       z     vdW  Elec       q    Type
REMARK                         _______ _______ _______ _____ _____    ______ ____
ROOT
ATOM      1  C   UNL     1       3.042   7.098  18.032  0.00  0.00    +0.000 A 
ATOM      2  N   UNL     1       2.223   7.447  18.997  0.00  0.00    +0.000 NA
ATOM      3  C   UNL     1       1.764   8.676  18.569  0.00  0.00    +0.000 A 
ATOM      4  N   UNL     1       2.271   9.065  17.388  0.00  0.00    +0.000 NA
ATOM      5  O   UNL     1       3.113   8.020  17.027  0.00  0.00    +0.000 OA
ENDROOT
BRANCH   1  15
ATOM      6  C   UNL     1       8.063   6.718  18.461  0.00  0.00    +0.000 A 
ATOM      7  C   UNL     1       7.315   7.488  17.573  0.00  0.00    +0.000 A 
ATOM      8  C   UNL     1       5.969   7.193  17.360  0.00  0.00    +0.000 A 
ATOM      9  C   UNL     1       5.350   6.133  18.047  0.00  0.00    +0.000 A 
ATOM     10  C   UNL     1       6.131   5.326  18.881  0.00  0.00    +0.000 A 
ATOM     11  C   UNL     1       7.471   5.633  19.107  0.00  0.00    +0.000 A 
ATOM     12  O   UNL     1       5.645   4.228  19.541  0.00  0.00    +0.000 OA
ATOM     13  C   UNL     1       4.425   3.715  19.003  0.00  0.00    +0.000 C 
ATOM     14  C   UNL     1       3.382   4.807  18.886  0.00  0.00    +0.000 C 
ATOM     15  C   UNL     1       3.868   5.865  17.890  0.00  0.00    +0.000 C 
ENDBRANCH   1  15
BRANCH   3  16
ATOM     16  C   UNL     1       0.849   9.478  19.369  0.00  0.00    +0.000 A 
ATOM     17  C   UNL     1      -0.059  10.361  18.758  0.00  0.00    +0.000 A 
ATOM     18  C   UNL     1      -0.912  11.182  19.508  0.00  0.00    +0.000 A 
ATOM     19  C   UNL     1      -0.808  11.081  20.895  0.00  0.00    +0.000 A 
ATOM     20  N   UNL     1      -1.446  11.730  21.920  0.00  0.00    +0.000 N 
ATOM     21  C   UNL     1      -0.950  11.248  23.098  0.00  0.00    +0.000 A 
ATOM     22  N   UNL     1      -0.040  10.322  22.900  0.00  0.00    +0.000 NA
ATOM     23  C   UNL     1       0.067  10.209  21.536  0.00  0.00    +0.000 A 
ATOM     24  C   UNL     1       0.902   9.388  20.771  0.00  0.00    +0.000 A 
ATOM     25  H   UNL     1      -2.148  12.449  21.823  0.00  0.00    +0.000 HD
ENDBRANCH   3  16
TORSDOF 2
ENDMDL
MODEL 4
REMARK VINA RESULT:      -8.9      1.681      3.212
REMARK  Name = 
REMARK  2 active torsions:
REMARK  status: ('A' for Active; 'I' for Inactive)
REMARK    1  A    between atoms: C_10  and  C_11
REMARK    2  A    between atoms: C_13  and  C_14
REMARK                            x       y       z     vdW  Elec       q    Type
REMARK                         _______ _______ _______ _____ _____    ______ ____
ROOT
ATOM      1  C   UNL     1       2.810   6.869  18.529  0.00  0.00    +0.000 A 
ATOM      2  N   UNL     1       2.258   7.155  19.685  0.00  0.00    +0.000 NA
ATOM      3  C   UNL     1       1.661   8.374  19.437  0.00  0.00    +0.000 A 
ATOM      4  N   UNL     1       1.828   8.816  18.180  0.00  0.00    +0.000 NA
ATOM      5  O   UNL     1       2.584   7.819  17.574  0.00  0.00    +0.000 OA
ENDROOT
BRANCH   1  15
ATOM      6  C   UNL     1       7.834   6.589  18.064  0.00  0.00    +0.000 A 
ATOM      7  C   UNL     1       6.936   7.416  17.394  0.00  0.00    +0.000 A 
ATOM      8  C   UNL     1       5.578   7.106  17.384  0.00  0.00    +0.000 A 
ATOM      9  C   UNL     1       5.097   5.970  18.061  0.00  0.00    +0.000 A 
ATOM     10  C   UNL     1       6.018   5.111  18.669  0.00  0.00    +0.000 A 
ATOM     11  C   UNL     1       7.374   5.432  18.694  0.00  0.00    +0.000 A 
ATOM     12  O   UNL     1       5.664   3.944  19.294  0.00  0.00    +0.000 OA
ATOM     13  C   UNL     1       4.376   3.449  18.923  0.00  0.00    +0.000 C 
ATOM     14  C   UNL     1       3.317   4.518  19.090  0.00  0.00    +0.000 C 
ATOM     15  C   UNL     1       3.613   5.677  18.132  0.00  0.00    +0.000 C 
ENDBRANCH   1  15
BRANCH   3  16
ATOM     16  C   UNL     1       0.958   9.113  20.475  0.00  0.00    +0.000 A 
ATOM     17  C   UNL     1       1.048   8.726  21.824  0.00  0.00    +0.000 A 
ATOM     18  C   UNL     1       0.337   9.389  22.834  0.00  0.00    +0.000 A 
ATOM     19  C   UNL     1      -0.469  10.452  22.429  0.00  0.00    +0.000 A 
ATOM     20  N   UNL     1      -1.306  11.292  23.116  0.00  0.00    +0.000 N 
ATOM     21  C   UNL     1      -1.866  12.157  22.219  0.00  0.00    +0.000 A 
ATOM     22  N   UNL     1      -1.437  11.936  20.998  0.00  0.00    +0.000 NA
ATOM     23  C   UNL     1      -0.573  10.874  21.107  0.00  0.00    +0.000 A 
ATOM     24  C   UNL     1       0.153  10.208  20.114  0.00  0.00    +0.000 A 
ATOM     25  H   UNL     1      -1.489  11.269  24.108  0.00  0.00    +0.000 HD
ENDBRANCH   3  16
TORSDOF 2
ENDMDL
MODEL 5
REMARK VINA RESULT:      -8.7      3.100      8.157
REMARK  Name = 
REMARK  2 active torsions:
REMARK  status: ('A' for Active; 'I' for Inactive)
REMARK    1  A    between atoms: C_10  and  C_11
REMARK    2  A    between atoms: C_13  and  C_14
REMARK                            x       y       z     vdW  Elec       q    Type
REMARK                         _______ _______ _______ _____ _____    ______ ____
ROOT
ATOM      1  C   UNL     1       1.263   9.543  18.761  0.00  0.00    +0.000 A 
ATOM      2  N   UNL     1       1.870   8.774  17.888  0.00  0.00    +0.000 NA
ATOM      3  C   UNL     1       2.213   7.674  18.646  0.00  0.00    +0.000 A 
ATOM      4  N   UNL     1       1.827   7.755  19.929  0.00  0.00    +0.000 NA
ATOM      5  O   UNL     1       1.193   8.990  20.008  0.00  0.00    +0.000 OA
ENDROOT
BRANCH   1  15
ATOM      6  C   UNL     1      -3.591  10.591  17.822  0.00  0.00    +0.000 A 
ATOM      7  C   UNL     1      -2.700   9.822  17.077  0.00  0.00    +0.000 A 
ATOM      8  C   UNL     1      -1.328   9.942  17.293  0.00  0.00    +0.000 A 
ATOM      9  C   UNL     1      -0.831  10.822  18.272  0.00  0.00    +0.000 A 
ATOM     10  C   UNL     1      -1.732  11.638  18.962  0.00  0.00    +0.000 A 
ATOM     11  C   UNL     1      -3.105  11.504  18.758  0.00  0.00    +0.000 A 
ATOM     12  O   UNL     1      -1.350  12.577  19.883  0.00  0.00    +0.000 OA
ATOM     13  C   UNL     1       0.022  12.965  19.787  0.00  0.00    +0.000 C 
ATOM     14  C   UNL     1       0.931  11.754  19.809  0.00  0.00    +0.000 C 
ATOM     15  C   UNL     1       0.651  10.890  18.575  0.00  0.00    +0.000 C 
ENDBRANCH   1  15
BRANCH   3  16
ATOM     16  C   UNL     1       2.966   6.559  18.089  0.00  0.00    +0.000 A 
ATOM     17  C   UNL     1       2.498   5.239  18.211  0.00  0.00    +0.000 A 
ATOM     18  C   UNL     1       3.232   4.145  17.731  0.00  0.00    +0.000 A 
ATOM     19  C   UNL     1       4.455   4.436  17.130  0.00  0.00    +0.000 A 
ATOM     20  N   UNL     1       5.430   3.641  16.584  0.00  0.00    +0.000 N 
ATOM     21  C   UNL     1       6.437   4.451  16.141  0.00  0.00    +0.000 A 
ATOM     22  N   UNL     1       6.170   5.719  16.357  0.00  0.00    +0.000 NA
ATOM     23  C   UNL     1       4.946   5.729  16.978  0.00  0.00    +0.000 A 
ATOM     24  C   UNL     1       4.194   6.809  17.452  0.00  0.00    +0.000 A 
ATOM     25  H   UNL     1       5.414   2.633  16.531  0.00  0.00    +0.000 HD
ENDBRANCH   3  16
TORSDOF 2
ENDMDL
MODEL 6
REMARK VINA RESULT:      -8.6      1.105      1.299
REMARK  Name = 
REMARK  2 active torsions:
REMARK  status: ('A' for Active; 'I' for Inactive)
REMARK    1  A    between atoms: C_10  and  C_11
REMARK    2  A    between atoms: C_13  and  C_14
REMARK                            x       y       z     vdW  Elec       q    Type
REMARK                         _______ _______ _______ _____ _____    ______ ____
ROOT
ATOM      1  C   UNL     1       2.784   7.446  18.392  0.00  0.00    +0.000 A 
ATOM      2  N   UNL     1       2.035   7.913  19.364  0.00  0.00    +0.000 NA
ATOM      3  C   UNL     1       1.493   9.050  18.803  0.00  0.00    +0.000 A 
ATOM      4  N   UNL     1       1.883   9.272  17.536  0.00  0.00    +0.000 NA
ATOM      5  O   UNL     1       2.734   8.208  17.260  0.00  0.00    +0.000 OA
ENDROOT
BRANCH   1  15
ATOM      6  C   UNL     1       1.276   2.631  18.677  0.00  0.00    +0.000 A 
ATOM      7  C   UNL     1       1.094   3.662  19.595  0.00  0.00    +0.000 A 
ATOM      8  C   UNL     1       1.881   4.810  19.517  0.00  0.00    +0.000 A 
ATOM      9  C   UNL     1       2.850   4.947  18.507  0.00  0.00    +0.000 A 
ATOM     10  C   UNL     1       3.070   3.875  17.637  0.00  0.00    +0.000 A 
ATOM     11  C   UNL     1       2.270   2.736  17.704  0.00  0.00    +0.000 A 
ATOM     12  O   UNL     1       4.034   3.877  16.663  0.00  0.00    +0.000 OA
ATOM     13  C   UNL     1       5.065   4.845  16.864  0.00  0.00    +0.000 C 
ATOM     14  C   UNL     1       4.479   6.225  17.075  0.00  0.00    +0.000 C 
ATOM     15  C   UNL     1       3.644   6.228  18.360  0.00  0.00    +0.000 C 
ENDBRANCH   1  15
BRANCH   3  16
ATOM     16  C   UNL     1       0.616   9.938  19.553  0.00  0.00    +0.000 A 
ATOM     17  C   UNL     1       0.783  10.115  20.938  0.00  0.00    +0.000 A 
ATOM     18  C   UNL     1      -0.082  10.921  21.691  0.00  0.00    +0.000 A 
ATOM     19  C   UNL     1      -1.121  11.536  20.993  0.00  0.00    +0.000 A 
ATOM     20  N   UNL     1      -2.148  12.352  21.392  0.00  0.00    +0.000 N 
ATOM     21  C   UNL     1      -2.893  12.662  20.290  0.00  0.00    +0.000 A 
ATOM     22  N   UNL     1      -2.407  12.107  19.203  0.00  0.00    +0.000 NA
ATOM     23  C   UNL     1      -1.309  11.397  19.621  0.00  0.00    +0.000 A 
ATOM     24  C   UNL     1      -0.429  10.597  18.884  0.00  0.00    +0.000 A 
ATOM     25  H   UNL     1      -2.331  12.658  22.336  0.00  0.00    +0.000 HD
ENDBRANCH   3  16
TORSDOF 2
ENDMDL
MODEL 7
REMARK VINA RESULT:      -8.6      3.079      7.944
REMARK  Name = 
REMARK  2 active torsions:
REMARK  status: ('A' for Active; 'I' for Inactive)
REMARK    1  A    between atoms: C_10  and  C_11
REMARK    2  A    between atoms: C_13  and  C_14
REMARK                            x       y       z     vdW  Elec       q    Type
REMARK                         _______ _______ _______ _____ _____    ______ ____
ROOT
ATOM      1  C   UNL     1       1.063   9.711  19.070  0.00  0.00    +0.000 A 
ATOM      2  N   UNL     1       1.736   8.809  18.394  0.00  0.00    +0.000 NA
ATOM      3  C   UNL     1       1.988   7.847  19.350  0.00  0.00    +0.000 A 
ATOM      4  N   UNL     1       1.485   8.137  20.561  0.00  0.00    +0.000 NA
ATOM      5  O   UNL     1       0.867   9.369  20.378  0.00  0.00    +0.000 OA
ENDROOT
BRANCH   1  15
ATOM      6  C   UNL     1      -3.734  10.669  17.799  0.00  0.00    +0.000 A 
ATOM      7  C   UNL     1      -2.846   9.751  17.243  0.00  0.00    +0.000 A 
ATOM      8  C   UNL     1      -1.477   9.879  17.474  0.00  0.00    +0.000 A 
ATOM      9  C   UNL     1      -0.981  10.919  18.280  0.00  0.00    +0.000 A 
ATOM     10  C   UNL     1      -1.876  11.873  18.773  0.00  0.00    +0.000 A 
ATOM     11  C   UNL     1      -3.246  11.734  18.557  0.00  0.00    +0.000 A 
ATOM     12  O   UNL     1      -1.491  12.963  19.509  0.00  0.00    +0.000 OA
ATOM     13  C   UNL     1      -0.106  13.294  19.382  0.00  0.00    +0.000 C 
ATOM     14  C   UNL     1       0.767  12.089  19.664  0.00  0.00    +0.000 C 
ATOM     15  C   UNL     1       0.495  11.010  18.610  0.00  0.00    +0.000 C 
ENDBRANCH   1  15
BRANCH   3  16
ATOM     16  C   UNL     1       2.771   6.655  19.056  0.00  0.00    +0.000 A 
ATOM     17  C   UNL     1       3.603   6.598  17.923  0.00  0.00    +0.000 A 
ATOM     18  C   UNL     1       4.323   5.443  17.591  0.00  0.00    +0.000 A 
ATOM     19  C   UNL     1       4.168   4.349  18.441  0.00  0.00    +0.000 A 
ATOM     20  N   UNL     1       4.682   3.079  18.417  0.00  0.00    +0.000 N 
ATOM     21  C   UNL     1       4.189   2.403  19.498  0.00  0.00    +0.000 A 
ATOM     22  N   UNL     1       3.398   3.160  20.224  0.00  0.00    +0.000 NA
ATOM     23  C   UNL     1       3.367   4.371  19.579  0.00  0.00    +0.000 A 
ATOM     24  C   UNL     1       2.664   5.537  19.902  0.00  0.00    +0.000 A 
ATOM     25  H   UNL     1       5.304   2.702  17.717  0.00  0.00    +0.000 HD
ENDBRANCH   3  16
TORSDOF 2
ENDMDL
MODEL 8
REMARK VINA RESULT:      -8.5      2.499      3.181
REMARK  Name = 
REMARK  2 active torsions:
REMARK  status: ('A' for Active; 'I' for Inactive)
REMARK    1  A    between atoms: C_10  and  C_11
REMARK    2  A    between atoms: C_13  and  C_14
REMARK                            x       y       z     vdW  Elec       q    Type
REMARK                         _______ _______ _______ _____ _____    ______ ____
ROOT
ATOM      1  C   UNL     1       2.063   7.805  19.311  0.00  0.00    +0.000 A 
ATOM      2  N   UNL     1       1.198   8.321  18.470  0.00  0.00    +0.000 NA
ATOM      3  C   UNL     1       0.558   9.268  19.243  0.00  0.00    +0.000 A 
ATOM      4  N   UNL     1       1.014   9.339  20.504  0.00  0.00    +0.000 NA
ATOM      5  O   UNL     1       2.015   8.375  20.551  0.00  0.00    +0.000 OA
ENDROOT
BRANCH   1  15
ATOM      6  C   UNL     1       1.237   2.819  19.397  0.00  0.00    +0.000 A 
ATOM      7  C   UNL     1       1.033   3.760  20.404  0.00  0.00    +0.000 A 
ATOM      8  C   UNL     1       1.649   5.007  20.327  0.00  0.00    +0.000 A 
ATOM      9  C   UNL     1       2.466   5.337  19.230  0.00  0.00    +0.000 A 
ATOM     10  C   UNL     1       2.719   4.359  18.263  0.00  0.00    +0.000 A 
ATOM     11  C   UNL     1       2.087   3.118  18.332  0.00  0.00    +0.000 A 
ATOM     12  O   UNL     1       3.553   4.551  17.194  0.00  0.00    +0.000 OA
ATOM     13  C   UNL     1       4.466   5.639  17.353  0.00  0.00    +0.000 C 
ATOM     14  C   UNL     1       3.734   6.910  17.730  0.00  0.00    +0.000 C 
ATOM     15  C   UNL     1       3.064   6.721  19.095  0.00  0.00    +0.000 C 
ENDBRANCH   1  15
BRANCH   3  16
ATOM     16  C   UNL     1      -0.540  10.071  18.726  0.00  0.00    +0.000 A 
ATOM     17  C   UNL     1      -1.047  11.159  19.460  0.00  0.00    +0.000 A 
ATOM     18  C   UNL     1      -2.139  11.913  19.007  0.00  0.00    +0.000 A 
ATOM     19  C   UNL     1      -2.700  11.524  17.792  0.00  0.00    +0.000 A 
ATOM     20  N   UNL     1      -3.765  11.998  17.071  0.00  0.00    +0.000 N 
ATOM     21  C   UNL     1      -3.886  11.234  15.945  0.00  0.00    +0.000 A 
ATOM     22  N   UNL     1      -2.960  10.305  15.887  0.00  0.00    +0.000 NA
ATOM     23  C   UNL     1      -2.217  10.464  17.031  0.00  0.00    +0.000 A 
ATOM     24  C   UNL     1      -1.120   9.730  17.492  0.00  0.00    +0.000 A 
ATOM     25  H   UNL     1      -4.365  12.766  17.333  0.00  0.00    +0.000 HD
ENDBRANCH   3  16
TORSDOF 2
ENDMDL
MODEL 9
REMARK VINA RESULT:      -8.4      1.848      2.221
REMARK  Name = 
REMARK  2 active torsions:
REMARK  status: ('A' for Active; 'I' for Inactive)
REMARK    1  A    between atoms: C_10  and  C_11
REMARK    2  A    between atoms: C_13  and  C_14
REMARK                            x       y       z     vdW  Elec       q    Type
REMARK                         _______ _______ _______ _____ _____    ______ ____
ROOT
ATOM      1  C   UNL     1       2.894   7.237  18.833  0.00  0.00    +0.000 A 
ATOM      2  N   UNL     1       1.940   7.888  19.456  0.00  0.00    +0.000 NA
ATOM      3  C   UNL     1       1.594   8.860  18.540  0.00  0.00    +0.000 A 
ATOM      4  N   UNL     1       2.297   8.804  17.397  0.00  0.00    +0.000 NA
ATOM      5  O   UNL     1       3.155   7.727  17.586  0.00  0.00    +0.000 OA
ENDROOT
BRANCH   1  15
ATOM      6  C   UNL     1       1.227   2.540  19.671  0.00  0.00    +0.000 A 
ATOM      7  C   UNL     1       0.830   3.731  20.273  0.00  0.00    +0.000 A 
ATOM      8  C   UNL     1       1.640   4.862  20.181  0.00  0.00    +0.000 A 
ATOM      9  C   UNL     1       2.854   4.818  19.470  0.00  0.00    +0.000 A 
ATOM     10  C   UNL     1       3.273   3.597  18.933  0.00  0.00    +0.000 A 
ATOM     11  C   UNL     1       2.453   2.472  19.009  0.00  0.00    +0.000 A 
ATOM     12  O   UNL     1       4.468   3.428  18.283  0.00  0.00    +0.000 OA
ATOM     13  C   UNL     1       5.432   4.446  18.557  0.00  0.00    +0.000 C 
ATOM     14  C   UNL     1       4.850   5.823  18.312  0.00  0.00    +0.000 C 
ATOM     15  C   UNL     1       3.694   6.064  19.289  0.00  0.00    +0.000 C 
ENDBRANCH   1  15
BRANCH   3  16
ATOM     16  C   UNL     1       0.586   9.869  18.830  0.00  0.00    +0.000 A 
ATOM     17  C   UNL     1       0.781  10.810  19.857  0.00  0.00    +0.000 A 
ATOM     18  C   UNL     1      -0.198  11.757  20.190  0.00  0.00    +0.000 A 
ATOM     19  C   UNL     1      -1.379  11.713  19.451  0.00  0.00    +0.000 A 
ATOM     20  N   UNL     1      -2.536  12.445  19.511  0.00  0.00    +0.000 N 
ATOM     21  C   UNL     1      -3.387  11.972  18.552  0.00  0.00    +0.000 A 
ATOM     22  N   UNL     1      -2.849  10.988  17.869  0.00  0.00    +0.000 NA
ATOM     23  C   UNL     1      -1.603  10.807  18.418  0.00  0.00    +0.000 A 
ATOM     24  C   UNL     1      -0.610   9.877  18.092  0.00  0.00    +0.000 A 
ATOM     25  H   UNL     1      -2.733  13.193  20.160  0.00  0.00    +0.000 HD
ENDBRANCH   3  16
TORSDOF 2
ENDMDL
