MODEL 1
REMARK VINA RESULT:      -8.5      0.000      0.000
REMARK  Name = 
REMARK  6 active torsions:
REMARK  status: ('A' for Active; 'I' for Inactive)
REMARK    1  A    between atoms: C_1  and  N_2
REMARK    2  A    between atoms: C_6  and  C_7
REMARK    3  A    between atoms: C_7  and  C_8
REMARK    4  A    between atoms: C_12  and  N_13
REMARK    5  A    between atoms: C_19  and  C_20
REMARK    6  A    between atoms: C_20  and  C_21
REMARK                            x       y       z     vdW  Elec       q    Type
REMARK                         _______ _______ _______ _____ _____    ______ ____
ROOT
ATOM      1  N   UNL     1       2.399   3.610  19.576  0.00  0.00    +0.000 N 
ATOM      2  C   UNL     1       3.738   3.751  20.210  0.00  0.00    +0.000 C 
ATOM      3  C   UNL     1       4.626   3.829  19.011  0.00  0.00    +0.000 A 
ATOM      4  C   UNL     1       5.660   4.697  18.743  0.00  0.00    +0.000 A 
ATOM      5  F   UNL     1       6.150   5.488  19.707  0.00  0.00    +0.000 F 
ATOM      6  C   UNL     1       6.081   4.868  17.420  0.00  0.00    +0.000 A 
ATOM      7  C   UNL     1       5.465   4.159  16.361  0.00  0.00    +0.000 A 
ATOM      8  C   UNL     1       4.427   3.255  16.650  0.00  0.00    +0.000 A 
ATOM      9  C   UNL     1       4.022   3.130  17.971  0.00  0.00    +0.000 A 
ATOM     10  C   UNL     1       2.643   2.821  18.405  0.00  0.00    +0.000 C 
ATOM     11  O   UNL     1       1.837   2.179  17.757  0.00  0.00    +0.000 OA
ENDROOT
BRANCH   1  16
ATOM     12  C   UNL     1       1.851   7.168  20.274  0.00  0.00    +0.000 A 
ATOM     13  C   UNL     1       2.401   7.643  19.073  0.00  0.00    +0.000 A 
ATOM     14  C   UNL     1       2.458   6.832  17.949  0.00  0.00    +0.000 A 
ATOM     15  C   UNL     1       2.061   5.507  18.043  0.00  0.00    +0.000 A 
ATOM     16  C   UNL     1       1.845   4.940  19.305  0.00  0.00    +0.000 A 
ATOM     17  C   UNL     1       1.581   5.795  20.388  0.00  0.00    +0.000 A 
BRANCH  12  18
ATOM     18  C   UNL     1       1.493   8.174  21.341  0.00  0.00    +0.000 C 
BRANCH  18  24
ATOM     19  C   UNL     1      -0.396   9.825  23.249  0.00  0.00    +0.000 C 
ATOM     20  N   UNL     1      -0.206  10.012  21.836  0.00  0.00    +0.000 N 
ATOM     21  C   UNL     1      -0.760  11.007  21.088  0.00  0.00    +0.000 A 
ATOM     22  N   UNL     1      -0.384  10.882  19.839  0.00  0.00    +0.000 NA
ATOM     23  N   UNL     1       0.446   9.792  19.765  0.00  0.00    +0.000 NA
ATOM     24  C   UNL     1       0.564   9.274  20.973  0.00  0.00    +0.000 A 
ENDBRANCH  18  24
ENDBRANCH  12  18
ENDBRANCH   1  16
BRANCH   7  25
ATOM     25  C   UNL     1       5.831   4.456  14.920  0.00  0.00    +0.000 C 
BRANCH  25  26
ATOM     26  C   UNL     1       7.296   4.764  14.677  0.00  0.00    +0.000 C 
ATOM     27  O   UNL     1       7.731   5.543  13.833  0.00  0.00    +0.000 OA
ENDBRANCH  25  26
ENDBRANCH   7  25
TORSDOF 5
ENDMDL
MODEL 2
REMARK VINA RESULT:      -8.3      3.047      4.188
REMARK  Name = 
REMARK  6 active torsions:
REMARK  status: ('A' for Active; 'I' for Inactive)
REMARK    1  A    between atoms: C_1  and  N_2
REMARK    2  A    between atoms: C_6  and  C_7
REMARK    3  A    between atoms: C_7  and  C_8
REMARK    4  A    between atoms: C_12  and  N_13
REMARK    5  A    between atoms: C_19  and  C_20
REMARK    6  A    between atoms: C_20  and  C_21
REMARK                            x       y       z     vdW  Elec       q    Type
REMARK                         _______ _______ _______ _____ _____    ______ ____
ROOT
ATOM      1  N   UNL     1       5.429   4.749  16.957  0.00  0.00    +0.000 N 
ATOM      2  C   UNL     1       6.602   4.233  17.713  0.00  0.00    +0.000 C 
ATOM      3  C   UNL     1       7.410   5.477  17.890  0.00  0.00    +0.000 A 
ATOM      4  C   UNL     1       8.037   5.960  19.017  0.00  0.00    +0.000 A 
ATOM      5  F   UNL     1       8.172   5.186  20.103  0.00  0.00    +0.000 F 
ATOM      6  C   UNL     1       8.380   7.315  19.079  0.00  0.00    +0.000 A 
ATOM      7  C   UNL     1       8.098   8.188  18.001  0.00  0.00    +0.000 A 
ATOM      8  C   UNL     1       7.481   7.678  16.845  0.00  0.00    +0.000 A 
ATOM      9  C   UNL     1       7.135   6.335  16.830  0.00  0.00    +0.000 A 
ATOM     10  C   UNL     1       5.974   5.770  16.111  0.00  0.00    +0.000 C 
ATOM     11  O   UNL     1       5.484   6.242  15.101  0.00  0.00    +0.000 OA
ENDROOT
BRANCH   1  16
ATOM     12  C   UNL     1       2.720   6.959  18.062  0.00  0.00    +0.000 A 
ATOM     13  C   UNL     1       1.760   5.948  18.230  0.00  0.00    +0.000 A 
ATOM     14  C   UNL     1       2.145   4.634  18.453  0.00  0.00    +0.000 A 
ATOM     15  C   UNL     1       3.490   4.301  18.407  0.00  0.00    +0.000 A 
ATOM     16  C   UNL     1       4.412   5.224  17.900  0.00  0.00    +0.000 A 
ATOM     17  C   UNL     1       4.060   6.584  17.886  0.00  0.00    +0.000 A 
BRANCH  12  18
ATOM     18  C   UNL     1       2.268   8.395  18.175  0.00  0.00    +0.000 C 
BRANCH  18  24
ATOM     19  C   UNL     1      -0.166  10.387  18.372  0.00  0.00    +0.000 C 
ATOM     20  N   UNL     1       0.419   9.619  19.438  0.00  0.00    +0.000 N 
ATOM     21  C   UNL     1      -0.043   9.562  20.718  0.00  0.00    +0.000 A 
ATOM     22  N   UNL     1       0.725   8.772  21.429  0.00  0.00    +0.000 NA
ATOM     23  N   UNL     1       1.703   8.289  20.597  0.00  0.00    +0.000 NA
ATOM     24  C   UNL     1       1.511   8.791  19.392  0.00  0.00    +0.000 A 
ENDBRANCH  18  24
ENDBRANCH  12  18
ENDBRANCH   1  16
BRANCH   7  25
ATOM     25  C   UNL     1       8.343   9.679  18.134  0.00  0.00    +0.000 C 
BRANCH  25  26
ATOM     26  C   UNL     1       9.215  10.087  19.306  0.00  0.00    +0.000 C 
ATOM     27  O   UNL     1       9.609  11.226  19.540  0.00  0.00    +0.000 OA
ENDBRANCH  25  26
ENDBRANCH   7  25
TORSDOF 5
ENDMDL
MODEL 3
REMARK VINA RESULT:      -8.0      2.489      3.732
REMARK  Name = 
REMARK  6 active torsions:
REMARK  status: ('A' for Active; 'I' for Inactive)
REMARK    1  A    between atoms: C_1  and  N_2
REMARK    2  A    between atoms: C_6  and  C_7
REMARK    3  A    between atoms: C_7  and  C_8
REMARK    4  A    between atoms: C_12  and  N_13
REMARK    5  A    between atoms: C_19  and  C_20
REMARK    6  A    between atoms: C_20  and  C_21
REMARK                            x       y       z     vdW  Elec       q    Type
REMARK                         _______ _______ _______ _____ _____    ______ ____
ROOT
ATOM      1  N   UNL     1       6.911   5.632  18.610  0.00  0.00    +0.000 N 
ATOM      2  C   UNL     1       6.549   6.868  17.864  0.00  0.00    +0.000 C 
ATOM      3  C   UNL     1       6.351   6.332  16.483  0.00  0.00    +0.000 A 
ATOM      4  C   UNL     1       5.334   6.576  15.588  0.00  0.00    +0.000 A 
ATOM      5  F   UNL     1       4.460   7.568  15.807  0.00  0.00    +0.000 F 
ATOM      6  C   UNL     1       5.119   5.676  14.539  0.00  0.00    +0.000 A 
ATOM      7  C   UNL     1       5.934   4.530  14.383  0.00  0.00    +0.000 A 
ATOM      8  C   UNL     1       6.986   4.304  15.289  0.00  0.00    +0.000 A 
ATOM      9  C   UNL     1       7.153   5.206  16.330  0.00  0.00    +0.000 A 
ATOM     10  C   UNL     1       7.670   4.861  17.671  0.00  0.00    +0.000 C 
ATOM     11  O   UNL     1       8.441   3.949  17.905  0.00  0.00    +0.000 OA
ENDROOT
BRANCH   1  16
ATOM     12  C   UNL     1       3.311   5.429  19.275  0.00  0.00    +0.000 A 
ATOM     13  C   UNL     1       3.075   4.297  18.480  0.00  0.00    +0.000 A 
ATOM     14  C   UNL     1       4.100   3.407  18.190  0.00  0.00    +0.000 A 
ATOM     15  C   UNL     1       5.391   3.695  18.605  0.00  0.00    +0.000 A 
ATOM     16  C   UNL     1       5.690   4.975  19.087  0.00  0.00    +0.000 A 
ATOM     17  C   UNL     1       4.639   5.773  19.570  0.00  0.00    +0.000 A 
BRANCH  12  18
ATOM     18  C   UNL     1       2.120   6.159  19.846  0.00  0.00    +0.000 C 
BRANCH  18  24
ATOM     19  C   UNL     1       0.957   8.634  21.413  0.00  0.00    +0.000 C 
ATOM     20  N   UNL     1       1.360   8.588  20.033  0.00  0.00    +0.000 N 
ATOM     21  C   UNL     1       1.384   9.649  19.180  0.00  0.00    +0.000 A 
ATOM     22  N   UNL     1       1.799   9.258  18.000  0.00  0.00    +0.000 NA
ATOM     23  N   UNL     1       2.068   7.915  18.082  0.00  0.00    +0.000 NA
ATOM     24  C   UNL     1       1.814   7.513  19.313  0.00  0.00    +0.000 A 
ENDBRANCH  18  24
ENDBRANCH  12  18
ENDBRANCH   1  16
BRANCH   7  25
ATOM     25  C   UNL     1       5.605   3.489  13.330  0.00  0.00    +0.000 C 
BRANCH  25  26
ATOM     26  C   UNL     1       6.570   3.424  12.163  0.00  0.00    +0.000 C 
ATOM     27  O   UNL     1       6.792   2.433  11.473  0.00  0.00    +0.000 OA
ENDBRANCH  25  26
ENDBRANCH   7  25
TORSDOF 5
ENDMDL
MODEL 4
REMARK VINA RESULT:      -8.0      0.820      1.106
REMARK  Name = 
REMARK  6 active torsions:
REMARK  status: ('A' for Active; 'I' for Inactive)
REMARK    1  A    between atoms: C_1  and  N_2
REMARK    2  A    between atoms: C_6  and  C_7
REMARK    3  A    between atoms: C_7  and  C_8
REMARK    4  A    between atoms: C_12  and  N_13
REMARK    5  A    between atoms: C_19  and  C_20
REMARK    6  A    between atoms: C_20  and  C_21
REMARK                            x       y       z     vdW  Elec       q    Type
REMARK                         _______ _______ _______ _____ _____    ______ ____
ROOT
ATOM      1  N   UNL     1       2.367   3.836  19.541  0.00  0.00    +0.000 N 
ATOM      2  C   UNL     1       3.714   3.981  20.157  0.00  0.00    +0.000 C 
ATOM      3  C   UNL     1       4.588   4.039  18.947  0.00  0.00    +0.000 A 
ATOM      4  C   UNL     1       5.623   4.900  18.656  0.00  0.00    +0.000 A 
ATOM      5  F   UNL     1       6.127   5.701  19.605  0.00  0.00    +0.000 F 
ATOM      6  C   UNL     1       6.029   5.052  17.326  0.00  0.00    +0.000 A 
ATOM      7  C   UNL     1       5.398   4.331  16.284  0.00  0.00    +0.000 A 
ATOM      8  C   UNL     1       4.360   3.436  16.596  0.00  0.00    +0.000 A 
ATOM      9  C   UNL     1       3.969   3.329  17.923  0.00  0.00    +0.000 A 
ATOM     10  C   UNL     1       2.595   3.032  18.378  0.00  0.00    +0.000 C 
ATOM     11  O   UNL     1       1.778   2.385  17.747  0.00  0.00    +0.000 OA
ENDROOT
BRANCH   1  16
ATOM     12  C   UNL     1       1.564   7.322  20.349  0.00  0.00    +0.000 A 
ATOM     13  C   UNL     1       2.294   7.893  19.294  0.00  0.00    +0.000 A 
ATOM     14  C   UNL     1       2.577   7.161  18.149  0.00  0.00    +0.000 A 
ATOM     15  C   UNL     1       2.223   5.822  18.091  0.00  0.00    +0.000 A 
ATOM     16  C   UNL     1       1.816   5.165  19.259  0.00  0.00    +0.000 A 
ATOM     17  C   UNL     1       1.334   5.938  20.329  0.00  0.00    +0.000 A 
BRANCH  12  18
ATOM     18  C   UNL     1       0.987   8.244  21.395  0.00  0.00    +0.000 C 
BRANCH  18  24
ATOM     19  C   UNL     1      -0.936   9.660  19.338  0.00  0.00    +0.000 C 
ATOM     20  N   UNL     1       0.017  10.287  20.214  0.00  0.00    +0.000 N 
ATOM     21  C   UNL     1       0.191  11.629  20.361  0.00  0.00    +0.000 A 
ATOM     22  N   UNL     1       1.141  11.858  21.235  0.00  0.00    +0.000 NA
ATOM     23  N   UNL     1       1.591  10.641  21.682  0.00  0.00    +0.000 NA
ATOM     24  C   UNL     1       0.904   9.693  21.075  0.00  0.00    +0.000 A 
ENDBRANCH  18  24
ENDBRANCH  12  18
ENDBRANCH   1  16
BRANCH   7  25
ATOM     25  C   UNL     1       5.749   4.609  14.835  0.00  0.00    +0.000 C 
BRANCH  25  26
ATOM     26  C   UNL     1       7.233   4.649  14.527  0.00  0.00    +0.000 C 
ATOM     27  O   UNL     1       7.838   5.606  14.054  0.00  0.00    +0.000 OA
ENDBRANCH  25  26
ENDBRANCH   7  25
TORSDOF 5
ENDMDL
MODEL 5
REMARK VINA RESULT:      -7.9      2.553      3.870
REMARK  Name = 
REMARK  6 active torsions:
REMARK  status: ('A' for Active; 'I' for Inactive)
REMARK    1  A    between atoms: C_1  and  N_2
REMARK    2  A    between atoms: C_6  and  C_7
REMARK    3  A    between atoms: C_7  and  C_8
REMARK    4  A    between atoms: C_12  and  N_13
REMARK    5  A    between atoms: C_19  and  C_20
REMARK    6  A    between atoms: C_20  and  C_21
REMARK                            x       y       z     vdW  Elec       q    Type
REMARK                         _______ _______ _______ _____ _____    ______ ____
ROOT
ATOM      1  N   UNL     1       6.545   5.597  18.670  0.00  0.00    +0.000 N 
ATOM      2  C   UNL     1       6.162   6.805  17.889  0.00  0.00    +0.000 C 
ATOM      3  C   UNL     1       6.191   6.275  16.492  0.00  0.00    +0.000 A 
ATOM      4  C   UNL     1       5.276   6.436  15.476  0.00  0.00    +0.000 A 
ATOM      5  F   UNL     1       4.290   7.337  15.587  0.00  0.00    +0.000 F 
ATOM      6  C   UNL     1       5.284   5.538  14.404  0.00  0.00    +0.000 A 
ATOM      7  C   UNL     1       6.219   4.477  14.348  0.00  0.00    +0.000 A 
ATOM      8  C   UNL     1       7.165   4.338  15.378  0.00  0.00    +0.000 A 
ATOM      9  C   UNL     1       7.112   5.234  16.436  0.00  0.00    +0.000 A 
ATOM     10  C   UNL     1       7.487   4.917  17.831  0.00  0.00    +0.000 C 
ATOM     11  O   UNL     1       8.307   4.079  18.157  0.00  0.00    +0.000 OA
ENDROOT
BRANCH   1  16
ATOM     12  C   UNL     1       2.960   5.163  19.304  0.00  0.00    +0.000 A 
ATOM     13  C   UNL     1       2.731   4.255  18.258  0.00  0.00    +0.000 A 
ATOM     14  C   UNL     1       3.766   3.485  17.748  0.00  0.00    +0.000 A 
ATOM     15  C   UNL     1       5.058   3.689  18.207  0.00  0.00    +0.000 A 
ATOM     16  C   UNL     1       5.343   4.819  18.984  0.00  0.00    +0.000 A 
ATOM     17  C   UNL     1       4.286   5.452  19.660  0.00  0.00    +0.000 A 
BRANCH  12  18
ATOM     18  C   UNL     1       1.765   5.707  20.049  0.00  0.00    +0.000 C 
BRANCH  18  24
ATOM     19  C   UNL     1       2.155   7.970  17.890  0.00  0.00    +0.000 C 
ATOM     20  N   UNL     1       1.799   8.138  19.273  0.00  0.00    +0.000 N 
ATOM     21  C   UNL     1       1.485   9.320  19.871  0.00  0.00    +0.000 A 
ATOM     22  N   UNL     1       1.213   9.116  21.137  0.00  0.00    +0.000 NA
ATOM     23  N   UNL     1       1.337   7.770  21.374  0.00  0.00    +0.000 NA
ATOM     24  C   UNL     1       1.679   7.178  20.245  0.00  0.00    +0.000 A 
ENDBRANCH  18  24
ENDBRANCH  12  18
ENDBRANCH   1  16
BRANCH   7  25
ATOM     25  C   UNL     1       6.127   3.427  13.257  0.00  0.00    +0.000 C 
BRANCH  25  26
ATOM     26  C   UNL     1       5.060   3.677  12.210  0.00  0.00    +0.000 C 
ATOM     27  O   UNL     1       4.586   2.830  11.457  0.00  0.00    +0.000 OA
ENDBRANCH  25  26
ENDBRANCH   7  25
TORSDOF 5
ENDMDL
MODEL 6
REMARK VINA RESULT:      -7.8      1.526      1.937
REMARK  Name = 
REMARK  6 active torsions:
REMARK  status: ('A' for Active; 'I' for Inactive)
REMARK    1  A    between atoms: C_1  and  N_2
REMARK    2  A    between atoms: C_6  and  C_7
REMARK    3  A    between atoms: C_7  and  C_8
REMARK    4  A    between atoms: C_12  and  N_13
REMARK    5  A    between atoms: C_19  and  C_20
REMARK    6  A    between atoms: C_20  and  C_21
REMARK                            x       y       z     vdW  Elec       q    Type
REMARK                         _______ _______ _______ _____ _____    ______ ____
ROOT
ATOM      1  N   UNL     1       4.025   4.906  19.602  0.00  0.00    +0.000 N 
ATOM      2  C   UNL     1       5.322   5.628  19.495  0.00  0.00    +0.000 C 
ATOM      3  C   UNL     1       5.696   5.357  18.074  0.00  0.00    +0.000 A 
ATOM      4  C   UNL     1       6.166   6.223  17.113  0.00  0.00    +0.000 A 
ATOM      5  F   UNL     1       6.571   7.456  17.449  0.00  0.00    +0.000 F 
ATOM      6  C   UNL     1       6.060   5.867  15.764  0.00  0.00    +0.000 A 
ATOM      7  C   UNL     1       5.485   4.632  15.379  0.00  0.00    +0.000 A 
ATOM      8  C   UNL     1       5.032   3.744  16.371  0.00  0.00    +0.000 A 
ATOM      9  C   UNL     1       5.132   4.142  17.696  0.00  0.00    +0.000 A 
ATOM     10  C   UNL     1       4.193   3.753  18.769  0.00  0.00    +0.000 C 
ATOM     11  O   UNL     1       3.551   2.718  18.789  0.00  0.00    +0.000 OA
ENDROOT
BRANCH   1  16
ATOM     12  C   UNL     1       1.727   7.731  20.025  0.00  0.00    +0.000 A 
ATOM     13  C   UNL     1       2.132   8.428  18.875  0.00  0.00    +0.000 A 
ATOM     14  C   UNL     1       2.726   7.760  17.813  0.00  0.00    +0.000 A 
ATOM     15  C   UNL     1       3.016   6.410  17.934  0.00  0.00    +0.000 A 
ATOM     16  C   UNL     1       2.936   5.797  19.190  0.00  0.00    +0.000 A 
ATOM     17  C   UNL     1       2.147   6.402  20.183  0.00  0.00    +0.000 A 
BRANCH  12  18
ATOM     18  C   UNL     1       0.785   8.422  20.980  0.00  0.00    +0.000 C 
BRANCH  18  24
ATOM     19  C   UNL     1      -1.049  10.186  19.120  0.00  0.00    +0.000 C 
ATOM     20  N   UNL     1      -0.147  10.645  20.141  0.00  0.00    +0.000 N 
ATOM     21  C   UNL     1       0.007  11.939  20.538  0.00  0.00    +0.000 A 
ATOM     22  N   UNL     1       0.910  12.006  21.485  0.00  0.00    +0.000 NA
ATOM     23  N   UNL     1       1.350  10.729  21.727  0.00  0.00    +0.000 NA
ATOM     24  C   UNL     1       0.703   9.906  20.924  0.00  0.00    +0.000 A 
ENDBRANCH  18  24
ENDBRANCH  12  18
ENDBRANCH   1  16
BRANCH   7  25
ATOM     25  C   UNL     1       5.246   4.318  13.915  0.00  0.00    +0.000 C 
BRANCH  25  26
ATOM     26  C   UNL     1       6.429   3.716  13.183  0.00  0.00    +0.000 C 
ATOM     27  O   UNL     1       6.492   3.512  11.973  0.00  0.00    +0.000 OA
ENDBRANCH  25  26
ENDBRANCH   7  25
TORSDOF 5
ENDMDL
MODEL 7
REMARK VINA RESULT:      -7.7      1.658      2.162
REMARK  Name = 
REMARK  6 active torsions:
REMARK  status: ('A' for Active; 'I' for Inactive)
REMARK    1  A    between atoms: C_1  and  N_2
REMARK    2  A    between atoms: C_6  and  C_7
REMARK    3  A    between atoms: C_7  and  C_8
REMARK    4  A    between atoms: C_12  and  N_13
REMARK    5  A    between atoms: C_19  and  C_20
REMARK    6  A    between atoms: C_20  and  C_21
REMARK                            x       y       z     vdW  Elec       q    Type
REMARK                         _______ _______ _______ _____ _____    ______ ____
ROOT
ATOM      1  N   UNL     1       4.494   4.405  19.656  0.00  0.00    +0.000 N 
ATOM      2  C   UNL     1       5.637   5.337  19.462  0.00  0.00    +0.000 C 
ATOM      3  C   UNL     1       5.883   5.202  17.994  0.00  0.00    +0.000 A 
ATOM      4  C   UNL     1       6.096   6.180  17.049  0.00  0.00    +0.000 A 
ATOM      5  F   UNL     1       6.334   7.445  17.422  0.00  0.00    +0.000 F 
ATOM      6  C   UNL     1       5.893   5.877  15.698  0.00  0.00    +0.000 A 
ATOM      7  C   UNL     1       5.483   4.585  15.294  0.00  0.00    +0.000 A 
ATOM      8  C   UNL     1       5.295   3.586  16.266  0.00  0.00    +0.000 A 
ATOM      9  C   UNL     1       5.482   3.930  17.597  0.00  0.00    +0.000 A 
ATOM     10  C   UNL     1       4.747   3.338  18.734  0.00  0.00    +0.000 C 
ATOM     11  O   UNL     1       4.286   2.211  18.752  0.00  0.00    +0.000 OA
ENDROOT
BRANCH   1  16
ATOM     12  C   UNL     1       2.455   7.179  18.394  0.00  0.00    +0.000 A 
ATOM     13  C   UNL     1       1.650   6.401  17.548  0.00  0.00    +0.000 A 
ATOM     14  C   UNL     1       1.473   5.045  17.785  0.00  0.00    +0.000 A 
ATOM     15  C   UNL     1       2.182   4.434  18.808  0.00  0.00    +0.000 A 
ATOM     16  C   UNL     1       3.236   5.121  19.422  0.00  0.00    +0.000 A 
ATOM     17  C   UNL     1       3.264   6.523  19.335  0.00  0.00    +0.000 A 
BRANCH  12  18
ATOM     18  C   UNL     1       2.335   8.681  18.308  0.00  0.00    +0.000 C 
BRANCH  18  24
ATOM     19  C   UNL     1       1.149   8.933  21.218  0.00  0.00    +0.000 C 
ATOM     20  N   UNL     1       0.582   9.444  19.999  0.00  0.00    +0.000 N 
ATOM     21  C   UNL     1      -0.542  10.207  19.908  0.00  0.00    +0.000 A 
ATOM     22  N   UNL     1      -0.778  10.497  18.652  0.00  0.00    +0.000 NA
ATOM     23  N   UNL     1       0.218   9.926  17.902  0.00  0.00    +0.000 NA
ATOM     24  C   UNL     1       1.047   9.300  18.716  0.00  0.00    +0.000 A 
ENDBRANCH  18  24
ENDBRANCH  12  18
ENDBRANCH   1  16
BRANCH   7  25
ATOM     25  C   UNL     1       5.130   4.307  13.845  0.00  0.00    +0.000 C 
BRANCH  25  26
ATOM     26  C   UNL     1       6.232   3.667  13.024  0.00  0.00    +0.000 C 
ATOM     27  O   UNL     1       6.066   2.941  12.047  0.00  0.00    +0.000 OA
ENDBRANCH  25  26
ENDBRANCH   7  25
TORSDOF 5
ENDMDL
MODEL 8
REMARK VINA RESULT:      -7.7      7.116      9.862
REMARK  Name = 
REMARK  6 active torsions:
REMARK  status: ('A' for Active; 'I' for Inactive)
REMARK    1  A    between atoms: C_1  and  N_2
REMARK    2  A    between atoms: C_6  and  C_7
REMARK    3  A    between atoms: C_7  and  C_8
REMARK    4  A    between atoms: C_12  and  N_13
REMARK    5  A    between atoms: C_19  and  C_20
REMARK    6  A    between atoms: C_20  and  C_21
REMARK                            x       y       z     vdW  Elec       q    Type
REMARK                         _______ _______ _______ _____ _____    ______ ____
ROOT
ATOM      1  N   UNL     1      -0.367  11.453  18.578  0.00  0.00    +0.000 N 
ATOM      2  C   UNL     1       0.359  10.626  19.580  0.00  0.00    +0.000 C 
ATOM      3  C   UNL     1      -0.181  11.174  20.862  0.00  0.00    +0.000 A 
ATOM      4  C   UNL     1      -0.636  10.505  21.976  0.00  0.00    +0.000 A 
ATOM      5  F   UNL     1      -0.424   9.189  22.112  0.00  0.00    +0.000 F 
ATOM      6  C   UNL     1      -1.468  11.176  22.880  0.00  0.00    +0.000 A 
ATOM      7  C   UNL     1      -1.837  12.525  22.668  0.00  0.00    +0.000 A 
ATOM      8  C   UNL     1      -1.344  13.205  21.541  0.00  0.00    +0.000 A 
ATOM      9  C   UNL     1      -0.542  12.502  20.654  0.00  0.00    +0.000 A 
ATOM     10  C   UNL     1      -0.481  12.740  19.197  0.00  0.00    +0.000 C 
ATOM     11  O   UNL     1      -0.697  13.810  18.658  0.00  0.00    +0.000 OA
ENDROOT
BRANCH   1  16
ATOM     12  C   UNL     1      -3.914  11.451  17.649  0.00  0.00    +0.000 A 
ATOM     13  C   UNL     1      -3.761  10.700  16.472  0.00  0.00    +0.000 A 
ATOM     14  C   UNL     1      -2.674   9.854  16.307  0.00  0.00    +0.000 A 
ATOM     15  C   UNL     1      -1.677   9.829  17.270  0.00  0.00    +0.000 A 
ATOM     16  C   UNL     1      -1.650  10.818  18.260  0.00  0.00    +0.000 A 
ATOM     17  C   UNL     1      -2.836  11.514  18.546  0.00  0.00    +0.000 A 
BRANCH  12  18
ATOM     18  C   UNL     1      -5.262  12.070  17.928  0.00  0.00    +0.000 C 
BRANCH  18  24
ATOM     19  C   UNL     1      -5.533  13.415  20.766  0.00  0.00    +0.000 C 
ATOM     20  N   UNL     1      -6.170  12.209  20.309  0.00  0.00    +0.000 N 
ATOM     21  C   UNL     1      -7.078  11.478  21.013  0.00  0.00    +0.000 A 
ATOM     22  N   UNL     1      -7.454  10.441  20.305  0.00  0.00    +0.000 NA
ATOM     23  N   UNL     1      -6.792  10.498  19.105  0.00  0.00    +0.000 NA
ATOM     24  C   UNL     1      -6.025  11.572  19.103  0.00  0.00    +0.000 A 
ENDBRANCH  18  24
ENDBRANCH  12  18
ENDBRANCH   1  16
BRANCH   7  25
ATOM     25  C   UNL     1      -2.850  13.197  23.576  0.00  0.00    +0.000 C 
BRANCH  25  26
ATOM     26  C   UNL     1      -3.832  12.261  24.250  0.00  0.00    +0.000 C 
ATOM     27  O   UNL     1      -5.050  12.272  24.097  0.00  0.00    +0.000 OA
ENDBRANCH  25  26
ENDBRANCH   7  25
TORSDOF 5
ENDMDL
MODEL 9
REMARK VINA RESULT:      -7.5      4.466      8.657
REMARK  Name = 
REMARK  6 active torsions:
REMARK  status: ('A' for Active; 'I' for Inactive)
REMARK    1  A    between atoms: C_1  and  N_2
REMARK    2  A    between atoms: C_6  and  C_7
REMARK    3  A    between atoms: C_7  and  C_8
REMARK    4  A    between atoms: C_12  and  N_13
REMARK    5  A    between atoms: C_19  and  C_20
REMARK    6  A    between atoms: C_20  and  C_21
REMARK                            x       y       z     vdW  Elec       q    Type
REMARK                         _______ _______ _______ _____ _____    ______ ____
ROOT
ATOM      1  N   UNL     1      -0.368   9.879  20.632  0.00  0.00    +0.000 N 
ATOM      2  C   UNL     1      -1.243  10.554  19.636  0.00  0.00    +0.000 C 
ATOM      3  C   UNL     1      -0.824  11.980  19.793  0.00  0.00    +0.000 A 
ATOM      4  C   UNL     1      -0.532  12.917  18.828  0.00  0.00    +0.000 A 
ATOM      5  F   UNL     1      -0.826  12.682  17.542  0.00  0.00    +0.000 F 
ATOM      6  C   UNL     1       0.225  14.041  19.176  0.00  0.00    +0.000 A 
ATOM      7  C   UNL     1       0.685  14.228  20.501  0.00  0.00    +0.000 A 
ATOM      8  C   UNL     1       0.358  13.277  21.484  0.00  0.00    +0.000 A 
ATOM      9  C   UNL     1      -0.374  12.165  21.097  0.00  0.00    +0.000 A 
ATOM     10  C   UNL     1      -0.258  10.822  21.704  0.00  0.00    +0.000 C 
ATOM     11  O   UNL     1       0.072  10.607  22.856  0.00  0.00    +0.000 OA
ENDROOT
BRANCH   1  16
ATOM     12  C   UNL     1       2.168   7.550  19.370  0.00  0.00    +0.000 A 
ATOM     13  C   UNL     1       2.151   8.013  18.044  0.00  0.00    +0.000 A 
ATOM     14  C   UNL     1       1.725   9.300  17.747  0.00  0.00    +0.000 A 
ATOM     15  C   UNL     1       1.216  10.099  18.759  0.00  0.00    +0.000 A 
ATOM     16  C   UNL     1       0.909   9.529  20.000  0.00  0.00    +0.000 A 
ATOM     17  C   UNL     1       1.528   8.319  20.354  0.00  0.00    +0.000 A 
BRANCH  12  18
ATOM     18  C   UNL     1       2.956   6.300  19.677  0.00  0.00    +0.000 C 
BRANCH  18  24
ATOM     19  C   UNL     1       1.519   4.284  17.725  0.00  0.00    +0.000 C 
ATOM     20  N   UNL     1       1.630   4.183  19.155  0.00  0.00    +0.000 N 
ATOM     21  C   UNL     1       1.194   3.136  19.909  0.00  0.00    +0.000 A 
ATOM     22  N   UNL     1       1.449   3.367  21.174  0.00  0.00    +0.000 NA
ATOM     23  N   UNL     1       2.077   4.584  21.252  0.00  0.00    +0.000 NA
ATOM     24  C   UNL     1       2.197   5.071  20.032  0.00  0.00    +0.000 A 
ENDBRANCH  18  24
ENDBRANCH  12  18
ENDBRANCH   1  16
BRANCH   7  25
ATOM     25  C   UNL     1       1.622  15.372  20.837  0.00  0.00    +0.000 C 
BRANCH  25  26
ATOM     26  C   UNL     1       2.307  15.271  22.186  0.00  0.00    +0.000 C 
ATOM     27  O   UNL     1       3.301  14.593  22.433  0.00  0.00    +0.000 OA
ENDBRANCH  25  26
ENDBRANCH   7  25
TORSDOF 5
ENDMDL
