MODEL 1
REMARK VINA RESULT:      -8.5      0.000      0.000
REMARK  Name = 
REMARK  6 active torsions:
REMARK  status: ('A' for Active; 'I' for Inactive)
REMARK    1  A    between atoms: C_1  and  N_2
REMARK    2  A    between atoms: C_6  and  C_7
REMARK    3  A    between atoms: C_7  and  C_8
REMARK    4  A    between atoms: C_8  and  C_9
REMARK    5  A    between atoms: C_13  and  N_14
REMARK    6  A    between atoms: C_17  and  N_18
REMARK                            x       y       z     vdW  Elec       q    Type
REMARK                         _______ _______ _______ _____ _____    ______ ____
ROOT
ATOM      1  C   UNL     1       4.917   6.102  17.617  0.00  0.00    +0.000 A 
ATOM      2  C   UNL     1       4.381   7.364  17.290  0.00  0.00    +0.000 A 
ATOM      3  C   UNL     1       3.095   7.741  17.659  0.00  0.00    +0.000 A 
ATOM      4  C   UNL     1       2.261   6.817  18.265  0.00  0.00    +0.000 A 
ATOM      5  C   UNL     1       2.658   5.472  18.310  0.00  0.00    +0.000 A 
ATOM      6  C   UNL     1       4.015   5.164  18.150  0.00  0.00    +0.000 A 
ENDROOT
BRANCH   5   7
ATOM      7  N   UNL     1       1.685   4.424  17.984  0.00  0.00    +0.000 N 
ATOM      8  C   UNL     1       1.072   3.917  19.241  0.00  0.00    +0.000 C 
ATOM      9  C   UNL     1       2.077   2.895  19.682  0.00  0.00    +0.000 A 
ATOM     10  C   UNL     1       2.676   2.672  20.918  0.00  0.00    +0.000 A 
ATOM     11  C   UNL     1       3.855   1.897  20.908  0.00  0.00    +0.000 A 
ATOM     12  C   UNL     1       4.398   1.356  19.723  0.00  0.00    +0.000 A 
ATOM     13  C   UNL     1       3.787   1.590  18.496  0.00  0.00    +0.000 A 
ATOM     14  C   UNL     1       2.649   2.375  18.507  0.00  0.00    +0.000 A 
ATOM     15  C   UNL     1       2.240   3.262  17.385  0.00  0.00    +0.000 C 
ATOM     16  O   UNL     1       2.541   3.087  16.216  0.00  0.00    +0.000 OA
BRANCH  10  17
ATOM     17  N   UNL     1       2.282   3.243  22.149  0.00  0.00    +0.000 N 
ATOM     18  F   UNL     1       1.033   2.631  22.501  0.00  0.00    +0.000 F 
ATOM     19  H   UNL     1       2.257   4.270  22.085  0.00  0.00    +0.000 HD
ENDBRANCH  10  17
ENDBRANCH   5   7
BRANCH   1  20
ATOM     20  C   UNL     1       6.477   5.761  17.387  0.00  0.00    +0.000 C 
ATOM     21  C   UNL     1       7.409   6.975  17.083  0.00  0.00    +0.000 C 
ATOM     22  N   UNL     1       7.895   6.973  18.468  0.00  0.00    +0.000 NA
ATOM     23  C   UNL     1       7.294   5.660  18.720  0.00  0.00    +0.000 C 
ATOM     24  H   UNL     1       7.476   7.719  19.029  0.00  0.00    +0.000 HD
BRANCH  20  25
ATOM     25  C   UNL     1       6.704   4.536  16.458  0.00  0.00    +0.000 C 
BRANCH  25  31
ATOM     26  C   UNL     1       5.335   3.586  13.764  0.00  0.00    +0.000 C 
ATOM     27  N   UNL     1       6.488   4.430  13.909  0.00  0.00    +0.000 N 
ATOM     28  C   UNL     1       7.172   4.984  12.868  0.00  0.00    +0.000 A 
ATOM     29  N   UNL     1       8.175   5.697  13.327  0.00  0.00    +0.000 NA
ATOM     30  N   UNL     1       8.157   5.593  14.691  0.00  0.00    +0.000 NA
ATOM     31  C   UNL     1       7.125   4.853  15.057  0.00  0.00    +0.000 A 
ENDBRANCH  25  31
ENDBRANCH  20  25
ENDBRANCH   1  20
TORSDOF 5
ENDMDL
MODEL 2
REMARK VINA RESULT:      -8.5      2.272      3.511
REMARK  Name = 
REMARK  6 active torsions:
REMARK  status: ('A' for Active; 'I' for Inactive)
REMARK    1  A    between atoms: C_1  and  N_2
REMARK    2  A    between atoms: C_6  and  C_7
REMARK    3  A    between atoms: C_7  and  C_8
REMARK    4  A    between atoms: C_8  and  C_9
REMARK    5  A    between atoms: C_13  and  N_14
REMARK    6  A    between atoms: C_17  and  N_18
REMARK                            x       y       z     vdW  Elec       q    Type
REMARK                         _______ _______ _______ _____ _____    ______ ____
ROOT
ATOM      1  C   UNL     1       5.440   4.425  17.441  0.00  0.00    +0.000 A 
ATOM      2  C   UNL     1       5.776   4.242  18.798  0.00  0.00    +0.000 A 
ATOM      3  C   UNL     1       5.200   3.245  19.576  0.00  0.00    +0.000 A 
ATOM      4  C   UNL     1       4.178   2.474  19.049  0.00  0.00    +0.000 A 
ATOM      5  C   UNL     1       3.611   2.847  17.822  0.00  0.00    +0.000 A 
ATOM      6  C   UNL     1       4.339   3.687  16.970  0.00  0.00    +0.000 A 
ENDROOT
BRANCH   5   7
ATOM      7  N   UNL     1       2.153   2.832  17.670  0.00  0.00    +0.000 N 
ATOM      8  C   UNL     1       1.703   4.147  17.137  0.00  0.00    +0.000 C 
ATOM      9  C   UNL     1       1.599   4.965  18.390  0.00  0.00    +0.000 A 
ATOM     10  C   UNL     1       2.070   6.238  18.694  0.00  0.00    +0.000 A 
ATOM     11  C   UNL     1       2.151   6.561  20.065  0.00  0.00    +0.000 A 
ATOM     12  C   UNL     1       1.762   5.662  21.081  0.00  0.00    +0.000 A 
ATOM     13  C   UNL     1       1.295   4.393  20.759  0.00  0.00    +0.000 A 
ATOM     14  C   UNL     1       1.246   4.070  19.415  0.00  0.00    +0.000 A 
ATOM     15  C   UNL     1       1.428   2.692  18.883  0.00  0.00    +0.000 C 
ATOM     16  O   UNL     1       1.187   1.671  19.504  0.00  0.00    +0.000 OA
BRANCH  10  17
ATOM     17  N   UNL     1       2.579   7.180  17.772  0.00  0.00    +0.000 N 
ATOM     18  F   UNL     1       1.534   8.137  17.547  0.00  0.00    +0.000 F 
ATOM     19  H   UNL     1       2.925   6.712  16.923  0.00  0.00    +0.000 HD
ENDBRANCH  10  17
ENDBRANCH   5   7
BRANCH   1  20
ATOM     20  C   UNL     1       6.273   5.429  16.492  0.00  0.00    +0.000 C 
ATOM     21  C   UNL     1       5.438   6.502  15.725  0.00  0.00    +0.000 C 
ATOM     22  N   UNL     1       5.834   7.530  16.695  0.00  0.00    +0.000 NA
ATOM     23  C   UNL     1       6.868   6.658  17.258  0.00  0.00    +0.000 C 
ATOM     24  H   UNL     1       5.088   7.746  17.361  0.00  0.00    +0.000 HD
BRANCH  20  25
ATOM     25  C   UNL     1       7.333   4.703  15.618  0.00  0.00    +0.000 C 
BRANCH  25  31
ATOM     26  C   UNL     1       8.485   5.801  12.879  0.00  0.00    +0.000 C 
ATOM     27  N   UNL     1       7.438   4.836  13.063  0.00  0.00    +0.000 N 
ATOM     28  C   UNL     1       6.779   4.212  12.046  0.00  0.00    +0.000 A 
ATOM     29  N   UNL     1       5.879   3.393  12.538  0.00  0.00    +0.000 NA
ATOM     30  N   UNL     1       5.938   3.497  13.901  0.00  0.00    +0.000 NA
ATOM     31  C   UNL     1       6.896   4.344  14.232  0.00  0.00    +0.000 A 
ENDBRANCH  25  31
ENDBRANCH  20  25
ENDBRANCH   1  20
TORSDOF 5
ENDMDL
MODEL 3
REMARK VINA RESULT:      -8.5      2.267      3.514
REMARK  Name = 
REMARK  6 active torsions:
REMARK  status: ('A' for Active; 'I' for Inactive)
REMARK    1  A    between atoms: C_1  and  N_2
REMARK    2  A    between atoms: C_6  and  C_7
REMARK    3  A    between atoms: C_7  and  C_8
REMARK    4  A    between atoms: C_8  and  C_9
REMARK    5  A    between atoms: C_13  and  N_14
REMARK    6  A    between atoms: C_17  and  N_18
REMARK                            x       y       z     vdW  Elec       q    Type
REMARK                         _______ _______ _______ _____ _____    ______ ____
ROOT
ATOM      1  C   UNL     1       5.245   4.143  17.437  0.00  0.00    +0.000 A 
ATOM      2  C   UNL     1       5.650   4.217  18.786  0.00  0.00    +0.000 A 
ATOM      3  C   UNL     1       5.075   3.429  19.776  0.00  0.00    +0.000 A 
ATOM      4  C   UNL     1       3.992   2.626  19.466  0.00  0.00    +0.000 A 
ATOM      5  C   UNL     1       3.373   2.776  18.216  0.00  0.00    +0.000 A 
ATOM      6  C   UNL     1       4.087   3.387  17.178  0.00  0.00    +0.000 A 
ENDROOT
BRANCH   5   7
ATOM      7  N   UNL     1       1.908   2.813  18.139  0.00  0.00    +0.000 N 
ATOM      8  C   UNL     1       1.489   4.003  17.351  0.00  0.00    +0.000 C 
ATOM      9  C   UNL     1       1.494   5.079  18.395  0.00  0.00    +0.000 A 
ATOM     10  C   UNL     1       2.040   6.359  18.389  0.00  0.00    +0.000 A 
ATOM     11  C   UNL     1       2.215   6.968  19.650  0.00  0.00    +0.000 A 
ATOM     12  C   UNL     1       1.845   6.335  20.857  0.00  0.00    +0.000 A 
ATOM     13  C   UNL     1       1.303   5.055  20.844  0.00  0.00    +0.000 A 
ATOM     14  C   UNL     1       1.161   4.450  19.608  0.00  0.00    +0.000 A 
ATOM     15  C   UNL     1       1.250   2.982  19.385  0.00  0.00    +0.000 C 
ATOM     16  O   UNL     1       0.999   2.136  20.227  0.00  0.00    +0.000 OA
BRANCH  10  17
ATOM     17  N   UNL     1       2.537   7.047  17.259  0.00  0.00    +0.000 N 
ATOM     18  F   UNL     1       2.732   8.409  17.665  0.00  0.00    +0.000 F 
ATOM     19  H   UNL     1       1.913   6.922  16.450  0.00  0.00    +0.000 HD
ENDBRANCH  10  17
ENDBRANCH   5   7
BRANCH   1  20
ATOM     20  C   UNL     1       6.066   4.888  16.266  0.00  0.00    +0.000 C 
ATOM     21  C   UNL     1       5.410   6.176  15.678  0.00  0.00    +0.000 C 
ATOM     22  N   UNL     1       6.310   7.020  16.470  0.00  0.00    +0.000 NA
ATOM     23  C   UNL     1       7.159   5.873  16.803  0.00  0.00    +0.000 C 
ATOM     24  H   UNL     1       5.847   7.425  17.288  0.00  0.00    +0.000 HD
BRANCH  20  25
ATOM     25  C   UNL     1       6.623   3.911  15.194  0.00  0.00    +0.000 C 
BRANCH  25  31
ATOM     26  C   UNL     1       5.825   3.254  12.200  0.00  0.00    +0.000 C 
ATOM     27  N   UNL     1       6.761   4.242  12.658  0.00  0.00    +0.000 N 
ATOM     28  C   UNL     1       7.451   5.087  11.841  0.00  0.00    +0.000 A 
ATOM     29  N   UNL     1       8.227   5.864  12.561  0.00  0.00    +0.000 NA
ATOM     30  N   UNL     1       8.055   5.508  13.871  0.00  0.00    +0.000 NA
ATOM     31  C   UNL     1       7.150   4.549  13.945  0.00  0.00    +0.000 A 
ENDBRANCH  25  31
ENDBRANCH  20  25
ENDBRANCH   1  20
TORSDOF 5
ENDMDL
MODEL 4
REMARK VINA RESULT:      -8.4      8.645     12.298
REMARK  Name = 
REMARK  6 active torsions:
REMARK  status: ('A' for Active; 'I' for Inactive)
REMARK    1  A    between atoms: C_1  and  N_2
REMARK    2  A    between atoms: C_6  and  C_7
REMARK    3  A    between atoms: C_7  and  C_8
REMARK    4  A    between atoms: C_8  and  C_9
REMARK    5  A    between atoms: C_13  and  N_14
REMARK    6  A    between atoms: C_17  and  N_18
REMARK                            x       y       z     vdW  Elec       q    Type
REMARK                         _______ _______ _______ _____ _____    ______ ____
ROOT
ATOM      1  C   UNL     1      -3.881  11.388  18.189  0.00  0.00    +0.000 A 
ATOM      2  C   UNL     1      -3.778  10.751  16.936  0.00  0.00    +0.000 A 
ATOM      3  C   UNL     1      -2.645  10.042  16.555  0.00  0.00    +0.000 A 
ATOM      4  C   UNL     1      -1.529  10.049  17.375  0.00  0.00    +0.000 A 
ATOM      5  C   UNL     1      -1.494  10.931  18.465  0.00  0.00    +0.000 A 
ATOM      6  C   UNL     1      -2.700  11.450  18.952  0.00  0.00    +0.000 A 
ENDROOT
BRANCH   5   7
ATOM      7  N   UNL     1      -0.274  11.702  18.727  0.00  0.00    +0.000 N 
ATOM      8  C   UNL     1       0.702  10.843  19.449  0.00  0.00    +0.000 C 
ATOM      9  C   UNL     1       0.256  11.001  20.872  0.00  0.00    +0.000 A 
ATOM     10  C   UNL     1       0.021  10.059  21.868  0.00  0.00    +0.000 A 
ATOM     11  C   UNL     1      -0.759  10.490  22.962  0.00  0.00    +0.000 A 
ATOM     12  C   UNL     1      -1.263  11.805  23.064  0.00  0.00    +0.000 A 
ATOM     13  C   UNL     1      -1.019  12.733  22.058  0.00  0.00    +0.000 A 
ATOM     14  C   UNL     1      -0.280  12.297  20.973  0.00  0.00    +0.000 A 
ATOM     15  C   UNL     1      -0.447  12.817  19.589  0.00  0.00    +0.000 C 
ATOM     16  O   UNL     1      -0.866  13.928  19.311  0.00  0.00    +0.000 OA
BRANCH  10  17
ATOM     17  N   UNL     1       0.386   8.694  21.828  0.00  0.00    +0.000 N 
ATOM     18  F   UNL     1      -0.818   7.957  21.574  0.00  0.00    +0.000 F 
ATOM     19  H   UNL     1       0.886   8.423  22.686  0.00  0.00    +0.000 HD
ENDBRANCH  10  17
ENDBRANCH   5   7
BRANCH   1  20
ATOM     20  C   UNL     1      -5.275  12.011  18.710  0.00  0.00    +0.000 C 
ATOM     21  C   UNL     1      -6.374  12.239  17.626  0.00  0.00    +0.000 C 
ATOM     22  N   UNL     1      -7.074  11.021  18.052  0.00  0.00    +0.000 NA
ATOM     23  C   UNL     1      -6.265  10.934  19.271  0.00  0.00    +0.000 C 
ATOM     24  H   UNL     1      -6.919  10.238  17.412  0.00  0.00    +0.000 HD
BRANCH  20  25
ATOM     25  C   UNL     1      -5.084  13.206  19.684  0.00  0.00    +0.000 C 
BRANCH  25  31
ATOM     26  C   UNL     1      -7.893  13.840  21.002  0.00  0.00    +0.000 C 
ATOM     27  N   UNL     1      -6.750  13.240  21.629  0.00  0.00    +0.000 N 
ATOM     28  C   UNL     1      -6.713  12.821  22.925  0.00  0.00    +0.000 A 
ATOM     29  N   UNL     1      -5.529  12.324  23.197  0.00  0.00    +0.000 NA
ATOM     30  N   UNL     1      -4.771  12.437  22.063  0.00  0.00    +0.000 NA
ATOM     31  C   UNL     1      -5.506  12.963  21.100  0.00  0.00    +0.000 A 
ENDBRANCH  25  31
ENDBRANCH  20  25
ENDBRANCH   1  20
TORSDOF 5
ENDMDL
MODEL 5
REMARK VINA RESULT:      -8.3      0.782      1.303
REMARK  Name = 
REMARK  6 active torsions:
REMARK  status: ('A' for Active; 'I' for Inactive)
REMARK    1  A    between atoms: C_1  and  N_2
REMARK    2  A    between atoms: C_6  and  C_7
REMARK    3  A    between atoms: C_7  and  C_8
REMARK    4  A    between atoms: C_8  and  C_9
REMARK    5  A    between atoms: C_13  and  N_14
REMARK    6  A    between atoms: C_17  and  N_18
REMARK                            x       y       z     vdW  Elec       q    Type
REMARK                         _______ _______ _______ _____ _____    ______ ____
ROOT
ATOM      1  C   UNL     1       4.912   6.180  17.570  0.00  0.00    +0.000 A 
ATOM      2  C   UNL     1       4.351   7.445  17.298  0.00  0.00    +0.000 A 
ATOM      3  C   UNL     1       3.070   7.792  17.711  0.00  0.00    +0.000 A 
ATOM      4  C   UNL     1       2.265   6.838  18.309  0.00  0.00    +0.000 A 
ATOM      5  C   UNL     1       2.680   5.498  18.301  0.00  0.00    +0.000 A 
ATOM      6  C   UNL     1       4.036   5.213  18.096  0.00  0.00    +0.000 A 
ENDROOT
BRANCH   5   7
ATOM      7  N   UNL     1       1.713   4.447  17.967  0.00  0.00    +0.000 N 
ATOM      8  C   UNL     1       1.093   3.936  19.219  0.00  0.00    +0.000 C 
ATOM      9  C   UNL     1       2.099   2.916  19.665  0.00  0.00    +0.000 A 
ATOM     10  C   UNL     1       2.689   2.694  20.905  0.00  0.00    +0.000 A 
ATOM     11  C   UNL     1       3.871   1.923  20.902  0.00  0.00    +0.000 A 
ATOM     12  C   UNL     1       4.424   1.385  19.720  0.00  0.00    +0.000 A 
ATOM     13  C   UNL     1       3.821   1.619  18.489  0.00  0.00    +0.000 A 
ATOM     14  C   UNL     1       2.680   2.401  18.493  0.00  0.00    +0.000 A 
ATOM     15  C   UNL     1       2.275   3.288  17.369  0.00  0.00    +0.000 C 
ATOM     16  O   UNL     1       2.585   3.115  16.203  0.00  0.00    +0.000 OA
BRANCH  10  17
ATOM     17  N   UNL     1       2.285   3.262  22.134  0.00  0.00    +0.000 N 
ATOM     18  F   UNL     1       1.059   2.612  22.499  0.00  0.00    +0.000 F 
ATOM     19  H   UNL     1       2.226   4.287  22.062  0.00  0.00    +0.000 HD
ENDBRANCH  10  17
ENDBRANCH   5   7
BRANCH   1  20
ATOM     20  C   UNL     1       6.470   5.868  17.289  0.00  0.00    +0.000 C 
ATOM     21  C   UNL     1       7.479   6.385  18.362  0.00  0.00    +0.000 C 
ATOM     22  N   UNL     1       7.594   5.038  18.931  0.00  0.00    +0.000 NA
ATOM     23  C   UNL     1       6.916   4.447  17.774  0.00  0.00    +0.000 C 
ATOM     24  H   UNL     1       7.064   4.935  19.800  0.00  0.00    +0.000 HD
BRANCH  20  25
ATOM     25  C   UNL     1       6.895   6.156  15.823  0.00  0.00    +0.000 C 
BRANCH  25  31
ATOM     26  C   UNL     1       8.240   5.530  13.024  0.00  0.00    +0.000 C 
ATOM     27  N   UNL     1       7.099   4.884  13.610  0.00  0.00    +0.000 N 
ATOM     28  C   UNL     1       6.418   3.854  13.033  0.00  0.00    +0.000 A 
ATOM     29  N   UNL     1       5.426   3.489  13.812  0.00  0.00    +0.000 NA
ATOM     30  N   UNL     1       5.448   4.306  14.909  0.00  0.00    +0.000 NA
ATOM     31  C   UNL     1       6.472   5.135  14.813  0.00  0.00    +0.000 A 
ENDBRANCH  25  31
ENDBRANCH  20  25
ENDBRANCH   1  20
TORSDOF 5
ENDMDL
MODEL 6
REMARK VINA RESULT:      -8.2      2.163      3.068
REMARK  Name = 
REMARK  6 active torsions:
REMARK  status: ('A' for Active; 'I' for Inactive)
REMARK    1  A    between atoms: C_1  and  N_2
REMARK    2  A    between atoms: C_6  and  C_7
REMARK    3  A    between atoms: C_7  and  C_8
REMARK    4  A    between atoms: C_8  and  C_9
REMARK    5  A    between atoms: C_13  and  N_14
REMARK    6  A    between atoms: C_17  and  N_18
REMARK                            x       y       z     vdW  Elec       q    Type
REMARK                         _______ _______ _______ _____ _____    ______ ____
ROOT
ATOM      1  C   UNL     1       5.228   4.426  17.211  0.00  0.00    +0.000 A 
ATOM      2  C   UNL     1       5.650   3.974  18.478  0.00  0.00    +0.000 A 
ATOM      3  C   UNL     1       5.020   2.927  19.139  0.00  0.00    +0.000 A 
ATOM      4  C   UNL     1       3.870   2.375  18.602  0.00  0.00    +0.000 A 
ATOM      5  C   UNL     1       3.254   3.015  17.516  0.00  0.00    +0.000 A 
ATOM      6  C   UNL     1       4.008   3.906  16.742  0.00  0.00    +0.000 A 
ENDROOT
BRANCH   5   7
ATOM      7  N   UNL     1       1.797   3.188  17.515  0.00  0.00    +0.000 N 
ATOM      8  C   UNL     1       1.471   4.600  17.851  0.00  0.00    +0.000 C 
ATOM      9  C   UNL     1       1.500   4.572  19.350  0.00  0.00    +0.000 A 
ATOM     10  C   UNL     1       2.115   5.416  20.270  0.00  0.00    +0.000 A 
ATOM     11  C   UNL     1       2.280   4.901  21.573  0.00  0.00    +0.000 A 
ATOM     12  C   UNL     1       1.836   3.613  21.944  0.00  0.00    +0.000 A 
ATOM     13  C   UNL     1       1.224   2.783  21.011  0.00  0.00    +0.000 A 
ATOM     14  C   UNL     1       1.092   3.280  19.727  0.00  0.00    +0.000 A 
ATOM     15  C   UNL     1       1.107   2.435  18.502  0.00  0.00    +0.000 C 
ATOM     16  O   UNL     1       0.782   1.261  18.465  0.00  0.00    +0.000 OA
BRANCH  10  17
ATOM     17  N   UNL     1       2.687   6.677  19.991  0.00  0.00    +0.000 N 
ATOM     18  F   UNL     1       3.601   6.477  18.903  0.00  0.00    +0.000 F 
ATOM     19  H   UNL     1       3.107   7.085  20.838  0.00  0.00    +0.000 HD
ENDBRANCH  10  17
ENDBRANCH   5   7
BRANCH   1  20
ATOM     20  C   UNL     1       6.099   5.482  16.357  0.00  0.00    +0.000 C 
ATOM     21  C   UNL     1       5.292   6.563  15.571  0.00  0.00    +0.000 C 
ATOM     22  N   UNL     1       5.593   7.563  16.601  0.00  0.00    +0.000 NA
ATOM     23  C   UNL     1       6.609   6.696  17.205  0.00  0.00    +0.000 C 
ATOM     24  H   UNL     1       4.798   7.738  17.220  0.00  0.00    +0.000 HD
BRANCH  20  25
ATOM     25  C   UNL     1       7.235   4.813  15.535  0.00  0.00    +0.000 C 
BRANCH  25  31
ATOM     26  C   UNL     1       8.496   5.840  12.817  0.00  0.00    +0.000 C 
ATOM     27  N   UNL     1       7.459   4.861  12.984  0.00  0.00    +0.000 N 
ATOM     28  C   UNL     1       6.861   4.190  11.960  0.00  0.00    +0.000 A 
ATOM     29  N   UNL     1       5.953   3.370  12.437  0.00  0.00    +0.000 NA
ATOM     30  N   UNL     1       5.944   3.521  13.797  0.00  0.00    +0.000 NA
ATOM     31  C   UNL     1       6.870   4.398  14.143  0.00  0.00    +0.000 A 
ENDBRANCH  25  31
ENDBRANCH  20  25
ENDBRANCH   1  20
TORSDOF 5
ENDMDL
MODEL 7
REMARK VINA RESULT:      -8.2      2.063      2.868
REMARK  Name = 
REMARK  6 active torsions:
REMARK  status: ('A' for Active; 'I' for Inactive)
REMARK    1  A    between atoms: C_1  and  N_2
REMARK    2  A    between atoms: C_6  and  C_7
REMARK    3  A    between atoms: C_7  and  C_8
REMARK    4  A    between atoms: C_8  and  C_9
REMARK    5  A    between atoms: C_13  and  N_14
REMARK    6  A    between atoms: C_17  and  N_18
REMARK                            x       y       z     vdW  Elec       q    Type
REMARK                         _______ _______ _______ _____ _____    ______ ____
ROOT
ATOM      1  C   UNL     1       5.064   4.177  17.112  0.00  0.00    +0.000 A 
ATOM      2  C   UNL     1       5.476   3.538  18.299  0.00  0.00    +0.000 A 
ATOM      3  C   UNL     1       4.732   2.524  18.892  0.00  0.00    +0.000 A 
ATOM      4  C   UNL     1       3.489   2.200  18.376  0.00  0.00    +0.000 A 
ATOM      5  C   UNL     1       2.922   3.032  17.400  0.00  0.00    +0.000 A 
ATOM      6  C   UNL     1       3.760   3.886  16.671  0.00  0.00    +0.000 A 
ENDROOT
BRANCH   5   7
ATOM      7  N   UNL     1       1.508   3.406  17.507  0.00  0.00    +0.000 N 
ATOM      8  C   UNL     1       1.408   4.818  17.966  0.00  0.00    +0.000 C 
ATOM      9  C   UNL     1       1.515   4.664  19.454  0.00  0.00    +0.000 A 
ATOM     10  C   UNL     1       2.295   5.335  20.391  0.00  0.00    +0.000 A 
ATOM     11  C   UNL     1       2.456   4.698  21.639  0.00  0.00    +0.000 A 
ATOM     12  C   UNL     1       1.850   3.459  21.943  0.00  0.00    +0.000 A 
ATOM     13  C   UNL     1       1.075   2.802  20.994  0.00  0.00    +0.000 A 
ATOM     14  C   UNL     1       0.946   3.416  19.761  0.00  0.00    +0.000 A 
ATOM     15  C   UNL     1       0.772   2.680  18.480  0.00  0.00    +0.000 C 
ATOM     16  O   UNL     1       0.278   1.570  18.379  0.00  0.00    +0.000 OA
BRANCH  10  17
ATOM     17  N   UNL     1       3.028   6.522  20.167  0.00  0.00    +0.000 N 
ATOM     18  F   UNL     1       2.063   7.570  19.990  0.00  0.00    +0.000 F 
ATOM     19  H   UNL     1       3.686   6.405  19.384  0.00  0.00    +0.000 HD
ENDBRANCH  10  17
ENDBRANCH   5   7
BRANCH   1  20
ATOM     20  C   UNL     1       6.037   5.185  16.313  0.00  0.00    +0.000 C 
ATOM     21  C   UNL     1       5.335   6.265  15.431  0.00  0.00    +0.000 C 
ATOM     22  N   UNL     1       5.572   7.285  16.457  0.00  0.00    +0.000 NA
ATOM     23  C   UNL     1       6.504   6.409  17.172  0.00  0.00    +0.000 C 
ATOM     24  H   UNL     1       4.730   7.498  16.998  0.00  0.00    +0.000 HD
BRANCH  20  25
ATOM     25  C   UNL     1       7.222   4.464  15.613  0.00  0.00    +0.000 C 
BRANCH  25  31
ATOM     26  C   UNL     1       5.784   3.405  12.998  0.00  0.00    +0.000 C 
ATOM     27  N   UNL     1       6.820   4.394  13.085  0.00  0.00    +0.000 N 
ATOM     28  C   UNL     1       7.339   5.062  12.016  0.00  0.00    +0.000 A 
ATOM     29  N   UNL     1       8.271   5.893  12.423  0.00  0.00    +0.000 NA
ATOM     30  N   UNL     1       8.376   5.753  13.780  0.00  0.00    +0.000 NA
ATOM     31  C   UNL     1       7.484   4.871  14.196  0.00  0.00    +0.000 A 
ENDBRANCH  25  31
ENDBRANCH  20  25
ENDBRANCH   1  20
TORSDOF 5
ENDMDL
MODEL 8
REMARK VINA RESULT:      -8.1      4.844      7.564
REMARK  Name = 
REMARK  6 active torsions:
REMARK  status: ('A' for Active; 'I' for Inactive)
REMARK    1  A    between atoms: C_1  and  N_2
REMARK    2  A    between atoms: C_6  and  C_7
REMARK    3  A    between atoms: C_7  and  C_8
REMARK    4  A    between atoms: C_8  and  C_9
REMARK    5  A    between atoms: C_13  and  N_14
REMARK    6  A    between atoms: C_17  and  N_18
REMARK                            x       y       z     vdW  Elec       q    Type
REMARK                         _______ _______ _______ _____ _____    ______ ____
ROOT
ATOM      1  C   UNL     1       1.341   8.721  19.561  0.00  0.00    +0.000 A 
ATOM      2  C   UNL     1       1.975   9.146  18.375  0.00  0.00    +0.000 A 
ATOM      3  C   UNL     1       2.689   8.272  17.563  0.00  0.00    +0.000 A 
ATOM      4  C   UNL     1       2.890   6.967  17.977  0.00  0.00    +0.000 A 
ATOM      5  C   UNL     1       2.547   6.611  19.290  0.00  0.00    +0.000 A 
ATOM      6  C   UNL     1       1.642   7.417  19.993  0.00  0.00    +0.000 A 
ENDROOT
BRANCH   5   7
ATOM      7  N   UNL     1       3.474   5.793  20.079  0.00  0.00    +0.000 N 
ATOM      8  C   UNL     1       4.571   5.309  19.198  0.00  0.00    +0.000 C 
ATOM      9  C   UNL     1       3.956   4.084  18.588  0.00  0.00    +0.000 A 
ATOM     10  C   UNL     1       3.889   3.654  17.267  0.00  0.00    +0.000 A 
ATOM     11  C   UNL     1       2.914   2.677  16.978  0.00  0.00    +0.000 A 
ATOM     12  C   UNL     1       2.059   2.141  17.966  0.00  0.00    +0.000 A 
ATOM     13  C   UNL     1       2.139   2.585  19.282  0.00  0.00    +0.000 A 
ATOM     14  C   UNL     1       3.076   3.565  19.554  0.00  0.00    +0.000 A 
ATOM     15  C   UNL     1       2.913   4.601  20.609  0.00  0.00    +0.000 C 
ATOM     16  O   UNL     1       2.235   4.468  21.614  0.00  0.00    +0.000 OA
BRANCH  10  17
ATOM     17  N   UNL     1       4.619   4.186  16.180  0.00  0.00    +0.000 N 
ATOM     18  F   UNL     1       5.975   3.748  16.346  0.00  0.00    +0.000 F 
ATOM     19  H   UNL     1       4.499   5.207  16.123  0.00  0.00    +0.000 HD
ENDBRANCH  10  17
ENDBRANCH   5   7
BRANCH   1  20
ATOM     20  C   UNL     1       0.331   9.684  20.371  0.00  0.00    +0.000 C 
ATOM     21  C   UNL     1      -0.223   9.122  21.718  0.00  0.00    +0.000 C 
ATOM     22  N   UNL     1       0.730   9.942  22.474  0.00  0.00    +0.000 NA
ATOM     23  C   UNL     1       1.064  10.726  21.282  0.00  0.00    +0.000 C 
ATOM     24  H   UNL     1       1.520   9.396  22.827  0.00  0.00    +0.000 HD
BRANCH  20  25
ATOM     25  C   UNL     1      -0.745  10.341  19.464  0.00  0.00    +0.000 C 
BRANCH  25  31
ATOM     26  C   UNL     1      -2.292  12.388  21.322  0.00  0.00    +0.000 C 
ATOM     27  N   UNL     1      -1.394  12.693  20.244  0.00  0.00    +0.000 N 
ATOM     28  C   UNL     1      -1.048  13.955  19.864  0.00  0.00    +0.000 A 
ATOM     29  N   UNL     1      -0.217  13.899  18.848  0.00  0.00    +0.000 NA
ATOM     30  N   UNL     1      -0.032  12.578  18.547  0.00  0.00    +0.000 NA
ATOM     31  C   UNL     1      -0.715  11.837  19.401  0.00  0.00    +0.000 A 
ENDBRANCH  25  31
ENDBRANCH  20  25
ENDBRANCH   1  20
TORSDOF 5
ENDMDL
MODEL 9
REMARK VINA RESULT:      -8.1      4.401      7.322
REMARK  Name = 
REMARK  6 active torsions:
REMARK  status: ('A' for Active; 'I' for Inactive)
REMARK    1  A    between atoms: C_1  and  N_2
REMARK    2  A    between atoms: C_6  and  C_7
REMARK    3  A    between atoms: C_7  and  C_8
REMARK    4  A    between atoms: C_8  and  C_9
REMARK    5  A    between atoms: C_13  and  N_14
REMARK    6  A    between atoms: C_17  and  N_18
REMARK                            x       y       z     vdW  Elec       q    Type
REMARK                         _______ _______ _______ _____ _____    ______ ____
ROOT
ATOM      1  C   UNL     1       1.491   8.744  19.504  0.00  0.00    +0.000 A 
ATOM      2  C   UNL     1       2.131   9.109  18.302  0.00  0.00    +0.000 A 
ATOM      3  C   UNL     1       2.802   8.185  17.509  0.00  0.00    +0.000 A 
ATOM      4  C   UNL     1       2.953   6.884  17.958  0.00  0.00    +0.000 A 
ATOM      5  C   UNL     1       2.607   6.579  19.283  0.00  0.00    +0.000 A 
ATOM      6  C   UNL     1       1.743   7.441  19.970  0.00  0.00    +0.000 A 
ENDROOT
BRANCH   5   7
ATOM      7  N   UNL     1       3.507   5.745  20.087  0.00  0.00    +0.000 N 
ATOM      8  C   UNL     1       4.612   5.246  19.225  0.00  0.00    +0.000 C 
ATOM      9  C   UNL     1       3.990   4.032  18.601  0.00  0.00    +0.000 A 
ATOM     10  C   UNL     1       3.941   3.605  17.278  0.00  0.00    +0.000 A 
ATOM     11  C   UNL     1       2.956   2.643  16.970  0.00  0.00    +0.000 A 
ATOM     12  C   UNL     1       2.075   2.120  17.941  0.00  0.00    +0.000 A 
ATOM     13  C   UNL     1       2.137   2.559  19.259  0.00  0.00    +0.000 A 
ATOM     14  C   UNL     1       3.084   3.525  19.550  0.00  0.00    +0.000 A 
ATOM     15  C   UNL     1       2.918   4.561  20.604  0.00  0.00    +0.000 C 
ATOM     16  O   UNL     1       2.219   4.437  21.596  0.00  0.00    +0.000 OA
BRANCH  10  17
ATOM     17  N   UNL     1       4.699   4.128  16.206  0.00  0.00    +0.000 N 
ATOM     18  F   UNL     1       6.071   3.814  16.486  0.00  0.00    +0.000 F 
ATOM     19  H   UNL     1       4.503   5.130  16.074  0.00  0.00    +0.000 HD
ENDBRANCH  10  17
ENDBRANCH   5   7
BRANCH   1  20
ATOM     20  C   UNL     1       0.529   9.770  20.295  0.00  0.00    +0.000 C 
ATOM     21  C   UNL     1      -0.631   9.128  21.119  0.00  0.00    +0.000 C 
ATOM     22  N   UNL     1       0.127   9.309  22.362  0.00  0.00    +0.000 NA
ATOM     23  C   UNL     1       1.089  10.191  21.696  0.00  0.00    +0.000 C 
ATOM     24  H   UNL     1       0.547   8.437  22.693  0.00  0.00    +0.000 HD
BRANCH  20  25
ATOM     25  C   UNL     1       0.100  10.991  19.436  0.00  0.00    +0.000 C 
BRANCH  25  31
ATOM     26  C   UNL     1      -2.676  12.437  19.919  0.00  0.00    +0.000 C 
ATOM     27  N   UNL     1      -2.352  11.487  18.892  0.00  0.00    +0.000 N 
ATOM     28  C   UNL     1      -3.220  11.071  17.927  0.00  0.00    +0.000 A 
ATOM     29  N   UNL     1      -2.627  10.199  17.144  0.00  0.00    +0.000 NA
ATOM     30  N   UNL     1      -1.355  10.028  17.617  0.00  0.00    +0.000 NA
ATOM     31  C   UNL     1      -1.167  10.822  18.656  0.00  0.00    +0.000 A 
ENDBRANCH  25  31
ENDBRANCH  20  25
ENDBRANCH   1  20
TORSDOF 5
ENDMDL
