MODEL 1
REMARK VINA RESULT:      -7.8      0.000      0.000
REMARK  Name = 
REMARK  6 active torsions:
REMARK  status: ('A' for Active; 'I' for Inactive)
REMARK    1  A    between atoms: C_1  and  C_2
REMARK    2  A    between atoms: C_2  and  C_3
REMARK    3  A    between atoms: C_7  and  N_8
REMARK    4  A    between atoms: C_13  and  C_14
REMARK    5  A    between atoms: C_14  and  N_15
REMARK    6  A    between atoms: C_23  and  C_24
REMARK                            x       y       z     vdW  Elec       q    Type
REMARK                         _______ _______ _______ _____ _____    ______ ____
ROOT
ATOM      1  N   UNL     1       2.565   7.459  19.362  0.00  0.00    +0.000 N 
ATOM      2  C   UNL     1       2.231   8.221  20.584  0.00  0.00    +0.000 C 
ATOM      3  C   UNL     1       1.085   9.066  20.119  0.00  0.00    +0.000 A 
ATOM      4  C   UNL     1       1.214   9.256  18.748  0.00  0.00    +0.000 A 
ATOM      5  C   UNL     1       0.285   9.940  17.984  0.00  0.00    +0.000 A 
ATOM      6  C   UNL     1      -0.838  10.471  18.636  0.00  0.00    +0.000 A 
ATOM      7  C   UNL     1      -1.001  10.235  20.024  0.00  0.00    +0.000 A 
ATOM      8  C   UNL     1      -0.047   9.528  20.792  0.00  0.00    +0.000 A 
ATOM      9  C   UNL     1       2.268   8.320  18.280  0.00  0.00    +0.000 C 
ATOM     10  O   UNL     1       2.634   8.241  17.119  0.00  0.00    +0.000 OA
ENDROOT
BRANCH   1  15
ATOM     11  C   UNL     1       2.136   3.914  18.525  0.00  0.00    +0.000 A 
ATOM     12  C   UNL     1       1.891   3.440  19.819  0.00  0.00    +0.000 A 
ATOM     13  C   UNL     1       1.463   4.307  20.821  0.00  0.00    +0.000 A 
ATOM     14  C   UNL     1       1.382   5.671  20.570  0.00  0.00    +0.000 A 
ATOM     15  C   UNL     1       1.872   6.179  19.360  0.00  0.00    +0.000 A 
ATOM     16  C   UNL     1       2.107   5.297  18.294  0.00  0.00    +0.000 A 
BRANCH  11  18
ATOM     17  C   UNL     1       3.366   1.791  17.934  0.00  0.00    +0.000 C 
ATOM     18  C   UNL     1       2.523   2.954  17.430  0.00  0.00    +0.000 C 
ENDBRANCH  11  18
ENDBRANCH   1  15
BRANCH   8  19
ATOM     19  C   UNL     1      -0.335   9.238  22.241  0.00  0.00    +0.000 C 
ATOM     20  F   UNL     1       0.770   9.209  23.036  0.00  0.00    +0.000 F 
ATOM     21  F   UNL     1      -1.159  10.167  22.797  0.00  0.00    +0.000 F 
ATOM     22  F   UNL     1      -0.948   8.036  22.420  0.00  0.00    +0.000 F 
ENDBRANCH   8  19
BRANCH   6  23
ATOM     23  C   UNL     1      -1.852  11.311  17.882  0.00  0.00    +0.000 C 
BRANCH  23  24
ATOM     24  N   UNL     1      -3.233  11.100  18.333  0.00  0.00    +0.000 N 
ATOM     25  C   UNL     1      -4.225  11.758  17.616  0.00  0.00    +0.000 C 
ATOM     26  C   UNL     1      -3.950  12.119  18.869  0.00  0.00    +0.000 C 
ATOM     27  N   UNL     1      -4.836  12.245  19.893  0.00  0.00    +0.000 N 
ATOM     28  C   UNL     1      -6.280  12.213  19.655  0.00  0.00    +0.000 C 
ATOM     29  C   UNL     1      -6.658  12.112  18.175  0.00  0.00    +0.000 C 
ATOM     30  C   UNL     1      -5.629  11.387  17.298  0.00  0.00    +0.000 C 
ATOM     31  H   UNL     1      -4.583  11.578  20.623  0.00  0.00    +0.000 HD
ENDBRANCH  23  24
ENDBRANCH   6  23
TORSDOF 5
ENDMDL
MODEL 2
REMARK VINA RESULT:      -7.5      4.199      5.879
REMARK  Name = 
REMARK  6 active torsions:
REMARK  status: ('A' for Active; 'I' for Inactive)
REMARK    1  A    between atoms: C_1  and  C_2
REMARK    2  A    between atoms: C_2  and  C_3
REMARK    3  A    between atoms: C_7  and  N_8
REMARK    4  A    between atoms: C_13  and  C_14
REMARK    5  A    between atoms: C_14  and  N_15
REMARK    6  A    between atoms: C_23  and  C_24
REMARK                            x       y       z     vdW  Elec       q    Type
REMARK                         _______ _______ _______ _____ _____    ______ ____
ROOT
ATOM      1  N   UNL     1       0.705   8.264  21.301  0.00  0.00    +0.000 N 
ATOM      2  C   UNL     1      -0.508   8.627  20.540  0.00  0.00    +0.000 C 
ATOM      3  C   UNL     1      -0.222  10.046  20.158  0.00  0.00    +0.000 A 
ATOM      4  C   UNL     1       0.641  10.585  21.105  0.00  0.00    +0.000 A 
ATOM      5  C   UNL     1       1.161  11.865  21.020  0.00  0.00    +0.000 A 
ATOM      6  C   UNL     1       0.787  12.654  19.923  0.00  0.00    +0.000 A 
ATOM      7  C   UNL     1      -0.050  12.091  18.927  0.00  0.00    +0.000 A 
ATOM      8  C   UNL     1      -0.569  10.779  19.023  0.00  0.00    +0.000 A 
ATOM      9  C   UNL     1       1.132   9.455  21.934  0.00  0.00    +0.000 C 
ATOM     10  O   UNL     1       1.905   9.588  22.869  0.00  0.00    +0.000 OA
ENDROOT
BRANCH   1  15
ATOM     11  C   UNL     1       2.139   5.483  19.386  0.00  0.00    +0.000 A 
ATOM     12  C   UNL     1       2.252   6.138  18.154  0.00  0.00    +0.000 A 
ATOM     13  C   UNL     1       2.263   7.529  18.090  0.00  0.00    +0.000 A 
ATOM     14  C   UNL     1       2.050   8.278  19.240  0.00  0.00    +0.000 A 
ATOM     15  C   UNL     1       1.680   7.630  20.426  0.00  0.00    +0.000 A 
ATOM     16  C   UNL     1       1.869   6.243  20.533  0.00  0.00    +0.000 A 
BRANCH  11  18
ATOM     17  C   UNL     1       1.099   3.374  20.301  0.00  0.00    +0.000 C 
ATOM     18  C   UNL     1       2.207   3.980  19.451  0.00  0.00    +0.000 C 
ENDBRANCH  11  18
ENDBRANCH   1  15
BRANCH   8  19
ATOM     19  C   UNL     1      -1.376  10.221  17.881  0.00  0.00    +0.000 C 
ATOM     20  F   UNL     1      -2.522   9.590  18.261  0.00  0.00    +0.000 F 
ATOM     21  F   UNL     1      -1.766  11.187  17.005  0.00  0.00    +0.000 F 
ATOM     22  F   UNL     1      -0.681   9.308  17.148  0.00  0.00    +0.000 F 
ENDBRANCH   8  19
BRANCH   6  23
ATOM     23  C   UNL     1       1.243  14.096  19.809  0.00  0.00    +0.000 C 
BRANCH  23  24
ATOM     24  N   UNL     1       2.700  14.238  19.684  0.00  0.00    +0.000 N 
ATOM     25  C   UNL     1       3.175  15.515  19.409  0.00  0.00    +0.000 C 
ATOM     26  C   UNL     1       3.266  14.552  18.492  0.00  0.00    +0.000 C 
ATOM     27  N   UNL     1       4.386  14.169  17.823  0.00  0.00    +0.000 N 
ATOM     28  C   UNL     1       5.613  14.964  17.880  0.00  0.00    +0.000 C 
ATOM     29  C   UNL     1       5.469  16.263  18.677  0.00  0.00    +0.000 C 
ATOM     30  C   UNL     1       4.427  16.212  19.803  0.00  0.00    +0.000 C 
ATOM     31  H   UNL     1       4.584  13.195  18.055  0.00  0.00    +0.000 HD
ENDBRANCH  23  24
ENDBRANCH   6  23
TORSDOF 5
ENDMDL
MODEL 3
REMARK VINA RESULT:      -7.4      3.991      6.599
REMARK  Name = 
REMARK  6 active torsions:
REMARK  status: ('A' for Active; 'I' for Inactive)
REMARK    1  A    between atoms: C_1  and  C_2
REMARK    2  A    between atoms: C_2  and  C_3
REMARK    3  A    between atoms: C_7  and  N_8
REMARK    4  A    between atoms: C_13  and  C_14
REMARK    5  A    between atoms: C_14  and  N_15
REMARK    6  A    between atoms: C_23  and  C_24
REMARK                            x       y       z     vdW  Elec       q    Type
REMARK                         _______ _______ _______ _____ _____    ______ ____
ROOT
ATOM      1  N   UNL     1      -0.442  11.312  18.316  0.00  0.00    +0.000 N 
ATOM      2  C   UNL     1       0.268  10.487  19.316  0.00  0.00    +0.000 C 
ATOM      3  C   UNL     1      -0.126  11.150  20.600  0.00  0.00    +0.000 A 
ATOM      4  C   UNL     1      -0.415  12.483  20.330  0.00  0.00    +0.000 A 
ATOM      5  C   UNL     1      -0.875  13.370  21.288  0.00  0.00    +0.000 A 
ATOM      6  C   UNL     1      -1.051  12.893  22.594  0.00  0.00    +0.000 A 
ATOM      7  C   UNL     1      -0.809  11.523  22.863  0.00  0.00    +0.000 A 
ATOM      8  C   UNL     1      -0.344  10.625  21.874  0.00  0.00    +0.000 A 
ATOM      9  C   UNL     1      -0.480  12.619  18.853  0.00  0.00    +0.000 C 
ATOM     10  O   UNL     1      -0.707  13.673  18.281  0.00  0.00    +0.000 OA
ENDROOT
BRANCH   1  15
ATOM     11  C   UNL     1      -4.053  11.365  17.669  0.00  0.00    +0.000 A 
ATOM     12  C   UNL     1      -4.039  10.676  16.451  0.00  0.00    +0.000 A 
ATOM     13  C   UNL     1      -2.956   9.872  16.104  0.00  0.00    +0.000 A 
ATOM     14  C   UNL     1      -1.831   9.837  16.918  0.00  0.00    +0.000 A 
ATOM     15  C   UNL     1      -1.735  10.721  18.001  0.00  0.00    +0.000 A 
ATOM     16  C   UNL     1      -2.893  11.369  18.457  0.00  0.00    +0.000 A 
BRANCH  11  18
ATOM     17  C   UNL     1      -6.541  11.343  18.090  0.00  0.00    +0.000 C 
ATOM     18  C   UNL     1      -5.262  12.169  18.068  0.00  0.00    +0.000 C 
ENDBRANCH  11  18
ENDBRANCH   1  15
BRANCH   8  19
ATOM     19  C   UNL     1      -0.198   9.165  22.214  0.00  0.00    +0.000 C 
ATOM     20  F   UNL     1      -1.015   8.340  21.502  0.00  0.00    +0.000 F 
ATOM     21  F   UNL     1       1.064   8.709  21.991  0.00  0.00    +0.000 F 
ATOM     22  F   UNL     1      -0.466   8.906  23.524  0.00  0.00    +0.000 F 
ENDBRANCH   8  19
BRANCH   6  23
ATOM     23  C   UNL     1      -1.465  13.828  23.715  0.00  0.00    +0.000 C 
BRANCH  23  24
ATOM     24  N   UNL     1      -2.652  14.630  23.396  0.00  0.00    +0.000 N 
ATOM     25  C   UNL     1      -3.111  15.480  24.395  0.00  0.00    +0.000 C 
ATOM     26  C   UNL     1      -3.827  14.414  24.037  0.00  0.00    +0.000 C 
ATOM     27  N   UNL     1      -5.138  14.399  23.676  0.00  0.00    +0.000 N 
ATOM     28  C   UNL     1      -5.992  15.571  23.870  0.00  0.00    +0.000 C 
ATOM     29  C   UNL     1      -5.290  16.735  24.575  0.00  0.00    +0.000 C 
ATOM     30  C   UNL     1      -3.776  16.808  24.338  0.00  0.00    +0.000 C 
ATOM     31  H   UNL     1      -5.204  14.069  22.713  0.00  0.00    +0.000 HD
ENDBRANCH  23  24
ENDBRANCH   6  23
TORSDOF 5
ENDMDL
MODEL 4
REMARK VINA RESULT:      -7.4      3.214      8.049
REMARK  Name = 
REMARK  6 active torsions:
REMARK  status: ('A' for Active; 'I' for Inactive)
REMARK    1  A    between atoms: C_1  and  C_2
REMARK    2  A    between atoms: C_2  and  C_3
REMARK    3  A    between atoms: C_7  and  N_8
REMARK    4  A    between atoms: C_13  and  C_14
REMARK    5  A    between atoms: C_14  and  N_15
REMARK    6  A    between atoms: C_23  and  C_24
REMARK                            x       y       z     vdW  Elec       q    Type
REMARK                         _______ _______ _______ _____ _____    ______ ____
ROOT
ATOM      1  N   UNL     1      -1.708  13.126  21.934  0.00  0.00    +0.000 N 
ATOM      2  C   UNL     1      -0.378  13.423  21.360  0.00  0.00    +0.000 C 
ATOM      3  C   UNL     1       0.131  12.054  21.033  0.00  0.00    +0.000 A 
ATOM      4  C   UNL     1      -0.480  11.147  21.892  0.00  0.00    +0.000 A 
ATOM      5  C   UNL     1      -0.281   9.779  21.819  0.00  0.00    +0.000 A 
ATOM      6  C   UNL     1       0.586   9.293  20.830  0.00  0.00    +0.000 A 
ATOM      7  C   UNL     1       1.170  10.208  19.919  0.00  0.00    +0.000 A 
ATOM      8  C   UNL     1       0.954  11.603  20.000  0.00  0.00    +0.000 A 
ATOM      9  C   UNL     1      -1.577  11.874  22.578  0.00  0.00    +0.000 C 
ATOM     10  O   UNL     1      -2.308  11.364  23.411  0.00  0.00    +0.000 OA
ENDROOT
BRANCH   1  15
ATOM     11  C   UNL     1      -3.567  11.937  19.004  0.00  0.00    +0.000 A 
ATOM     12  C   UNL     1      -4.856  12.042  19.540  0.00  0.00    +0.000 A 
ATOM     13  C   UNL     1      -5.102  12.867  20.634  0.00  0.00    +0.000 A 
ATOM     14  C   UNL     1      -4.047  13.507  21.271  0.00  0.00    +0.000 A 
ATOM     15  C   UNL     1      -2.731  13.202  20.901  0.00  0.00    +0.000 A 
ATOM     16  C   UNL     1      -2.500  12.540  19.685  0.00  0.00    +0.000 A 
BRANCH  11  18
ATOM     17  C   UNL     1      -1.887  10.624  17.654  0.00  0.00    +0.000 C 
ATOM     18  C   UNL     1      -3.326  11.103  17.772  0.00  0.00    +0.000 C 
ENDBRANCH  11  18
ENDBRANCH   1  15
BRANCH   8  19
ATOM     19  C   UNL     1       1.535  12.502  18.941  0.00  0.00    +0.000 C 
ATOM     20  F   UNL     1       2.329  13.497  19.424  0.00  0.00    +0.000 F 
ATOM     21  F   UNL     1       2.308  11.818  18.054  0.00  0.00    +0.000 F 
ATOM     22  F   UNL     1       0.575  13.124  18.202  0.00  0.00    +0.000 F 
ENDBRANCH   8  19
BRANCH   6  23
ATOM     23  C   UNL     1       0.923   7.816  20.747  0.00  0.00    +0.000 C 
BRANCH  23  24
ATOM     24  N   UNL     1       2.246   7.552  20.167  0.00  0.00    +0.000 N 
ATOM     25  C   UNL     1       2.267   7.131  18.842  0.00  0.00    +0.000 C 
ATOM     26  C   UNL     1       2.611   6.293  19.819  0.00  0.00    +0.000 C 
ATOM     27  N   UNL     1       3.754   5.560  19.898  0.00  0.00    +0.000 N 
ATOM     28  C   UNL     1       4.660   5.443  18.754  0.00  0.00    +0.000 C 
ATOM     29  C   UNL     1       4.150   6.141  17.490  0.00  0.00    +0.000 C 
ATOM     30  C   UNL     1       3.247   7.354  17.748  0.00  0.00    +0.000 C 
ATOM     31  H   UNL     1       4.269   5.854  20.729  0.00  0.00    +0.000 HD
ENDBRANCH  23  24
ENDBRANCH   6  23
TORSDOF 5
ENDMDL
MODEL 5
REMARK VINA RESULT:      -7.4      3.253      7.896
REMARK  Name = 
REMARK  6 active torsions:
REMARK  status: ('A' for Active; 'I' for Inactive)
REMARK    1  A    between atoms: C_1  and  C_2
REMARK    2  A    between atoms: C_2  and  C_3
REMARK    3  A    between atoms: C_7  and  N_8
REMARK    4  A    between atoms: C_13  and  C_14
REMARK    5  A    between atoms: C_14  and  N_15
REMARK    6  A    between atoms: C_23  and  C_24
REMARK                            x       y       z     vdW  Elec       q    Type
REMARK                         _______ _______ _______ _____ _____    ______ ____
ROOT
ATOM      1  N   UNL     1       1.007  11.901  18.518  0.00  0.00    +0.000 N 
ATOM      2  C   UNL     1      -0.171  11.763  19.400  0.00  0.00    +0.000 C 
ATOM      3  C   UNL     1       0.126  10.482  20.116  0.00  0.00    +0.000 A 
ATOM      4  C   UNL     1       0.941   9.707  19.298  0.00  0.00    +0.000 A 
ATOM      5  C   UNL     1       1.457   8.481  19.681  0.00  0.00    +0.000 A 
ATOM      6  C   UNL     1       1.132   8.002  20.958  0.00  0.00    +0.000 A 
ATOM      7  C   UNL     1       0.347   8.812  21.815  0.00  0.00    +0.000 A 
ATOM      8  C   UNL     1      -0.170  10.066  21.414  0.00  0.00    +0.000 A 
ATOM      9  C   UNL     1       1.396  10.583  18.189  0.00  0.00    +0.000 C 
ATOM     10  O   UNL     1       2.123  10.205  17.285  0.00  0.00    +0.000 OA
ENDROOT
BRANCH   1  15
ATOM     11  C   UNL     1       3.486  14.600  18.681  0.00  0.00    +0.000 A 
ATOM     12  C   UNL     1       3.012  15.224  19.841  0.00  0.00    +0.000 A 
ATOM     13  C   UNL     1       2.203  14.532  20.738  0.00  0.00    +0.000 A 
ATOM     14  C   UNL     1       1.769  13.249  20.431  0.00  0.00    +0.000 A 
ATOM     15  C   UNL     1       2.025  12.720  19.160  0.00  0.00    +0.000 A 
ATOM     16  C   UNL     1       2.998  13.328  18.351  0.00  0.00    +0.000 A 
BRANCH  11  18
ATOM     17  C   UNL     1       5.861  14.845  17.865  0.00  0.00    +0.000 C 
ATOM     18  C   UNL     1       4.424  15.333  17.758  0.00  0.00    +0.000 C 
ENDBRANCH  11  18
ENDBRANCH   1  15
BRANCH   8  19
ATOM     19  C   UNL     1      -0.919  10.908  22.412  0.00  0.00    +0.000 C 
ATOM     20  F   UNL     1      -1.171  10.282  23.595  0.00  0.00    +0.000 F 
ATOM     21  F   UNL     1      -0.243  12.043  22.738  0.00  0.00    +0.000 F 
ATOM     22  F   UNL     1      -2.132  11.313  21.946  0.00  0.00    +0.000 F 
ENDBRANCH   8  19
BRANCH   6  23
ATOM     23  C   UNL     1       1.586   6.628  21.413  0.00  0.00    +0.000 C 
BRANCH  23  24
ATOM     24  N   UNL     1       1.699   5.659  20.315  0.00  0.00    +0.000 N 
ATOM     25  C   UNL     1       1.422   4.334  20.629  0.00  0.00    +0.000 C 
ATOM     26  C   UNL     1       2.665   4.707  20.329  0.00  0.00    +0.000 C 
ATOM     27  N   UNL     1       3.481   4.143  19.398  0.00  0.00    +0.000 N 
ATOM     28  C   UNL     1       3.141   2.870  18.762  0.00  0.00    +0.000 C 
ATOM     29  C   UNL     1       1.859   2.233  19.306  0.00  0.00    +0.000 C 
ATOM     30  C   UNL     1       0.821   3.232  19.833  0.00  0.00    +0.000 C 
ATOM     31  H   UNL     1       3.697   4.846  18.690  0.00  0.00    +0.000 HD
ENDBRANCH  23  24
ENDBRANCH   6  23
TORSDOF 5
ENDMDL
MODEL 6
REMARK VINA RESULT:      -7.4      2.675      8.138
REMARK  Name = 
REMARK  6 active torsions:
REMARK  status: ('A' for Active; 'I' for Inactive)
REMARK    1  A    between atoms: C_1  and  C_2
REMARK    2  A    between atoms: C_2  and  C_3
REMARK    3  A    between atoms: C_7  and  N_8
REMARK    4  A    between atoms: C_13  and  C_14
REMARK    5  A    between atoms: C_14  and  N_15
REMARK    6  A    between atoms: C_23  and  C_24
REMARK                            x       y       z     vdW  Elec       q    Type
REMARK                         _______ _______ _______ _____ _____    ______ ____
ROOT
ATOM      1  N   UNL     1      -2.023  12.126  19.175  0.00  0.00    +0.000 N 
ATOM      2  C   UNL     1      -1.953  11.178  20.307  0.00  0.00    +0.000 C 
ATOM      3  C   UNL     1      -0.774  10.334  19.933  0.00  0.00    +0.000 A 
ATOM      4  C   UNL     1      -0.652  10.350  18.548  0.00  0.00    +0.000 A 
ATOM      5  C   UNL     1       0.377   9.721  17.868  0.00  0.00    +0.000 A 
ATOM      6  C   UNL     1       1.336   9.030  18.623  0.00  0.00    +0.000 A 
ATOM      7  C   UNL     1       1.246   9.056  20.037  0.00  0.00    +0.000 A 
ATOM      8  C   UNL     1       0.193   9.708  20.719  0.00  0.00    +0.000 A 
ATOM      9  C   UNL     1      -1.562  11.410  18.046  0.00  0.00    +0.000 C 
ATOM     10  O   UNL     1      -1.701  11.678  16.864  0.00  0.00    +0.000 OA
ENDROOT
BRANCH   1  15
ATOM     11  C   UNL     1      -0.309  14.493  21.392  0.00  0.00    +0.000 A 
ATOM     12  C   UNL     1       0.886  14.599  20.671  0.00  0.00    +0.000 A 
ATOM     13  C   UNL     1       0.932  14.252  19.323  0.00  0.00    +0.000 A 
ATOM     14  C   UNL     1      -0.182  13.692  18.712  0.00  0.00    +0.000 A 
ATOM     15  C   UNL     1      -1.294  13.345  19.491  0.00  0.00    +0.000 A 
ATOM     16  C   UNL     1      -1.412  13.876  20.785  0.00  0.00    +0.000 A 
BRANCH  11  18
ATOM     17  C   UNL     1      -1.287  14.084  23.682  0.00  0.00    +0.000 C 
ATOM     18  C   UNL     1      -0.367  14.945  22.828  0.00  0.00    +0.000 C 
ENDBRANCH  11  18
ENDBRANCH   1  15
BRANCH   8  19
ATOM     19  C   UNL     1       0.215   9.769  22.223  0.00  0.00    +0.000 C 
ATOM     20  F   UNL     1      -0.000  11.011  22.737  0.00  0.00    +0.000 F 
ATOM     21  F   UNL     1      -0.734   8.973  22.785  0.00  0.00    +0.000 F 
ATOM     22  F   UNL     1       1.405   9.359  22.744  0.00  0.00    +0.000 F 
ENDBRANCH   8  19
BRANCH   6  23
ATOM     23  C   UNL     1       2.440   8.241  17.944  0.00  0.00    +0.000 C 
BRANCH  23  24
ATOM     24  N   UNL     1       2.818   7.024  18.673  0.00  0.00    +0.000 N 
ATOM     25  C   UNL     1       3.715   6.175  18.035  0.00  0.00    +0.000 C 
ATOM     26  C   UNL     1       2.448   5.801  18.216  0.00  0.00    +0.000 C 
ATOM     27  N   UNL     1       2.015   4.645  18.787  0.00  0.00    +0.000 N 
ATOM     28  C   UNL     1       2.938   3.545  19.069  0.00  0.00    +0.000 C 
ATOM     29  C   UNL     1       4.369   3.804  18.588  0.00  0.00    +0.000 C 
ATOM     30  C   UNL     1       4.779   5.282  18.563  0.00  0.00    +0.000 C 
ATOM     31  H   UNL     1       1.479   4.880  19.623  0.00  0.00    +0.000 HD
ENDBRANCH  23  24
ENDBRANCH   6  23
TORSDOF 5
ENDMDL
MODEL 7
REMARK VINA RESULT:      -7.3      3.682      4.558
REMARK  Name = 
REMARK  6 active torsions:
REMARK  status: ('A' for Active; 'I' for Inactive)
REMARK    1  A    between atoms: C_1  and  C_2
REMARK    2  A    between atoms: C_2  and  C_3
REMARK    3  A    between atoms: C_7  and  N_8
REMARK    4  A    between atoms: C_13  and  C_14
REMARK    5  A    between atoms: C_14  and  N_15
REMARK    6  A    between atoms: C_23  and  C_24
REMARK                            x       y       z     vdW  Elec       q    Type
REMARK                         _______ _______ _______ _____ _____    ______ ____
ROOT
ATOM      1  N   UNL     1       0.641   8.434  21.225  0.00  0.00    +0.000 N 
ATOM      2  C   UNL     1      -0.588   8.705  20.450  0.00  0.00    +0.000 C 
ATOM      3  C   UNL     1      -0.375  10.123  20.018  0.00  0.00    +0.000 A 
ATOM      4  C   UNL     1       0.457  10.739  20.946  0.00  0.00    +0.000 A 
ATOM      5  C   UNL     1       0.910  12.041  20.814  0.00  0.00    +0.000 A 
ATOM      6  C   UNL     1       0.498  12.769  19.689  0.00  0.00    +0.000 A 
ATOM      7  C   UNL     1      -0.306  12.128  18.714  0.00  0.00    +0.000 A 
ATOM      8  C   UNL     1      -0.757  10.796  18.856  0.00  0.00    +0.000 A 
ATOM      9  C   UNL     1       1.003   9.667  21.815  0.00  0.00    +0.000 C 
ATOM     10  O   UNL     1       1.766   9.873  22.744  0.00  0.00    +0.000 OA
ENDROOT
BRANCH   1  15
ATOM     11  C   UNL     1       2.204   5.671  19.387  0.00  0.00    +0.000 A 
ATOM     12  C   UNL     1       2.303   6.302  18.142  0.00  0.00    +0.000 A 
ATOM     13  C   UNL     1       2.260   7.691  18.046  0.00  0.00    +0.000 A 
ATOM     14  C   UNL     1       2.005   8.456  19.177  0.00  0.00    +0.000 A 
ATOM     15  C   UNL     1       1.649   7.820  20.374  0.00  0.00    +0.000 A 
ATOM     16  C   UNL     1       1.892   6.445  20.514  0.00  0.00    +0.000 A 
BRANCH  11  18
ATOM     17  C   UNL     1       1.115   3.518  20.126  0.00  0.00    +0.000 C 
ATOM     18  C   UNL     1       2.331   4.173  19.487  0.00  0.00    +0.000 C 
ENDBRANCH  11  18
ENDBRANCH   1  15
BRANCH   8  19
ATOM     19  C   UNL     1      -1.531  10.156  17.735  0.00  0.00    +0.000 C 
ATOM     20  F   UNL     1      -1.949  11.026  16.775  0.00  0.00    +0.000 F 
ATOM     21  F   UNL     1      -0.803   9.212  17.079  0.00  0.00    +0.000 F 
ATOM     22  F   UNL     1      -2.656   9.525  18.173  0.00  0.00    +0.000 F 
ENDBRANCH   8  19
BRANCH   6  23
ATOM     23  C   UNL     1       0.879  14.228  19.523  0.00  0.00    +0.000 C 
BRANCH  23  24
ATOM     24  N   UNL     1      -0.204  15.054  18.975  0.00  0.00    +0.000 N 
ATOM     25  C   UNL     1       0.076  16.404  18.800  0.00  0.00    +0.000 C 
ATOM     26  C   UNL     1      -0.794  16.013  19.730  0.00  0.00    +0.000 C 
ATOM     27  N   UNL     1      -2.065  16.467  19.898  0.00  0.00    +0.000 N 
ATOM     28  C   UNL     1      -2.550  17.647  19.180  0.00  0.00    +0.000 C 
ATOM     29  C   UNL     1      -1.481  18.329  18.323  0.00  0.00    +0.000 C 
ATOM     30  C   UNL     1      -0.391  17.389  17.790  0.00  0.00    +0.000 C 
ATOM     31  H   UNL     1      -2.707  15.685  19.767  0.00  0.00    +0.000 HD
ENDBRANCH  23  24
ENDBRANCH   6  23
TORSDOF 5
ENDMDL
MODEL 8
REMARK VINA RESULT:      -7.3      3.189      8.356
REMARK  Name = 
REMARK  6 active torsions:
REMARK  status: ('A' for Active; 'I' for Inactive)
REMARK    1  A    between atoms: C_1  and  C_2
REMARK    2  A    between atoms: C_2  and  C_3
REMARK    3  A    between atoms: C_7  and  N_8
REMARK    4  A    between atoms: C_13  and  C_14
REMARK    5  A    between atoms: C_14  and  N_15
REMARK    6  A    between atoms: C_23  and  C_24
REMARK                            x       y       z     vdW  Elec       q    Type
REMARK                         _______ _______ _______ _____ _____    ______ ____
ROOT
ATOM      1  N   UNL     1      -0.903  14.246  20.808  0.00  0.00    +0.000 N 
ATOM      2  C   UNL     1      -1.115  13.591  19.500  0.00  0.00    +0.000 C 
ATOM      3  C   UNL     1      -0.615  12.204  19.763  0.00  0.00    +0.000 A 
ATOM      4  C   UNL     1       0.330  12.269  20.781  0.00  0.00    +0.000 A 
ATOM      5  C   UNL     1       0.949  11.153  21.317  0.00  0.00    +0.000 A 
ATOM      6  C   UNL     1       0.603   9.898  20.797  0.00  0.00    +0.000 A 
ATOM      7  C   UNL     1      -0.399   9.821  19.798  0.00  0.00    +0.000 A 
ATOM      8  C   UNL     1      -1.028  10.969  19.262  0.00  0.00    +0.000 A 
ATOM      9  C   UNL     1       0.244  13.632  21.363  0.00  0.00    +0.000 C 
ATOM     10  O   UNL     1       0.951  14.023  22.277  0.00  0.00    +0.000 OA
ENDROOT
BRANCH   1  15
ATOM     11  C   UNL     1      -4.429  13.461  21.442  0.00  0.00    +0.000 A 
ATOM     12  C   UNL     1      -4.250  12.694  22.599  0.00  0.00    +0.000 A 
ATOM     13  C   UNL     1      -3.083  12.809  23.351  0.00  0.00    +0.000 A 
ATOM     14  C   UNL     1      -2.041  13.606  22.895  0.00  0.00    +0.000 A 
ATOM     15  C   UNL     1      -2.113  14.169  21.614  0.00  0.00    +0.000 A 
ATOM     16  C   UNL     1      -3.353  14.218  20.959  0.00  0.00    +0.000 A 
BRANCH  11  18
ATOM     17  C   UNL     1      -6.188  11.956  20.435  0.00  0.00    +0.000 C 
ATOM     18  C   UNL     1      -5.727  13.386  20.680  0.00  0.00    +0.000 C 
ENDBRANCH  11  18
ENDBRANCH   1  15
BRANCH   8  19
ATOM     19  C   UNL     1      -2.147  10.801  18.269  0.00  0.00    +0.000 C 
ATOM     20  F   UNL     1      -3.349  11.278  18.695  0.00  0.00    +0.000 F 
ATOM     21  F   UNL     1      -1.895  11.442  17.096  0.00  0.00    +0.000 F 
ATOM     22  F   UNL     1      -2.364   9.496  17.945  0.00  0.00    +0.000 F 
ENDBRANCH   8  19
BRANCH   6  23
ATOM     23  C   UNL     1       1.304   8.638  21.270  0.00  0.00    +0.000 C 
BRANCH  23  24
ATOM     24  N   UNL     1       1.218   7.529  20.313  0.00  0.00    +0.000 N 
ATOM     25  C   UNL     1       1.844   6.344  20.681  0.00  0.00    +0.000 C 
ATOM     26  C   UNL     1       2.327   7.075  19.677  0.00  0.00    +0.000 C 
ATOM     27  N   UNL     1       2.613   6.642  18.420  0.00  0.00    +0.000 N 
ATOM     28  C   UNL     1       2.632   5.215  18.095  0.00  0.00    +0.000 C 
ATOM     29  C   UNL     1       2.387   4.305  19.301  0.00  0.00    +0.000 C 
ATOM     30  C   UNL     1       1.514   4.922  20.403  0.00  0.00    +0.000 C 
ATOM     31  H   UNL     1       2.019   7.147  17.762  0.00  0.00    +0.000 HD
ENDBRANCH  23  24
ENDBRANCH   6  23
TORSDOF 5
ENDMDL
MODEL 9
REMARK VINA RESULT:      -7.3      3.011      8.534
REMARK  Name = 
REMARK  6 active torsions:
REMARK  status: ('A' for Active; 'I' for Inactive)
REMARK    1  A    between atoms: C_1  and  C_2
REMARK    2  A    between atoms: C_2  and  C_3
REMARK    3  A    between atoms: C_7  and  N_8
REMARK    4  A    between atoms: C_13  and  C_14
REMARK    5  A    between atoms: C_14  and  N_15
REMARK    6  A    between atoms: C_23  and  C_24
REMARK                            x       y       z     vdW  Elec       q    Type
REMARK                         _______ _______ _______ _____ _____    ______ ____
ROOT
ATOM      1  N   UNL     1      -1.743  12.488  19.490  0.00  0.00    +0.000 N 
ATOM      2  C   UNL     1      -1.833  11.465  20.553  0.00  0.00    +0.000 C 
ATOM      3  C   UNL     1      -0.740  10.517  20.164  0.00  0.00    +0.000 A 
ATOM      4  C   UNL     1      -0.553  10.611  18.790  0.00  0.00    +0.000 A 
ATOM      5  C   UNL     1       0.429   9.914  18.107  0.00  0.00    +0.000 A 
ATOM      6  C   UNL     1       1.268   9.068  18.846  0.00  0.00    +0.000 A 
ATOM      7  C   UNL     1       1.116   9.010  20.254  0.00  0.00    +0.000 A 
ATOM      8  C   UNL     1       0.112   9.732  20.940  0.00  0.00    +0.000 A 
ATOM      9  C   UNL     1      -1.314  11.801  18.331  0.00  0.00    +0.000 C 
ATOM     10  O   UNL     1      -1.367  12.161  17.167  0.00  0.00    +0.000 OA
ENDROOT
BRANCH   1  15
ATOM     11  C   UNL     1      -0.343  15.873  19.303  0.00  0.00    +0.000 A 
ATOM     12  C   UNL     1      -0.607  16.262  20.622  0.00  0.00    +0.000 A 
ATOM     13  C   UNL     1      -0.830  15.307  21.611  0.00  0.00    +0.000 A 
ATOM     14  C   UNL     1      -0.901  13.963  21.272  0.00  0.00    +0.000 A 
ATOM     15  C   UNL     1      -0.896  13.591  19.921  0.00  0.00    +0.000 A 
ATOM     16  C   UNL     1      -0.472  14.520  18.959  0.00  0.00    +0.000 A 
BRANCH  11  18
ATOM     17  C   UNL     1      -1.084  18.002  18.168  0.00  0.00    +0.000 C 
ATOM     18  C   UNL     1      -0.026  16.911  18.259  0.00  0.00    +0.000 C 
ENDBRANCH  11  18
ENDBRANCH   1  15
BRANCH   8  19
ATOM     19  C   UNL     1       0.072   9.689  22.445  0.00  0.00    +0.000 C 
ATOM     20  F   UNL     1      -0.231  10.880  23.031  0.00  0.00    +0.000 F 
ATOM     21  F   UNL     1      -0.854   8.807  22.910  0.00  0.00    +0.000 F 
ATOM     22  F   UNL     1       1.261   9.305  22.987  0.00  0.00    +0.000 F 
ENDBRANCH   8  19
BRANCH   6  23
ATOM     23  C   UNL     1       2.306   8.204  18.155  0.00  0.00    +0.000 C 
BRANCH  23  24
ATOM     24  N   UNL     1       2.601   6.960  18.876  0.00  0.00    +0.000 N 
ATOM     25  C   UNL     1       3.689   6.225  18.422  0.00  0.00    +0.000 C 
ATOM     26  C   UNL     1       2.451   5.756  18.270  0.00  0.00    +0.000 C 
ATOM     27  N   UNL     1       1.993   4.532  18.648  0.00  0.00    +0.000 N 
ATOM     28  C   UNL     1       2.911   3.476  19.075  0.00  0.00    +0.000 C 
ATOM     29  C   UNL     1       4.388   3.865  18.969  0.00  0.00    +0.000 C 
ATOM     30  C   UNL     1       4.670   5.364  19.134  0.00  0.00    +0.000 C 
ATOM     31  H   UNL     1       1.257   4.664  19.343  0.00  0.00    +0.000 HD
ENDBRANCH  23  24
ENDBRANCH   6  23
TORSDOF 5
ENDMDL
