MODEL 1
REMARK VINA RESULT:      -8.5      0.000      0.000
REMARK  Name = 
REMARK  7 active torsions:
REMARK  status: ('A' for Active; 'I' for Inactive)
REMARK    1  A    between atoms: C_1  and  N_2
REMARK    2  A    between atoms: C_6  and  C_7
REMARK    3  A    between atoms: C_7  and  N_8
REMARK    4  A    between atoms: N_8  and  C_9
REMARK    5  A    between atoms: C_13  and  N_14
REMARK    6  A    between atoms: C_19  and  N_20
REMARK    7  A    between atoms: C_26  and  C_27
REMARK                            x       y       z     vdW  Elec       q    Type
REMARK                         _______ _______ _______ _____ _____    ______ ____
ROOT
ATOM      1  N   UNL     1      -0.187  11.607  18.576  0.00  0.00    +0.000 N 
ATOM      2  C   UNL     1       0.567  10.774  19.546  0.00  0.00    +0.000 C 
ATOM      3  C   UNL     1       0.080  11.316  20.856  0.00  0.00    +0.000 A 
ATOM      4  C   UNL     1      -0.263  12.651  20.649  0.00  0.00    +0.000 A 
ATOM      5  C   UNL     1      -0.953  13.410  21.580  0.00  0.00    +0.000 A 
ATOM      6  C   UNL     1      -1.377  12.805  22.768  0.00  0.00    +0.000 A 
ATOM      7  C   UNL     1      -0.999  11.456  22.982  0.00  0.00    +0.000 A 
ATOM      8  C   UNL     1      -0.283  10.682  22.034  0.00  0.00    +0.000 A 
ATOM      9  C   UNL     1      -0.276  12.888  19.187  0.00  0.00    +0.000 C 
ATOM     10  O   UNL     1      -0.537  13.958  18.666  0.00  0.00    +0.000 OA
ENDROOT
BRANCH   1  15
ATOM     11  C   UNL     1      -3.782  11.513  17.774  0.00  0.00    +0.000 A 
ATOM     12  C   UNL     1      -3.699  10.673  16.657  0.00  0.00    +0.000 A 
ATOM     13  C   UNL     1      -2.602   9.837  16.473  0.00  0.00    +0.000 A 
ATOM     14  C   UNL     1      -1.513   9.928  17.331  0.00  0.00    +0.000 A 
ATOM     15  C   UNL     1      -1.463  10.969  18.268  0.00  0.00    +0.000 A 
ATOM     16  C   UNL     1      -2.638  11.676  18.563  0.00  0.00    +0.000 A 
BRANCH  11  17
ATOM     17  N   UNL     1      -4.947  12.290  17.949  0.00  0.00    +0.000 N 
ATOM     18  H   UNL     1      -4.911  13.082  17.307  0.00  0.00    +0.000 HD
BRANCH  17  19
ATOM     19  C   UNL     1      -6.198  11.555  17.744  0.00  0.00    +0.000 C 
BRANCH  19  25
ATOM     20  C   UNL     1      -7.649  13.151  20.010  0.00  0.00    +0.000 C 
ATOM     21  N   UNL     1      -7.418  11.731  19.980  0.00  0.00    +0.000 N 
ATOM     22  C   UNL     1      -7.790  10.836  20.936  0.00  0.00    +0.000 A 
ATOM     23  N   UNL     1      -7.435   9.631  20.570  0.00  0.00    +0.000 NA
ATOM     24  N   UNL     1      -6.809   9.730  19.356  0.00  0.00    +0.000 NA
ATOM     25  C   UNL     1      -6.792  11.002  18.997  0.00  0.00    +0.000 A 
ENDBRANCH  19  25
ENDBRANCH  17  19
ENDBRANCH  11  17
ENDBRANCH   1  15
BRANCH   6  26
ATOM     26  N   UNL     1      -2.164  13.477  23.672  0.00  0.00    +0.000 N 
ATOM     27  C   UNL     1      -2.048  14.903  23.966  0.00  0.00    +0.000 C 
ATOM     28  C   UNL     1      -3.146  15.122  25.022  0.00  0.00    +0.000 C 
ATOM     29  N   UNL     1      -4.244  14.192  24.667  0.00  0.00    +0.000 NA
ATOM     30  C   UNL     1      -3.499  13.068  24.077  0.00  0.00    +0.000 C 
ATOM     31  H   UNL     1      -4.769  14.619  23.905  0.00  0.00    +0.000 HD
ENDBRANCH   6  26
BRANCH   8  32
ATOM     32  C   UNL     1      -0.087   9.211  22.291  0.00  0.00    +0.000 C 
ATOM     33  F   UNL     1      -0.431   8.808  23.543  0.00  0.00    +0.000 F 
ATOM     34  F   UNL     1      -0.821   8.438  21.442  0.00  0.00    +0.000 F 
ATOM     35  F   UNL     1       1.209   8.823  22.119  0.00  0.00    +0.000 F 
ENDBRANCH   8  32
TORSDOF 6
ENDMDL
MODEL 2
REMARK VINA RESULT:      -8.5      7.638     10.890
REMARK  Name = 
REMARK  7 active torsions:
REMARK  status: ('A' for Active; 'I' for Inactive)
REMARK    1  A    between atoms: C_1  and  N_2
REMARK    2  A    between atoms: C_6  and  C_7
REMARK    3  A    between atoms: C_7  and  N_8
REMARK    4  A    between atoms: N_8  and  C_9
REMARK    5  A    between atoms: C_13  and  N_14
REMARK    6  A    between atoms: C_19  and  N_20
REMARK    7  A    between atoms: C_26  and  C_27
REMARK                            x       y       z     vdW  Elec       q    Type
REMARK                         _______ _______ _______ _____ _____    ______ ____
ROOT
ATOM      1  N   UNL     1       4.295   4.608  19.210  0.00  0.00    +0.000 N 
ATOM      2  C   UNL     1       5.624   5.242  19.391  0.00  0.00    +0.000 C 
ATOM      3  C   UNL     1       6.210   5.117  18.017  0.00  0.00    +0.000 A 
ATOM      4  C   UNL     1       5.648   3.984  17.430  0.00  0.00    +0.000 A 
ATOM      5  C   UNL     1       5.789   3.677  16.087  0.00  0.00    +0.000 A 
ATOM      6  C   UNL     1       6.483   4.564  15.257  0.00  0.00    +0.000 A 
ATOM      7  C   UNL     1       7.075   5.699  15.869  0.00  0.00    +0.000 A 
ATOM      8  C   UNL     1       6.941   6.007  17.246  0.00  0.00    +0.000 A 
ATOM      9  C   UNL     1       4.516   3.554  18.283  0.00  0.00    +0.000 C 
ATOM     10  O   UNL     1       3.810   2.588  18.051  0.00  0.00    +0.000 OA
ENDROOT
BRANCH   1  15
ATOM     11  C   UNL     1       2.131   7.558  19.645  0.00  0.00    +0.000 A 
ATOM     12  C   UNL     1       2.542   8.257  18.503  0.00  0.00    +0.000 A 
ATOM     13  C   UNL     1       3.140   7.593  17.436  0.00  0.00    +0.000 A 
ATOM     14  C   UNL     1       3.457   6.245  17.553  0.00  0.00    +0.000 A 
ATOM     15  C   UNL     1       3.321   5.614  18.797  0.00  0.00    +0.000 A 
ATOM     16  C   UNL     1       2.555   6.233  19.794  0.00  0.00    +0.000 A 
BRANCH  11  17
ATOM     17  N   UNL     1       1.468   8.268  20.668  0.00  0.00    +0.000 N 
ATOM     18  H   UNL     1       2.148   8.524  21.383  0.00  0.00    +0.000 HD
BRANCH  17  19
ATOM     19  C   UNL     1       0.769   9.472  20.210  0.00  0.00    +0.000 C 
BRANCH  19  25
ATOM     20  C   UNL     1      -1.346  11.753  19.877  0.00  0.00    +0.000 C 
ATOM     21  N   UNL     1      -0.841  11.233  21.120  0.00  0.00    +0.000 N 
ATOM     22  C   UNL     1      -1.195  11.647  22.368  0.00  0.00    +0.000 A 
ATOM     23  N   UNL     1      -0.551  10.940  23.262  0.00  0.00    +0.000 NA
ATOM     24  N   UNL     1       0.249  10.051  22.597  0.00  0.00    +0.000 NA
ATOM     25  C   UNL     1       0.081  10.229  21.298  0.00  0.00    +0.000 A 
ENDBRANCH  19  25
ENDBRANCH  17  19
ENDBRANCH  11  17
ENDBRANCH   1  15
BRANCH   6  26
ATOM     26  N   UNL     1       6.553   4.369  13.899  0.00  0.00    +0.000 N 
ATOM     27  C   UNL     1       7.620   4.885  13.045  0.00  0.00    +0.000 C 
ATOM     28  C   UNL     1       7.212   4.380  11.650  0.00  0.00    +0.000 C 
ATOM     29  N   UNL     1       6.561   3.067  11.866  0.00  0.00    +0.000 NA
ATOM     30  C   UNL     1       5.940   3.259  13.187  0.00  0.00    +0.000 C 
ATOM     31  H   UNL     1       7.302   2.379  11.995  0.00  0.00    +0.000 HD
ENDBRANCH   6  26
BRANCH   8  32
ATOM     32  C   UNL     1       7.462   7.326  17.753  0.00  0.00    +0.000 C 
ATOM     33  F   UNL     1       8.296   7.969  16.892  0.00  0.00    +0.000 F 
ATOM     34  F   UNL     1       6.459   8.209  18.019  0.00  0.00    +0.000 F 
ATOM     35  F   UNL     1       8.159   7.194  18.917  0.00  0.00    +0.000 F 
ENDBRANCH   8  32
TORSDOF 6
ENDMDL
MODEL 3
REMARK VINA RESULT:      -8.3      0.552      1.058
REMARK  Name = 
REMARK  7 active torsions:
REMARK  status: ('A' for Active; 'I' for Inactive)
REMARK    1  A    between atoms: C_1  and  N_2
REMARK    2  A    between atoms: C_6  and  C_7
REMARK    3  A    between atoms: C_7  and  N_8
REMARK    4  A    between atoms: N_8  and  C_9
REMARK    5  A    between atoms: C_13  and  N_14
REMARK    6  A    between atoms: C_19  and  N_20
REMARK    7  A    between atoms: C_26  and  C_27
REMARK                            x       y       z     vdW  Elec       q    Type
REMARK                         _______ _______ _______ _____ _____    ______ ____
ROOT
ATOM      1  N   UNL     1      -0.402  11.663  18.560  0.00  0.00    +0.000 N 
ATOM      2  C   UNL     1       0.406  10.819  19.475  0.00  0.00    +0.000 C 
ATOM      3  C   UNL     1      -0.027  11.326  20.818  0.00  0.00    +0.000 A 
ATOM      4  C   UNL     1      -0.395  12.661  20.657  0.00  0.00    +0.000 A 
ATOM      5  C   UNL     1      -1.050  13.390  21.635  0.00  0.00    +0.000 A 
ATOM      6  C   UNL     1      -1.411  12.755  22.828  0.00  0.00    +0.000 A 
ATOM      7  C   UNL     1      -1.007  11.406  22.994  0.00  0.00    +0.000 A 
ATOM      8  C   UNL     1      -0.326  10.662  21.997  0.00  0.00    +0.000 A 
ATOM      9  C   UNL     1      -0.478  12.929  19.202  0.00  0.00    +0.000 C 
ATOM     10  O   UNL     1      -0.777  14.006  18.718  0.00  0.00    +0.000 OA
ENDROOT
BRANCH   1  15
ATOM     11  C   UNL     1      -4.011  11.542  17.826  0.00  0.00    +0.000 A 
ATOM     12  C   UNL     1      -3.948  10.664  16.737  0.00  0.00    +0.000 A 
ATOM     13  C   UNL     1      -2.854   9.821  16.562  0.00  0.00    +0.000 A 
ATOM     14  C   UNL     1      -1.749   9.942  17.397  0.00  0.00    +0.000 A 
ATOM     15  C   UNL     1      -1.683  11.015  18.296  0.00  0.00    +0.000 A 
ATOM     16  C   UNL     1      -2.853  11.731  18.588  0.00  0.00    +0.000 A 
BRANCH  11  17
ATOM     17  N   UNL     1      -5.173  12.324  17.995  0.00  0.00    +0.000 N 
ATOM     18  H   UNL     1      -5.233  12.991  17.226  0.00  0.00    +0.000 HD
BRANCH  17  19
ATOM     19  C   UNL     1      -6.416  11.550  18.064  0.00  0.00    +0.000 C 
BRANCH  19  25
ATOM     20  C   UNL     1      -7.177   9.013  19.728  0.00  0.00    +0.000 C 
ATOM     21  N   UNL     1      -7.368  10.382  20.125  0.00  0.00    +0.000 N 
ATOM     22  C   UNL     1      -7.916  10.810  21.296  0.00  0.00    +0.000 A 
ATOM     23  N   UNL     1      -7.916  12.119  21.326  0.00  0.00    +0.000 NA
ATOM     24  N   UNL     1      -7.366  12.565  20.154  0.00  0.00    +0.000 NA
ATOM     25  C   UNL     1      -7.037  11.515  19.421  0.00  0.00    +0.000 A 
ENDBRANCH  19  25
ENDBRANCH  17  19
ENDBRANCH  11  17
ENDBRANCH   1  15
BRANCH   6  26
ATOM     26  N   UNL     1      -2.164  13.396  23.782  0.00  0.00    +0.000 N 
ATOM     27  C   UNL     1      -1.955  14.779  24.204  0.00  0.00    +0.000 C 
ATOM     28  C   UNL     1      -3.051  14.978  25.266  0.00  0.00    +0.000 C 
ATOM     29  N   UNL     1      -4.204  14.162  24.819  0.00  0.00    +0.000 NA
ATOM     30  C   UNL     1      -3.529  13.045  24.137  0.00  0.00    +0.000 C 
ATOM     31  H   UNL     1      -4.688  14.690  24.094  0.00  0.00    +0.000 HD
ENDBRANCH   6  26
BRANCH   8  32
ATOM     32  C   UNL     1      -0.101   9.188  22.212  0.00  0.00    +0.000 C 
ATOM     33  F   UNL     1      -0.418   8.747  23.458  0.00  0.00    +0.000 F 
ATOM     34  F   UNL     1      -0.834   8.425  21.354  0.00  0.00    +0.000 F 
ATOM     35  F   UNL     1       1.199   8.829  22.011  0.00  0.00    +0.000 F 
ENDBRANCH   8  32
TORSDOF 6
ENDMDL
MODEL 4
REMARK VINA RESULT:      -8.3      5.447      8.806
REMARK  Name = 
REMARK  7 active torsions:
REMARK  status: ('A' for Active; 'I' for Inactive)
REMARK    1  A    between atoms: C_1  and  N_2
REMARK    2  A    between atoms: C_6  and  C_7
REMARK    3  A    between atoms: C_7  and  N_8
REMARK    4  A    between atoms: N_8  and  C_9
REMARK    5  A    between atoms: C_13  and  N_14
REMARK    6  A    between atoms: C_19  and  N_20
REMARK    7  A    between atoms: C_26  and  C_27
REMARK                            x       y       z     vdW  Elec       q    Type
REMARK                         _______ _______ _______ _____ _____    ______ ____
ROOT
ATOM      1  N   UNL     1       2.674   7.404  19.307  0.00  0.00    +0.000 N 
ATOM      2  C   UNL     1       2.354   8.199  20.518  0.00  0.00    +0.000 C 
ATOM      3  C   UNL     1       1.247   9.080  20.021  0.00  0.00    +0.000 A 
ATOM      4  C   UNL     1       1.451   9.267  18.655  0.00  0.00    +0.000 A 
ATOM      5  C   UNL     1       0.509   9.845  17.820  0.00  0.00    +0.000 A 
ATOM      6  C   UNL     1      -0.731  10.218  18.351  0.00  0.00    +0.000 A 
ATOM      7  C   UNL     1      -0.917  10.050  19.746  0.00  0.00    +0.000 A 
ATOM      8  C   UNL     1       0.051   9.468  20.603  0.00  0.00    +0.000 A 
ATOM      9  C   UNL     1       2.488   8.301  18.221  0.00  0.00    +0.000 C 
ATOM     10  O   UNL     1       2.901   8.204  17.079  0.00  0.00    +0.000 OA
ENDROOT
BRANCH   1  15
ATOM     11  C   UNL     1       1.871   3.907  18.468  0.00  0.00    +0.000 A 
ATOM     12  C   UNL     1       1.485   3.494  19.750  0.00  0.00    +0.000 A 
ATOM     13  C   UNL     1       1.080   4.421  20.705  0.00  0.00    +0.000 A 
ATOM     14  C   UNL     1       1.185   5.780  20.437  0.00  0.00    +0.000 A 
ATOM     15  C   UNL     1       1.847   6.201  19.275  0.00  0.00    +0.000 A 
ATOM     16  C   UNL     1       2.078   5.273  18.250  0.00  0.00    +0.000 A 
BRANCH  11  17
ATOM     17  N   UNL     1       2.207   2.922  17.515  0.00  0.00    +0.000 N 
ATOM     18  H   UNL     1       2.205   3.349  16.589  0.00  0.00    +0.000 HD
BRANCH  17  19
ATOM     19  C   UNL     1       3.501   2.274  17.749  0.00  0.00    +0.000 C 
BRANCH  19  25
ATOM     20  C   UNL     1       5.072   4.173  15.824  0.00  0.00    +0.000 C 
ATOM     21  N   UNL     1       5.276   4.036  17.241  0.00  0.00    +0.000 N 
ATOM     22  C   UNL     1       6.193   4.710  17.990  0.00  0.00    +0.000 A 
ATOM     23  N   UNL     1       6.085   4.348  19.243  0.00  0.00    +0.000 NA
ATOM     24  N   UNL     1       5.088   3.414  19.325  0.00  0.00    +0.000 NA
ATOM     25  C   UNL     1       4.598   3.218  18.112  0.00  0.00    +0.000 A 
ENDBRANCH  19  25
ENDBRANCH  17  19
ENDBRANCH  11  17
ENDBRANCH   1  15
BRANCH   6  26
ATOM     26  N   UNL     1      -1.742  10.687  17.548  0.00  0.00    +0.000 N 
ATOM     27  C   UNL     1      -2.416   9.894  16.522  0.00  0.00    +0.000 C 
ATOM     28  C   UNL     1      -3.439  10.888  15.944  0.00  0.00    +0.000 C 
ATOM     29  N   UNL     1      -3.860  11.745  17.077  0.00  0.00    +0.000 NA
ATOM     30  C   UNL     1      -2.633  11.784  17.889  0.00  0.00    +0.000 C 
ATOM     31  H   UNL     1      -4.545  11.218  17.618  0.00  0.00    +0.000 HD
ENDBRANCH   6  26
BRANCH   8  32
ATOM     32  C   UNL     1      -0.320   9.179  22.034  0.00  0.00    +0.000 C 
ATOM     33  F   UNL     1       0.738   9.114  22.887  0.00  0.00    +0.000 F 
ATOM     34  F   UNL     1      -1.151  10.125  22.552  0.00  0.00    +0.000 F 
ATOM     35  F   UNL     1      -0.978   7.992  22.168  0.00  0.00    +0.000 F 
ENDBRANCH   8  32
TORSDOF 6
ENDMDL
MODEL 5
REMARK VINA RESULT:      -8.2      7.583     10.931
REMARK  Name = 
REMARK  7 active torsions:
REMARK  status: ('A' for Active; 'I' for Inactive)
REMARK    1  A    between atoms: C_1  and  N_2
REMARK    2  A    between atoms: C_6  and  C_7
REMARK    3  A    between atoms: C_7  and  N_8
REMARK    4  A    between atoms: N_8  and  C_9
REMARK    5  A    between atoms: C_13  and  N_14
REMARK    6  A    between atoms: C_19  and  N_20
REMARK    7  A    between atoms: C_26  and  C_27
REMARK                            x       y       z     vdW  Elec       q    Type
REMARK                         _______ _______ _______ _____ _____    ______ ____
ROOT
ATOM      1  N   UNL     1       3.138   3.789  18.934  0.00  0.00    +0.000 N 
ATOM      2  C   UNL     1       4.517   3.886  19.475  0.00  0.00    +0.000 C 
ATOM      3  C   UNL     1       5.331   3.973  18.219  0.00  0.00    +0.000 A 
ATOM      4  C   UNL     1       4.629   3.293  17.225  0.00  0.00    +0.000 A 
ATOM      5  C   UNL     1       4.970   3.349  15.883  0.00  0.00    +0.000 A 
ATOM      6  C   UNL     1       6.038   4.163  15.488  0.00  0.00    +0.000 A 
ATOM      7  C   UNL     1       6.762   4.826  16.510  0.00  0.00    +0.000 A 
ATOM      8  C   UNL     1       6.421   4.761  17.884  0.00  0.00    +0.000 A 
ATOM      9  C   UNL     1       3.267   3.027  17.742  0.00  0.00    +0.000 C 
ATOM     10  O   UNL     1       2.397   2.445  17.118  0.00  0.00    +0.000 OA
ENDROOT
BRANCH   1  15
ATOM     11  C   UNL     1       2.164   7.176  20.010  0.00  0.00    +0.000 A 
ATOM     12  C   UNL     1       2.785   7.884  18.973  0.00  0.00    +0.000 A 
ATOM     13  C   UNL     1       3.098   7.259  17.770  0.00  0.00    +0.000 A 
ATOM     14  C   UNL     1       2.919   5.887  17.638  0.00  0.00    +0.000 A 
ATOM     15  C   UNL     1       2.580   5.128  18.766  0.00  0.00    +0.000 A 
ATOM     16  C   UNL     1       2.093   5.782  19.906  0.00  0.00    +0.000 A 
BRANCH  11  17
ATOM     17  N   UNL     1       1.806   7.874  21.183  0.00  0.00    +0.000 N 
ATOM     18  H   UNL     1       2.481   8.622  21.337  0.00  0.00    +0.000 HD
BRANCH  17  19
ATOM     19  C   UNL     1       0.453   8.437  21.159  0.00  0.00    +0.000 C 
BRANCH  19  25
ATOM     20  C   UNL     1      -0.036  10.220  18.636  0.00  0.00    +0.000 C 
ATOM     21  N   UNL     1       0.204  10.686  19.975  0.00  0.00    +0.000 N 
ATOM     22  C   UNL     1       0.264  11.986  20.375  0.00  0.00    +0.000 A 
ATOM     23  N   UNL     1       0.481  12.037  21.665  0.00  0.00    +0.000 NA
ATOM     24  N   UNL     1       0.577  10.751  22.125  0.00  0.00    +0.000 NA
ATOM     25  C   UNL     1       0.415   9.929  21.103  0.00  0.00    +0.000 A 
ENDBRANCH  19  25
ENDBRANCH  17  19
ENDBRANCH  11  17
ENDBRANCH   1  15
BRANCH   6  26
ATOM     26  N   UNL     1       6.345   4.346  14.161  0.00  0.00    +0.000 N 
ATOM     27  C   UNL     1       7.537   5.039  13.679  0.00  0.00    +0.000 C 
ATOM     28  C   UNL     1       7.384   4.952  12.150  0.00  0.00    +0.000 C 
ATOM     29  N   UNL     1       6.722   3.654  11.879  0.00  0.00    +0.000 NA
ATOM     30  C   UNL     1       5.878   3.498  13.076  0.00  0.00    +0.000 C 
ATOM     31  H   UNL     1       7.438   2.931  11.937  0.00  0.00    +0.000 HD
ENDBRANCH   6  26
BRANCH   8  32
ATOM     32  C   UNL     1       7.151   5.644  18.861  0.00  0.00    +0.000 C 
ATOM     33  F   UNL     1       6.522   5.801  20.056  0.00  0.00    +0.000 F 
ATOM     34  F   UNL     1       8.392   5.166  19.159  0.00  0.00    +0.000 F 
ATOM     35  F   UNL     1       7.346   6.903  18.376  0.00  0.00    +0.000 F 
ENDBRANCH   8  32
TORSDOF 6
ENDMDL
MODEL 6
REMARK VINA RESULT:      -8.2      7.650     10.930
REMARK  Name = 
REMARK  7 active torsions:
REMARK  status: ('A' for Active; 'I' for Inactive)
REMARK    1  A    between atoms: C_1  and  N_2
REMARK    2  A    between atoms: C_6  and  C_7
REMARK    3  A    between atoms: C_7  and  N_8
REMARK    4  A    between atoms: N_8  and  C_9
REMARK    5  A    between atoms: C_13  and  N_14
REMARK    6  A    between atoms: C_19  and  N_20
REMARK    7  A    between atoms: C_26  and  C_27
REMARK                            x       y       z     vdW  Elec       q    Type
REMARK                         _______ _______ _______ _____ _____    ______ ____
ROOT
ATOM      1  N   UNL     1       3.199   3.674  18.919  0.00  0.00    +0.000 N 
ATOM      2  C   UNL     1       4.573   3.813  19.462  0.00  0.00    +0.000 C 
ATOM      3  C   UNL     1       5.386   3.933  18.208  0.00  0.00    +0.000 A 
ATOM      4  C   UNL     1       4.708   3.236  17.209  0.00  0.00    +0.000 A 
ATOM      5  C   UNL     1       5.049   3.309  15.869  0.00  0.00    +0.000 A 
ATOM      6  C   UNL     1       6.090   4.160  15.479  0.00  0.00    +0.000 A 
ATOM      7  C   UNL     1       6.791   4.842  16.506  0.00  0.00    +0.000 A 
ATOM      8  C   UNL     1       6.450   4.758  17.879  0.00  0.00    +0.000 A 
ATOM      9  C   UNL     1       3.354   2.922  17.723  0.00  0.00    +0.000 C 
ATOM     10  O   UNL     1       2.505   2.316  17.094  0.00  0.00    +0.000 OA
ENDROOT
BRANCH   1  15
ATOM     11  C   UNL     1       2.021   6.981  20.035  0.00  0.00    +0.000 A 
ATOM     12  C   UNL     1       2.675   7.748  19.062  0.00  0.00    +0.000 A 
ATOM     13  C   UNL     1       3.089   7.176  17.863  0.00  0.00    +0.000 A 
ATOM     14  C   UNL     1       2.975   5.804  17.677  0.00  0.00    +0.000 A 
ATOM     15  C   UNL     1       2.598   4.994  18.757  0.00  0.00    +0.000 A 
ATOM     16  C   UNL     1       2.014   5.590  19.883  0.00  0.00    +0.000 A 
BRANCH  11  17
ATOM     17  N   UNL     1       1.561   7.625  21.204  0.00  0.00    +0.000 N 
ATOM     18  H   UNL     1       2.068   7.250  22.004  0.00  0.00    +0.000 HD
BRANCH  17  19
ATOM     19  C   UNL     1       1.698   9.084  21.181  0.00  0.00    +0.000 C 
BRANCH  19  25
ATOM     20  C   UNL     1      -0.554  10.876  19.956  0.00  0.00    +0.000 C 
ATOM     21  N   UNL     1      -0.352  10.596  21.352  0.00  0.00    +0.000 N 
ATOM     22  C   UNL     1      -1.107  11.067  22.383  0.00  0.00    +0.000 A 
ATOM     23  N   UNL     1      -0.646  10.594  23.514  0.00  0.00    +0.000 NA
ATOM     24  N   UNL     1       0.436   9.806  23.228  0.00  0.00    +0.000 NA
ATOM     25  C   UNL     1       0.621   9.809  21.919  0.00  0.00    +0.000 A 
ENDBRANCH  19  25
ENDBRANCH  17  19
ENDBRANCH  11  17
ENDBRANCH   1  15
BRANCH   6  26
ATOM     26  N   UNL     1       6.393   4.360  14.154  0.00  0.00    +0.000 N 
ATOM     27  C   UNL     1       7.587   5.053  13.677  0.00  0.00    +0.000 C 
ATOM     28  C   UNL     1       7.427   4.989  12.147  0.00  0.00    +0.000 C 
ATOM     29  N   UNL     1       6.757   3.699  11.861  0.00  0.00    +0.000 NA
ATOM     30  C   UNL     1       5.917   3.531  13.059  0.00  0.00    +0.000 C 
ATOM     31  H   UNL     1       7.468   2.971  11.905  0.00  0.00    +0.000 HD
ENDBRANCH   6  26
BRANCH   8  32
ATOM     32  C   UNL     1       7.150   5.659  18.862  0.00  0.00    +0.000 C 
ATOM     33  F   UNL     1       8.335   5.176  19.321  0.00  0.00    +0.000 F 
ATOM     34  F   UNL     1       7.432   6.881  18.330  0.00  0.00    +0.000 F 
ATOM     35  F   UNL     1       6.394   5.902  19.970  0.00  0.00    +0.000 F 
ENDBRANCH   8  32
TORSDOF 6
ENDMDL
MODEL 7
REMARK VINA RESULT:      -8.1      0.913      1.170
REMARK  Name = 
REMARK  7 active torsions:
REMARK  status: ('A' for Active; 'I' for Inactive)
REMARK    1  A    between atoms: C_1  and  N_2
REMARK    2  A    between atoms: C_6  and  C_7
REMARK    3  A    between atoms: C_7  and  N_8
REMARK    4  A    between atoms: N_8  and  C_9
REMARK    5  A    between atoms: C_13  and  N_14
REMARK    6  A    between atoms: C_19  and  N_20
REMARK    7  A    between atoms: C_26  and  C_27
REMARK                            x       y       z     vdW  Elec       q    Type
REMARK                         _______ _______ _______ _____ _____    ______ ____
ROOT
ATOM      1  N   UNL     1      -0.246  11.597  18.497  0.00  0.00    +0.000 N 
ATOM      2  C   UNL     1       0.545  10.758  19.430  0.00  0.00    +0.000 C 
ATOM      3  C   UNL     1       0.142  11.319  20.761  0.00  0.00    +0.000 A 
ATOM      4  C   UNL     1      -0.186  12.659  20.561  0.00  0.00    +0.000 A 
ATOM      5  C   UNL     1      -0.809  13.439  21.521  0.00  0.00    +0.000 A 
ATOM      6  C   UNL     1      -1.177  12.852  22.737  0.00  0.00    +0.000 A 
ATOM      7  C   UNL     1      -0.813  11.497  22.941  0.00  0.00    +0.000 A 
ATOM      8  C   UNL     1      -0.165  10.702  21.963  0.00  0.00    +0.000 A 
ATOM      9  C   UNL     1      -0.276  12.884  19.099  0.00  0.00    +0.000 C 
ATOM     10  O   UNL     1      -0.546  13.954  18.584  0.00  0.00    +0.000 OA
ENDROOT
BRANCH   1  15
ATOM     11  C   UNL     1      -3.902  11.556  18.038  0.00  0.00    +0.000 A 
ATOM     12  C   UNL     1      -3.930  10.801  16.859  0.00  0.00    +0.000 A 
ATOM     13  C   UNL     1      -2.861   9.984  16.509  0.00  0.00    +0.000 A 
ATOM     14  C   UNL     1      -1.693  10.013  17.262  0.00  0.00    +0.000 A 
ATOM     15  C   UNL     1      -1.549  10.981  18.265  0.00  0.00    +0.000 A 
ATOM     16  C   UNL     1      -2.686  11.662  18.723  0.00  0.00    +0.000 A 
BRANCH  11  17
ATOM     17  N   UNL     1      -5.040  12.315  18.382  0.00  0.00    +0.000 N 
ATOM     18  H   UNL     1      -5.873  11.751  18.212  0.00  0.00    +0.000 HD
BRANCH  17  19
ATOM     19  C   UNL     1      -5.051  12.791  19.768  0.00  0.00    +0.000 C 
BRANCH  19  25
ATOM     20  C   UNL     1      -6.959  14.425  21.632  0.00  0.00    +0.000 C 
ATOM     21  N   UNL     1      -7.001  13.006  21.402  0.00  0.00    +0.000 N 
ATOM     22  C   UNL     1      -7.878  12.127  21.960  0.00  0.00    +0.000 A 
ATOM     23  N   UNL     1      -7.635  10.921  21.512  0.00  0.00    +0.000 NA
ATOM     24  N   UNL     1      -6.574  11.001  20.650  0.00  0.00    +0.000 NA
ATOM     25  C   UNL     1      -6.183  12.262  20.585  0.00  0.00    +0.000 A 
ENDBRANCH  19  25
ENDBRANCH  17  19
ENDBRANCH  11  17
ENDBRANCH   1  15
BRANCH   6  26
ATOM     26  N   UNL     1      -1.900  13.546  23.677  0.00  0.00    +0.000 N 
ATOM     27  C   UNL     1      -1.544  14.871  24.178  0.00  0.00    +0.000 C 
ATOM     28  C   UNL     1      -2.669  15.167  25.184  0.00  0.00    +0.000 C 
ATOM     29  N   UNL     1      -3.887  14.528  24.634  0.00  0.00    +0.000 NA
ATOM     30  C   UNL     1      -3.319  13.362  23.937  0.00  0.00    +0.000 C 
ATOM     31  H   UNL     1      -4.253  15.144  23.909  0.00  0.00    +0.000 HD
ENDBRANCH   6  26
BRANCH   8  32
ATOM     32  C   UNL     1       0.017   9.229  22.221  0.00  0.00    +0.000 C 
ATOM     33  F   UNL     1       1.276   8.770  21.993  0.00  0.00    +0.000 F 
ATOM     34  F   UNL     1      -0.268   8.894  23.510  0.00  0.00    +0.000 F 
ATOM     35  F   UNL     1      -0.804   8.462  21.448  0.00  0.00    +0.000 F 
ENDBRANCH   8  32
TORSDOF 6
ENDMDL
MODEL 8
REMARK VINA RESULT:      -8.1      7.539     10.927
REMARK  Name = 
REMARK  7 active torsions:
REMARK  status: ('A' for Active; 'I' for Inactive)
REMARK    1  A    between atoms: C_1  and  N_2
REMARK    2  A    between atoms: C_6  and  C_7
REMARK    3  A    between atoms: C_7  and  N_8
REMARK    4  A    between atoms: N_8  and  C_9
REMARK    5  A    between atoms: C_13  and  N_14
REMARK    6  A    between atoms: C_19  and  N_20
REMARK    7  A    between atoms: C_26  and  C_27
REMARK                            x       y       z     vdW  Elec       q    Type
REMARK                         _______ _______ _______ _____ _____    ______ ____
ROOT
ATOM      1  N   UNL     1       4.158   4.753  19.192  0.00  0.00    +0.000 N 
ATOM      2  C   UNL     1       5.504   5.345  19.393  0.00  0.00    +0.000 C 
ATOM      3  C   UNL     1       6.114   5.183  18.033  0.00  0.00    +0.000 A 
ATOM      4  C   UNL     1       5.526   4.062  17.448  0.00  0.00    +0.000 A 
ATOM      5  C   UNL     1       5.685   3.733  16.112  0.00  0.00    +0.000 A 
ATOM      6  C   UNL     1       6.426   4.586  15.286  0.00  0.00    +0.000 A 
ATOM      7  C   UNL     1       7.042   5.707  15.897  0.00  0.00    +0.000 A 
ATOM      8  C   UNL     1       6.890   6.038  17.267  0.00  0.00    +0.000 A 
ATOM      9  C   UNL     1       4.363   3.681  18.282  0.00  0.00    +0.000 C 
ATOM     10  O   UNL     1       3.629   2.737  18.048  0.00  0.00    +0.000 OA
ENDROOT
BRANCH   1  15
ATOM     11  C   UNL     1       2.080   7.776  19.546  0.00  0.00    +0.000 A 
ATOM     12  C   UNL     1       2.542   8.450  18.409  0.00  0.00    +0.000 A 
ATOM     13  C   UNL     1       3.144   7.757  17.364  0.00  0.00    +0.000 A 
ATOM     14  C   UNL     1       3.415   6.401  17.500  0.00  0.00    +0.000 A 
ATOM     15  C   UNL     1       3.228   5.786  18.746  0.00  0.00    +0.000 A 
ATOM     16  C   UNL     1       2.458   6.439  19.718  0.00  0.00    +0.000 A 
BRANCH  11  17
ATOM     17  N   UNL     1       1.415   8.516  20.547  0.00  0.00    +0.000 N 
ATOM     18  H   UNL     1       2.101   9.086  21.041  0.00  0.00    +0.000 HD
BRANCH  17  19
ATOM     19  C   UNL     1       0.340   9.377  20.044  0.00  0.00    +0.000 C 
BRANCH  19  25
ATOM     20  C   UNL     1      -0.833  11.847  18.527  0.00  0.00    +0.000 C 
ATOM     21  N   UNL     1      -0.035  11.882  19.723  0.00  0.00    +0.000 N 
ATOM     22  C   UNL     1       0.350  12.998  20.400  0.00  0.00    +0.000 A 
ATOM     23  N   UNL     1       1.052  12.653  21.450  0.00  0.00    +0.000 NA
ATOM     24  N   UNL     1       1.141  11.287  21.464  0.00  0.00    +0.000 NA
ATOM     25  C   UNL     1       0.488  10.815  20.415  0.00  0.00    +0.000 A 
ENDBRANCH  19  25
ENDBRANCH  17  19
ENDBRANCH  11  17
ENDBRANCH   1  15
BRANCH   6  26
ATOM     26  N   UNL     1       6.517   4.370  13.933  0.00  0.00    +0.000 N 
ATOM     27  C   UNL     1       7.603   4.865  13.091  0.00  0.00    +0.000 C 
ATOM     28  C   UNL     1       7.215   4.344  11.696  0.00  0.00    +0.000 C 
ATOM     29  N   UNL     1       6.548   3.040  11.919  0.00  0.00    +0.000 NA
ATOM     30  C   UNL     1       5.906   3.256  13.226  0.00  0.00    +0.000 C 
ATOM     31  H   UNL     1       7.280   2.347  12.070  0.00  0.00    +0.000 HD
ENDBRANCH   6  26
BRANCH   8  32
ATOM     32  C   UNL     1       7.445   7.345  17.768  0.00  0.00    +0.000 C 
ATOM     33  F   UNL     1       8.161   7.247  18.920  0.00  0.00    +0.000 F 
ATOM     34  F   UNL     1       8.280   7.930  16.866  0.00  0.00    +0.000 F 
ATOM     35  F   UNL     1       6.467   8.262  18.018  0.00  0.00    +0.000 F 
ENDBRANCH   8  32
TORSDOF 6
ENDMDL
MODEL 9
REMARK VINA RESULT:      -8.0      9.051     12.227
REMARK  Name = 
REMARK  7 active torsions:
REMARK  status: ('A' for Active; 'I' for Inactive)
REMARK    1  A    between atoms: C_1  and  N_2
REMARK    2  A    between atoms: C_6  and  C_7
REMARK    3  A    between atoms: C_7  and  N_8
REMARK    4  A    between atoms: N_8  and  C_9
REMARK    5  A    between atoms: C_13  and  N_14
REMARK    6  A    between atoms: C_19  and  N_20
REMARK    7  A    between atoms: C_26  and  C_27
REMARK                            x       y       z     vdW  Elec       q    Type
REMARK                         _______ _______ _______ _____ _____    ______ ____
ROOT
ATOM      1  N   UNL     1       6.105   5.389  15.609  0.00  0.00    +0.000 N 
ATOM      2  C   UNL     1       4.976   6.352  15.638  0.00  0.00    +0.000 C 
ATOM      3  C   UNL     1       4.103   5.766  16.706  0.00  0.00    +0.000 A 
ATOM      4  C   UNL     1       4.320   4.389  16.707  0.00  0.00    +0.000 A 
ATOM      5  C   UNL     1       3.850   3.547  17.701  0.00  0.00    +0.000 A 
ATOM      6  C   UNL     1       3.165   4.099  18.790  0.00  0.00    +0.000 A 
ATOM      7  C   UNL     1       2.925   5.497  18.765  0.00  0.00    +0.000 A 
ATOM      8  C   UNL     1       3.397   6.356  17.742  0.00  0.00    +0.000 A 
ATOM      9  C   UNL     1       5.512   4.124  15.867  0.00  0.00    +0.000 C 
ATOM     10  O   UNL     1       5.971   3.015  15.658  0.00  0.00    +0.000 OA
ENDROOT
BRANCH   1  15
ATOM     11  C   UNL     1       7.844   7.740  17.851  0.00  0.00    +0.000 A 
ATOM     12  C   UNL     1       7.887   6.916  18.983  0.00  0.00    +0.000 A 
ATOM     13  C   UNL     1       7.769   5.534  18.865  0.00  0.00    +0.000 A 
ATOM     14  C   UNL     1       7.471   4.970  17.630  0.00  0.00    +0.000 A 
ATOM     15  C   UNL     1       7.132   5.806  16.557  0.00  0.00    +0.000 A 
ATOM     16  C   UNL     1       7.434   7.173  16.639  0.00  0.00    +0.000 A 
BRANCH  11  17
ATOM     17  N   UNL     1       8.038   9.127  18.019  0.00  0.00    +0.000 N 
ATOM     18  H   UNL     1       7.157   9.547  18.314  0.00  0.00    +0.000 HD
BRANCH  17  19
ATOM     19  C   UNL     1       9.088   9.477  18.979  0.00  0.00    +0.000 C 
BRANCH  19  25
ATOM     20  C   UNL     1       9.120  11.615  21.262  0.00  0.00    +0.000 C 
ATOM     21  N   UNL     1       9.551  11.811  19.904  0.00  0.00    +0.000 N 
ATOM     22  C   UNL     1      10.045  12.965  19.376  0.00  0.00    +0.000 A 
ATOM     23  N   UNL     1      10.352  12.774  18.118  0.00  0.00    +0.000 NA
ATOM     24  N   UNL     1      10.047  11.477  17.804  0.00  0.00    +0.000 NA
ATOM     25  C   UNL     1       9.556  10.891  18.882  0.00  0.00    +0.000 A 
ENDBRANCH  19  25
ENDBRANCH  17  19
ENDBRANCH  11  17
ENDBRANCH   1  15
BRANCH   6  26
ATOM     26  N   UNL     1       2.780   3.328  19.859  0.00  0.00    +0.000 N 
ATOM     27  C   UNL     1       3.692   2.522  20.666  0.00  0.00    +0.000 C 
ATOM     28  C   UNL     1       2.752   1.883  21.704  0.00  0.00    +0.000 C 
ATOM     29  N   UNL     1       1.697   2.887  21.971  0.00  0.00    +0.000 NA
ATOM     30  C   UNL     1       1.592   3.560  20.666  0.00  0.00    +0.000 C 
ATOM     31  H   UNL     1       2.086   3.573  22.616  0.00  0.00    +0.000 HD
ENDBRANCH   6  26
BRANCH   8  32
ATOM     32  C   UNL     1       3.234   7.845  17.906  0.00  0.00    +0.000 C 
ATOM     33  F   UNL     1       4.400   8.545  17.870  0.00  0.00    +0.000 F 
ATOM     34  F   UNL     1       2.450   8.388  16.934  0.00  0.00    +0.000 F 
ATOM     35  F   UNL     1       2.641   8.174  19.089  0.00  0.00    +0.000 F 
ENDBRANCH   8  32
TORSDOF 6
ENDMDL
