MODEL 1
REMARK VINA RESULT:      -9.0      0.000      0.000
REMARK  Name = 
REMARK  5 active torsions:
REMARK  status: ('A' for Active; 'I' for Inactive)
REMARK    1  A    between atoms: C_1  and  N_2
REMARK    2  A    between atoms: C_8  and  S_9
REMARK    3  A    between atoms: S_9  and  N_12
REMARK    4  A    between atoms: C_15  and  C_16
REMARK    5  A    between atoms: N_20  and  C_21
REMARK                            x       y       z     vdW  Elec       q    Type
REMARK                         _______ _______ _______ _____ _____    ______ ____
ROOT
ATOM      1  S   UNL     1       4.171   5.520  18.303  0.00  0.00    +0.000 S 
ATOM      2  O   UNL     1       4.192   4.672  19.483  0.00  0.00    +0.000 OA
ATOM      3  O   UNL     1       3.890   4.927  17.016  0.00  0.00    +0.000 OA
ENDROOT
BRANCH   1  11
ATOM      4  C   UNL     1       0.027  11.160  19.179  0.00  0.00    +0.000 C 
ATOM      5  N   UNL     1       0.568  10.017  19.869  0.00  0.00    +0.000 N 
ATOM      6  C   UNL     1       0.338   9.756  21.224  0.00  0.00    +0.000 C 
ATOM      7  O   UNL     1      -0.317  10.431  22.006  0.00  0.00    +0.000 OA
ATOM      8  C   UNL     1       1.067   8.453  21.564  0.00  0.00    +0.000 C 
ATOM      9  C   UNL     1       1.622   8.018  20.236  0.00  0.00    +0.000 A 
ATOM     10  C   UNL     1       2.367   6.870  19.930  0.00  0.00    +0.000 A 
ATOM     11  C   UNL     1       2.837   6.709  18.613  0.00  0.00    +0.000 A 
ATOM     12  C   UNL     1       2.585   7.738  17.669  0.00  0.00    +0.000 A 
ATOM     13  C   UNL     1       1.826   8.886  17.995  0.00  0.00    +0.000 A 
ATOM     14  C   UNL     1       1.338   8.997  19.283  0.00  0.00    +0.000 A 
ENDBRANCH   1  11
BRANCH   1  15
ATOM     15  N   UNL     1       5.704   6.247  18.260  0.00  0.00    +0.000 NA
ATOM     16  C   UNL     1       6.244   7.186  17.232  0.00  0.00    +0.000 C 
ATOM     17  C   UNL     1       6.276   6.500  15.893  0.00  0.00    +0.000 C 
ATOM     18  C   UNL     1       6.718   5.228  15.781  0.00  0.00    +0.000 C 
ATOM     19  C   UNL     1       7.131   4.502  17.063  0.00  0.00    +0.000 C 
ATOM     20  C   UNL     1       6.851   5.273  18.398  0.00  0.00    +0.000 C 
ATOM     21  C   UNL     1       7.968   6.266  18.714  0.00  0.00    +0.000 C 
ATOM     22  C   UNL     1       7.738   7.370  17.682  0.00  0.00    +0.000 C 
BRANCH  18  23
ATOM     23  C   UNL     1       6.505   4.597  14.524  0.00  0.00    +0.000 A 
ATOM     24  C   UNL     1       5.543   3.686  14.134  0.00  0.00    +0.000 A 
ATOM     25  C   UNL     1       5.777   3.462  12.771  0.00  0.00    +0.000 A 
ATOM     26  N   UNL     1       6.830   4.145  12.319  0.00  0.00    +0.000 NA
ATOM     27  N   UNL     1       7.274   4.821  13.403  0.00  0.00    +0.000 N 
ATOM     28  C   UNL     1       8.443   5.654  13.256  0.00  0.00    +0.000 C 
ENDBRANCH  18  23
ENDBRANCH   1  15
TORSDOF 3
ENDMDL
MODEL 2
REMARK VINA RESULT:      -8.4      3.939      8.795
REMARK  Name = 
REMARK  5 active torsions:
REMARK  status: ('A' for Active; 'I' for Inactive)
REMARK    1  A    between atoms: C_1  and  N_2
REMARK    2  A    between atoms: C_8  and  S_9
REMARK    3  A    between atoms: S_9  and  N_12
REMARK    4  A    between atoms: C_15  and  C_16
REMARK    5  A    between atoms: N_20  and  C_21
REMARK                            x       y       z     vdW  Elec       q    Type
REMARK                         _______ _______ _______ _____ _____    ______ ____
ROOT
ATOM      1  S   UNL     1       1.515   9.637  18.235  0.00  0.00    +0.000 S 
ATOM      2  O   UNL     1       2.524  10.472  17.606  0.00  0.00    +0.000 OA
ATOM      3  O   UNL     1       0.363   9.225  17.466  0.00  0.00    +0.000 OA
ENDROOT
BRANCH   1  11
ATOM      4  C   UNL     1       4.380   3.208  18.693  0.00  0.00    +0.000 C 
ATOM      5  N   UNL     1       3.472   4.108  19.357  0.00  0.00    +0.000 N 
ATOM      6  C   UNL     1       2.769   3.774  20.519  0.00  0.00    +0.000 C 
ATOM      7  O   UNL     1       2.800   2.709  21.121  0.00  0.00    +0.000 OA
ATOM      8  C   UNL     1       1.934   4.996  20.911  0.00  0.00    +0.000 C 
ATOM      9  C   UNL     1       2.341   6.025  19.892  0.00  0.00    +0.000 A 
ATOM     10  C   UNL     1       1.915   7.356  19.771  0.00  0.00    +0.000 A 
ATOM     11  C   UNL     1       2.391   8.115  18.686  0.00  0.00    +0.000 A 
ATOM     12  C   UNL     1       3.235   7.486  17.733  0.00  0.00    +0.000 A 
ATOM     13  C   UNL     1       3.659   6.144  17.876  0.00  0.00    +0.000 A 
ATOM     14  C   UNL     1       3.212   5.436  18.975  0.00  0.00    +0.000 A 
ENDBRANCH   1  11
BRANCH   1  15
ATOM     15  N   UNL     1       0.996  10.522  19.587  0.00  0.00    +0.000 NA
ATOM     16  C   UNL     1      -0.225  10.296  20.417  0.00  0.00    +0.000 C 
ATOM     17  C   UNL     1      -1.451  10.447  19.557  0.00  0.00    +0.000 C 
ATOM     18  C   UNL     1      -1.552  11.464  18.673  0.00  0.00    +0.000 C 
ATOM     19  C   UNL     1      -0.360  12.416  18.544  0.00  0.00    +0.000 C 
ATOM     20  C   UNL     1       0.919  12.013  19.354  0.00  0.00    +0.000 C 
ATOM     21  C   UNL     1       0.829  12.476  20.806  0.00  0.00    +0.000 C 
ATOM     22  C   UNL     1      -0.208  11.521  21.399  0.00  0.00    +0.000 C 
BRANCH  18  23
ATOM     23  C   UNL     1      -2.639  11.397  17.758  0.00  0.00    +0.000 A 
ATOM     24  C   UNL     1      -2.672  10.994  16.438  0.00  0.00    +0.000 A 
ATOM     25  C   UNL     1      -4.019  11.073  16.060  0.00  0.00    +0.000 A 
ATOM     26  N   UNL     1      -4.795  11.526  17.046  0.00  0.00    +0.000 NA
ATOM     27  N   UNL     1      -3.939  11.733  18.071  0.00  0.00    +0.000 N 
ATOM     28  C   UNL     1      -4.467  12.258  19.307  0.00  0.00    +0.000 C 
ENDBRANCH  18  23
ENDBRANCH   1  15
TORSDOF 3
ENDMDL
MODEL 3
REMARK VINA RESULT:      -8.1      2.124      3.387
REMARK  Name = 
REMARK  5 active torsions:
REMARK  status: ('A' for Active; 'I' for Inactive)
REMARK    1  A    between atoms: C_1  and  N_2
REMARK    2  A    between atoms: C_8  and  S_9
REMARK    3  A    between atoms: S_9  and  N_12
REMARK    4  A    between atoms: C_15  and  C_16
REMARK    5  A    between atoms: N_20  and  C_21
REMARK                            x       y       z     vdW  Elec       q    Type
REMARK                         _______ _______ _______ _____ _____    ______ ____
ROOT
ATOM      1  S   UNL     1       2.578   6.966  18.288  0.00  0.00    +0.000 S 
ATOM      2  O   UNL     1       1.492   6.706  17.359  0.00  0.00    +0.000 OA
ATOM      3  O   UNL     1       3.816   7.518  17.787  0.00  0.00    +0.000 OA
ENDROOT
BRANCH   1  11
ATOM      4  C   UNL     1      -1.030  10.674  23.082  0.00  0.00    +0.000 C 
ATOM      5  N   UNL     1      -0.616  10.681  21.703  0.00  0.00    +0.000 N 
ATOM      6  C   UNL     1      -0.978  11.682  20.796  0.00  0.00    +0.000 C 
ATOM      7  O   UNL     1      -1.682  12.658  21.014  0.00  0.00    +0.000 OA
ATOM      8  C   UNL     1      -0.329  11.332  19.453  0.00  0.00    +0.000 C 
ATOM      9  C   UNL     1       0.477  10.103  19.775  0.00  0.00    +0.000 A 
ATOM     10  C   UNL     1       1.305   9.351  18.931  0.00  0.00    +0.000 A 
ATOM     11  C   UNL     1       1.911   8.191  19.447  0.00  0.00    +0.000 A 
ATOM     12  C   UNL     1       1.614   7.803  20.780  0.00  0.00    +0.000 A 
ATOM     13  C   UNL     1       0.781   8.579  21.619  0.00  0.00    +0.000 A 
ATOM     14  C   UNL     1       0.235   9.737  21.100  0.00  0.00    +0.000 A 
ENDBRANCH   1  11
BRANCH   1  15
ATOM     15  N   UNL     1       2.892   5.468  19.023  0.00  0.00    +0.000 NA
ATOM     16  C   UNL     1       4.193   4.964  19.555  0.00  0.00    +0.000 C 
ATOM     17  C   UNL     1       5.197   4.887  18.437  0.00  0.00    +0.000 C 
ATOM     18  C   UNL     1       4.850   4.386  17.231  0.00  0.00    +0.000 C 
ATOM     19  C   UNL     1       3.396   3.951  17.034  0.00  0.00    +0.000 C 
ATOM     20  C   UNL     1       2.424   4.278  18.218  0.00  0.00    +0.000 C 
ATOM     21  C   UNL     1       2.495   3.212  19.310  0.00  0.00    +0.000 C 
ATOM     22  C   UNL     1       3.852   3.484  19.958  0.00  0.00    +0.000 C 
BRANCH  18  23
ATOM     23  C   UNL     1       5.795   4.558  16.182  0.00  0.00    +0.000 A 
ATOM     24  C   UNL     1       5.937   3.879  14.988  0.00  0.00    +0.000 A 
ATOM     25  C   UNL     1       6.991   4.519  14.323  0.00  0.00    +0.000 A 
ATOM     26  N   UNL     1       7.517   5.511  15.043  0.00  0.00    +0.000 NA
ATOM     27  N   UNL     1       6.787   5.515  16.181  0.00  0.00    +0.000 N 
ATOM     28  C   UNL     1       7.124   6.474  17.205  0.00  0.00    +0.000 C 
ENDBRANCH  18  23
ENDBRANCH   1  15
TORSDOF 3
ENDMDL
MODEL 4
REMARK VINA RESULT:      -7.8      2.755      3.938
REMARK  Name = 
REMARK  5 active torsions:
REMARK  status: ('A' for Active; 'I' for Inactive)
REMARK    1  A    between atoms: C_1  and  N_2
REMARK    2  A    between atoms: C_8  and  S_9
REMARK    3  A    between atoms: S_9  and  N_12
REMARK    4  A    between atoms: C_15  and  C_16
REMARK    5  A    between atoms: N_20  and  C_21
REMARK                            x       y       z     vdW  Elec       q    Type
REMARK                         _______ _______ _______ _____ _____    ______ ____
ROOT
ATOM      1  S   UNL     1       1.430   3.814  18.888  0.00  0.00    +0.000 S 
ATOM      2  O   UNL     1       0.311   3.413  19.724  0.00  0.00    +0.000 OA
ATOM      3  O   UNL     1       1.275   3.798  17.451  0.00  0.00    +0.000 OA
ENDROOT
BRANCH   1  11
ATOM      4  C   UNL     1       1.246  10.515  21.081  0.00  0.00    +0.000 C 
ATOM      5  N   UNL     1       1.483   9.695  19.921  0.00  0.00    +0.000 N 
ATOM      6  C   UNL     1       1.768  10.217  18.655  0.00  0.00    +0.000 C 
ATOM      7  O   UNL     1       1.844  11.397  18.341  0.00  0.00    +0.000 OA
ATOM      8  C   UNL     1       1.968   9.028  17.710  0.00  0.00    +0.000 C 
ATOM      9  C   UNL     1       1.849   7.842  18.627  0.00  0.00    +0.000 A 
ATOM     10  C   UNL     1       1.970   6.479  18.319  0.00  0.00    +0.000 A 
ATOM     11  C   UNL     1       1.750   5.540  19.342  0.00  0.00    +0.000 A 
ATOM     12  C   UNL     1       1.363   6.008  20.625  0.00  0.00    +0.000 A 
ATOM     13  C   UNL     1       1.253   7.388  20.919  0.00  0.00    +0.000 A 
ATOM     14  C   UNL     1       1.517   8.289  19.906  0.00  0.00    +0.000 A 
ENDBRANCH   1  11
BRANCH   1  15
ATOM     15  N   UNL     1       2.697   2.772  19.324  0.00  0.00    +0.000 NA
ATOM     16  C   UNL     1       3.942   3.109  20.077  0.00  0.00    +0.000 C 
ATOM     17  C   UNL     1       4.736   4.128  19.305  0.00  0.00    +0.000 C 
ATOM     18  C   UNL     1       4.901   4.004  17.969  0.00  0.00    +0.000 C 
ATOM     19  C   UNL     1       4.214   2.828  17.273  0.00  0.00    +0.000 C 
ATOM     20  C   UNL     1       3.260   1.971  18.173  0.00  0.00    +0.000 C 
ATOM     21  C   UNL     1       4.034   0.923  18.969  0.00  0.00    +0.000 C 
ATOM     22  C   UNL     1       4.755   1.766  20.021  0.00  0.00    +0.000 C 
BRANCH  18  23
ATOM     23  C   UNL     1       5.473   5.121  17.300  0.00  0.00    +0.000 A 
ATOM     24  C   UNL     1       4.870   6.146  16.597  0.00  0.00    +0.000 A 
ATOM     25  C   UNL     1       5.914   6.998  16.216  0.00  0.00    +0.000 A 
ATOM     26  N   UNL     1       7.106   6.545  16.608  0.00  0.00    +0.000 NA
ATOM     27  N   UNL     1       6.824   5.392  17.256  0.00  0.00    +0.000 N 
ATOM     28  C   UNL     1       7.921   4.624  17.793  0.00  0.00    +0.000 C 
ENDBRANCH  18  23
ENDBRANCH   1  15
TORSDOF 3
ENDMDL
MODEL 5
REMARK VINA RESULT:      -7.8      4.001      9.793
REMARK  Name = 
REMARK  5 active torsions:
REMARK  status: ('A' for Active; 'I' for Inactive)
REMARK    1  A    between atoms: C_1  and  N_2
REMARK    2  A    between atoms: C_8  and  S_9
REMARK    3  A    between atoms: S_9  and  N_12
REMARK    4  A    between atoms: C_15  and  C_16
REMARK    5  A    between atoms: N_20  and  C_21
REMARK                            x       y       z     vdW  Elec       q    Type
REMARK                         _______ _______ _______ _____ _____    ______ ____
ROOT
ATOM      1  S   UNL     1       0.904   9.154  21.230  0.00  0.00    +0.000 S 
ATOM      2  O   UNL     1      -0.511   8.824  21.228  0.00  0.00    +0.000 OA
ATOM      3  O   UNL     1       1.569   9.395  22.490  0.00  0.00    +0.000 OA
ENDROOT
BRANCH   1  11
ATOM      4  C   UNL     1       3.182   3.817  17.220  0.00  0.00    +0.000 C 
ATOM      5  N   UNL     1       2.549   4.116  18.479  0.00  0.00    +0.000 N 
ATOM      6  C   UNL     1       2.119   3.133  19.376  0.00  0.00    +0.000 C 
ATOM      7  O   UNL     1       2.194   1.920  19.236  0.00  0.00    +0.000 OA
ATOM      8  C   UNL     1       1.520   3.855  20.587  0.00  0.00    +0.000 C 
ATOM      9  C   UNL     1       1.764   5.305  20.270  0.00  0.00    +0.000 A 
ATOM     10  C   UNL     1       1.448   6.436  21.038  0.00  0.00    +0.000 A 
ATOM     11  C   UNL     1       1.717   7.707  20.499  0.00  0.00    +0.000 A 
ATOM     12  C   UNL     1       2.244   7.792  19.184  0.00  0.00    +0.000 A 
ATOM     13  C   UNL     1       2.563   6.640  18.427  0.00  0.00    +0.000 A 
ATOM     14  C   UNL     1       2.330   5.403  18.999  0.00  0.00    +0.000 A 
ENDBRANCH   1  11
BRANCH   1  15
ATOM     15  N   UNL     1       1.030  10.541  20.258  0.00  0.00    +0.000 NA
ATOM     16  C   UNL     1       1.189  11.958  20.700  0.00  0.00    +0.000 C 
ATOM     17  C   UNL     1      -0.001  12.363  21.527  0.00  0.00    +0.000 C 
ATOM     18  C   UNL     1      -1.253  12.030  21.141  0.00  0.00    +0.000 C 
ATOM     19  C   UNL     1      -1.407  11.190  19.872  0.00  0.00    +0.000 C 
ATOM     20  C   UNL     1      -0.073  10.676  19.234  0.00  0.00    +0.000 C 
ATOM     21  C   UNL     1       0.565  11.737  18.339  0.00  0.00    +0.000 C 
ATOM     22  C   UNL     1       1.094  12.755  19.350  0.00  0.00    +0.000 C 
BRANCH  18  23
ATOM     23  C   UNL     1      -2.286  12.262  22.091  0.00  0.00    +0.000 A 
ATOM     24  C   UNL     1      -2.408  11.839  23.400  0.00  0.00    +0.000 A 
ATOM     25  C   UNL     1      -3.593  12.421  23.869  0.00  0.00    +0.000 A 
ATOM     26  N   UNL     1      -4.213  13.136  22.928  0.00  0.00    +0.000 NA
ATOM     27  N   UNL     1      -3.412  13.019  21.844  0.00  0.00    +0.000 N 
ATOM     28  C   UNL     1      -3.818  13.668  20.622  0.00  0.00    +0.000 C 
ENDBRANCH  18  23
ENDBRANCH   1  15
TORSDOF 3
ENDMDL
MODEL 6
REMARK VINA RESULT:      -7.7      0.631      1.147
REMARK  Name = 
REMARK  5 active torsions:
REMARK  status: ('A' for Active; 'I' for Inactive)
REMARK    1  A    between atoms: C_1  and  N_2
REMARK    2  A    between atoms: C_8  and  S_9
REMARK    3  A    between atoms: S_9  and  N_12
REMARK    4  A    between atoms: C_15  and  C_16
REMARK    5  A    between atoms: N_20  and  C_21
REMARK                            x       y       z     vdW  Elec       q    Type
REMARK                         _______ _______ _______ _____ _____    ______ ____
ROOT
ATOM      1  S   UNL     1       4.239   5.494  18.135  0.00  0.00    +0.000 S 
ATOM      2  O   UNL     1       4.061   4.479  19.158  0.00  0.00    +0.000 OA
ATOM      3  O   UNL     1       4.100   5.124  16.745  0.00  0.00    +0.000 OA
ENDROOT
BRANCH   1  11
ATOM      4  C   UNL     1       0.278  11.233  19.192  0.00  0.00    +0.000 C 
ATOM      5  N   UNL     1       0.746  10.030  19.831  0.00  0.00    +0.000 N 
ATOM      6  C   UNL     1       0.448   9.697  21.156  0.00  0.00    +0.000 C 
ATOM      7  O   UNL     1      -0.214  10.349  21.952  0.00  0.00    +0.000 OA
ATOM      8  C   UNL     1       1.113   8.347  21.444  0.00  0.00    +0.000 C 
ATOM      9  C   UNL     1       1.707   7.971  20.114  0.00  0.00    +0.000 A 
ATOM     10  C   UNL     1       2.420   6.815  19.768  0.00  0.00    +0.000 A 
ATOM     11  C   UNL     1       2.940   6.715  18.464  0.00  0.00    +0.000 A 
ATOM     12  C   UNL     1       2.767   7.809  17.576  0.00  0.00    +0.000 A 
ATOM     13  C   UNL     1       2.038   8.965  17.942  0.00  0.00    +0.000 A 
ATOM     14  C   UNL     1       1.501   9.017  19.214  0.00  0.00    +0.000 A 
ENDBRANCH   1  11
BRANCH   1  15
ATOM     15  N   UNL     1       5.801   6.108  18.395  0.00  0.00    +0.000 NA
ATOM     16  C   UNL     1       6.529   7.133  17.589  0.00  0.00    +0.000 C 
ATOM     17  C   UNL     1       6.711   6.628  16.183  0.00  0.00    +0.000 C 
ATOM     18  C   UNL     1       7.095   5.353  15.952  0.00  0.00    +0.000 C 
ATOM     19  C   UNL     1       7.285   4.437  17.163  0.00  0.00    +0.000 C 
ATOM     20  C   UNL     1       6.863   5.044  18.544  0.00  0.00    +0.000 C 
ATOM     21  C   UNL     1       7.976   5.903  19.141  0.00  0.00    +0.000 C 
ATOM     22  C   UNL     1       7.952   7.147  18.252  0.00  0.00    +0.000 C 
BRANCH  18  23
ATOM     23  C   UNL     1       7.026   4.910  14.603  0.00  0.00    +0.000 A 
ATOM     24  C   UNL     1       7.731   5.323  13.490  0.00  0.00    +0.000 A 
ATOM     25  C   UNL     1       7.297   4.493  12.448  0.00  0.00    +0.000 A 
ATOM     26  N   UNL     1       6.357   3.633  12.843  0.00  0.00    +0.000 NA
ATOM     27  N   UNL     1       6.191   3.908  14.157  0.00  0.00    +0.000 N 
ATOM     28  C   UNL     1       5.204   3.154  14.892  0.00  0.00    +0.000 C 
ENDBRANCH  18  23
ENDBRANCH   1  15
TORSDOF 3
ENDMDL
MODEL 7
REMARK VINA RESULT:      -7.7      2.085      7.828
REMARK  Name = 
REMARK  5 active torsions:
REMARK  status: ('A' for Active; 'I' for Inactive)
REMARK    1  A    between atoms: C_1  and  N_2
REMARK    2  A    between atoms: C_8  and  S_9
REMARK    3  A    between atoms: S_9  and  N_12
REMARK    4  A    between atoms: C_15  and  C_16
REMARK    5  A    between atoms: N_20  and  C_21
REMARK                            x       y       z     vdW  Elec       q    Type
REMARK                         _______ _______ _______ _____ _____    ______ ____
ROOT
ATOM      1  S   UNL     1       4.988   4.422  19.107  0.00  0.00    +0.000 S 
ATOM      2  O   UNL     1       5.634   3.441  19.962  0.00  0.00    +0.000 OA
ATOM      3  O   UNL     1       4.970   5.808  19.516  0.00  0.00    +0.000 OA
ENDROOT
BRANCH   1  11
ATOM      4  C   UNL     1       8.281   5.658  12.993  0.00  0.00    +0.000 C 
ATOM      5  N   UNL     1       7.230   4.875  13.591  0.00  0.00    +0.000 N 
ATOM      6  C   UNL     1       6.420   3.994  12.867  0.00  0.00    +0.000 C 
ATOM      7  O   UNL     1       6.462   3.769  11.666  0.00  0.00    +0.000 OA
ATOM      8  C   UNL     1       5.448   3.352  13.862  0.00  0.00    +0.000 C 
ATOM      9  C   UNL     1       5.892   3.917  15.183  0.00  0.00    +0.000 A 
ATOM     10  C   UNL     1       5.380   3.662  16.463  0.00  0.00    +0.000 A 
ATOM     11  C   UNL     1       5.922   4.367  17.554  0.00  0.00    +0.000 A 
ATOM     12  C   UNL     1       6.923   5.342  17.305  0.00  0.00    +0.000 A 
ATOM     13  C   UNL     1       7.432   5.580  16.007  0.00  0.00    +0.000 A 
ATOM     14  C   UNL     1       6.913   4.842  14.961  0.00  0.00    +0.000 A 
ENDBRANCH   1  11
BRANCH   1  15
ATOM     15  N   UNL     1       3.392   3.869  18.936  0.00  0.00    +0.000 NA
ATOM     16  C   UNL     1       2.435   4.163  17.829  0.00  0.00    +0.000 C 
ATOM     17  C   UNL     1       2.173   5.644  17.770  0.00  0.00    +0.000 C 
ATOM     18  C   UNL     1       1.960   6.351  18.902  0.00  0.00    +0.000 C 
ATOM     19  C   UNL     1       2.045   5.604  20.235  0.00  0.00    +0.000 C 
ATOM     20  C   UNL     1       2.523   4.115  20.147  0.00  0.00    +0.000 C 
ATOM     21  C   UNL     1       1.368   3.176  19.804  0.00  0.00    +0.000 C 
ATOM     22  C   UNL     1       1.107   3.490  18.330  0.00  0.00    +0.000 C 
BRANCH  18  23
ATOM     23  C   UNL     1       1.943   7.767  18.765  0.00  0.00    +0.000 A 
ATOM     24  C   UNL     1       2.341   8.568  17.713  0.00  0.00    +0.000 A 
ATOM     25  C   UNL     1       2.034   9.877  18.107  0.00  0.00    +0.000 A 
ATOM     26  N   UNL     1       1.511   9.926  19.334  0.00  0.00    +0.000 NA
ATOM     27  N   UNL     1       1.474   8.634  19.729  0.00  0.00    +0.000 N 
ATOM     28  C   UNL     1       0.975   8.338  21.050  0.00  0.00    +0.000 C 
ENDBRANCH  18  23
ENDBRANCH   1  15
TORSDOF 3
ENDMDL
MODEL 8
REMARK VINA RESULT:      -7.7      3.109      8.949
REMARK  Name = 
REMARK  5 active torsions:
REMARK  status: ('A' for Active; 'I' for Inactive)
REMARK    1  A    between atoms: C_1  and  N_2
REMARK    2  A    between atoms: C_8  and  S_9
REMARK    3  A    between atoms: S_9  and  N_12
REMARK    4  A    between atoms: C_15  and  C_16
REMARK    5  A    between atoms: N_20  and  C_21
REMARK                            x       y       z     vdW  Elec       q    Type
REMARK                         _______ _______ _______ _____ _____    ______ ____
ROOT
ATOM      1  S   UNL     1       1.534   9.449  18.002  0.00  0.00    +0.000 S 
ATOM      2  O   UNL     1       2.462  10.431  17.468  0.00  0.00    +0.000 OA
ATOM      3  O   UNL     1       0.336   9.137  17.257  0.00  0.00    +0.000 OA
ENDROOT
BRANCH   1  11
ATOM      4  C   UNL     1       5.421   3.673  16.868  0.00  0.00    +0.000 C 
ATOM      5  N   UNL     1       4.134   4.114  17.343  0.00  0.00    +0.000 N 
ATOM      6  C   UNL     1       3.123   3.238  17.750  0.00  0.00    +0.000 C 
ATOM      7  O   UNL     1       3.162   2.015  17.755  0.00  0.00    +0.000 OA
ATOM      8  C   UNL     1       1.934   4.094  18.194  0.00  0.00    +0.000 C 
ATOM      9  C   UNL     1       2.459   5.497  18.063  0.00  0.00    +0.000 A 
ATOM     10  C   UNL     1       1.812   6.707  18.356  0.00  0.00    +0.000 A 
ATOM     11  C   UNL     1       2.490   7.910  18.088  0.00  0.00    +0.000 A 
ATOM     12  C   UNL     1       3.772   7.849  17.482  0.00  0.00    +0.000 A 
ATOM     13  C   UNL     1       4.411   6.619  17.199  0.00  0.00    +0.000 A 
ATOM     14  C   UNL     1       3.741   5.452  17.514  0.00  0.00    +0.000 A 
ENDBRANCH   1  11
BRANCH   1  15
ATOM     15  N   UNL     1       1.102  10.042  19.533  0.00  0.00    +0.000 NA
ATOM     16  C   UNL     1      -0.082   9.664  20.361  0.00  0.00    +0.000 C 
ATOM     17  C   UNL     1      -1.344  10.006  19.616  0.00  0.00    +0.000 C 
ATOM     18  C   UNL     1      -1.464  11.185  18.967  0.00  0.00    +0.000 C 
ATOM     19  C   UNL     1      -0.258  12.127  18.975  0.00  0.00    +0.000 C 
ATOM     20  C   UNL     1       1.049  11.550  19.616  0.00  0.00    +0.000 C 
ATOM     21  C   UNL     1       1.041  11.702  21.135  0.00  0.00    +0.000 C 
ATOM     22  C   UNL     1       0.012  10.659  21.572  0.00  0.00    +0.000 C 
BRANCH  18  23
ATOM     23  C   UNL     1      -2.596  11.322  18.116  0.00  0.00    +0.000 A 
ATOM     24  C   UNL     1      -2.769  10.962  16.795  0.00  0.00    +0.000 A 
ATOM     25  C   UNL     1      -4.102  11.274  16.498  0.00  0.00    +0.000 A 
ATOM     26  N   UNL     1      -4.735  11.828  17.533  0.00  0.00    +0.000 NA
ATOM     27  N   UNL     1      -3.801  11.865  18.510  0.00  0.00    +0.000 N 
ATOM     28  C   UNL     1      -4.164  12.442  19.781  0.00  0.00    +0.000 C 
ENDBRANCH  18  23
ENDBRANCH   1  15
TORSDOF 3
ENDMDL
MODEL 9
REMARK VINA RESULT:      -7.6      3.548     10.431
REMARK  Name = 
REMARK  5 active torsions:
REMARK  status: ('A' for Active; 'I' for Inactive)
REMARK    1  A    between atoms: C_1  and  N_2
REMARK    2  A    between atoms: C_8  and  S_9
REMARK    3  A    between atoms: S_9  and  N_12
REMARK    4  A    between atoms: C_15  and  C_16
REMARK    5  A    between atoms: N_20  and  C_21
REMARK                            x       y       z     vdW  Elec       q    Type
REMARK                         _______ _______ _______ _____ _____    ______ ____
ROOT
ATOM      1  S   UNL     1      -0.101  10.270  20.099  0.00  0.00    +0.000 S 
ATOM      2  O   UNL     1      -1.162   9.979  19.150  0.00  0.00    +0.000 OA
ATOM      3  O   UNL     1      -0.339  10.056  21.508  0.00  0.00    +0.000 OA
ENDROOT
BRANCH   1  11
ATOM      4  C   UNL     1       4.305   5.642  17.111  0.00  0.00    +0.000 C 
ATOM      5  N   UNL     1       3.519   5.876  18.295  0.00  0.00    +0.000 N 
ATOM      6  C   UNL     1       3.432   4.966  19.353  0.00  0.00    +0.000 C 
ATOM      7  O   UNL     1       3.972   3.871  19.433  0.00  0.00    +0.000 OA
ATOM      8  C   UNL     1       2.521   5.590  20.415  0.00  0.00    +0.000 C 
ATOM      9  C   UNL     1       2.219   6.949  19.844  0.00  0.00    +0.000 A 
ATOM     10  C   UNL     1       1.445   7.980  20.397  0.00  0.00    +0.000 A 
ATOM     11  C   UNL     1       1.249   9.149  19.639  0.00  0.00    +0.000 A 
ATOM     12  C   UNL     1       1.795   9.213  18.331  0.00  0.00    +0.000 A 
ATOM     13  C   UNL     1       2.579   8.165  17.793  0.00  0.00    +0.000 A 
ATOM     14  C   UNL     1       2.792   7.047  18.576  0.00  0.00    +0.000 A 
ENDBRANCH   1  11
BRANCH   1  15
ATOM     15  N   UNL     1       0.282  11.903  19.838  0.00  0.00    +0.000 NA
ATOM     16  C   UNL     1       0.725  12.912  20.846  0.00  0.00    +0.000 C 
ATOM     17  C   UNL     1      -0.349  13.090  21.884  0.00  0.00    +0.000 C 
ATOM     18  C   UNL     1      -1.648  13.187  21.523  0.00  0.00    +0.000 C 
ATOM     19  C   UNL     1      -1.984  13.059  20.035  0.00  0.00    +0.000 C 
ATOM     20  C   UNL     1      -0.787  12.676  19.101  0.00  0.00    +0.000 C 
ATOM     21  C   UNL     1       0.035  13.903  18.711  0.00  0.00    +0.000 C 
ATOM     22  C   UNL     1       0.769  14.240  20.009  0.00  0.00    +0.000 C 
BRANCH  18  23
ATOM     23  C   UNL     1      -2.601  13.131  22.577  0.00  0.00    +0.000 A 
ATOM     24  C   UNL     1      -2.977  12.077  23.385  0.00  0.00    +0.000 A 
ATOM     25  C   UNL     1      -3.903  12.615  24.289  0.00  0.00    +0.000 A 
ATOM     26  N   UNL     1      -4.138  13.909  24.062  0.00  0.00    +0.000 NA
ATOM     27  N   UNL     1      -3.348  14.207  23.006  0.00  0.00    +0.000 N 
ATOM     28  C   UNL     1      -3.385  15.552  22.484  0.00  0.00    +0.000 C 
ENDBRANCH  18  23
ENDBRANCH   1  15
TORSDOF 3
ENDMDL
