MODEL 1
REMARK VINA RESULT:      -8.0      0.000      0.000
REMARK  Name = 
REMARK  6 active torsions:
REMARK  status: ('A' for Active; 'I' for Inactive)
REMARK    1  A    between atoms: C_1  and  C_2
REMARK    2  A    between atoms: C_5  and  C_6
REMARK    3  A    between atoms: C_7  and  N_8
REMARK    4  A    between atoms: C_11  and  N_12
REMARK    5  A    between atoms: C_13  and  C_15
REMARK    6  A    between atoms: C_24  and  C_25
REMARK                            x       y       z     vdW  Elec       q    Type
REMARK                         _______ _______ _______ _____ _____    ______ ____
ROOT
ATOM      1  N   UNL     1       2.831   6.108  19.452  0.00  0.00    +0.000 N 
ATOM      2  N   UNL     1       2.371   5.496  20.564  0.00  0.00    +0.000 NA
ATOM      3  C   UNL     1       1.577   6.383  21.160  0.00  0.00    +0.000 A 
ATOM      4  C   UNL     1       1.499   7.584  20.435  0.00  0.00    +0.000 A 
ATOM      5  C   UNL     1       2.322   7.407  19.336  0.00  0.00    +0.000 A 
ATOM      6  C   UNL     1       2.555   8.296  18.162  0.00  0.00    +0.000 C 
ENDROOT
BRANCH   1  13
ATOM      7  C   UNL     1       7.449   5.385  17.846  0.00  0.00    +0.000 C 
ATOM      8  C   UNL     1       5.990   5.050  17.748  0.00  0.00    +0.000 A 
ATOM      9  C   UNL     1       5.501   4.151  16.804  0.00  0.00    +0.000 A 
ATOM     10  C   UNL     1       4.135   3.856  16.756  0.00  0.00    +0.000 A 
ATOM     11  C   UNL     1       3.219   4.472  17.626  0.00  0.00    +0.000 A 
ATOM     12  C   UNL     1       1.757   4.141  17.464  0.00  0.00    +0.000 C 
ATOM     13  C   UNL     1       3.707   5.408  18.566  0.00  0.00    +0.000 A 
ATOM     14  C   UNL     1       5.090   5.653  18.631  0.00  0.00    +0.000 A 
ENDBRANCH   1  13
BRANCH   4  15
ATOM     15  N   UNL     1       0.759   8.723  20.691  0.00  0.00    +0.000 N 
ATOM     16  C   UNL     1       0.965   9.561  21.768  0.00  0.00    +0.000 C 
ATOM     17  O   UNL     1       1.779   9.387  22.668  0.00  0.00    +0.000 OA
ATOM     18  H   UNL     1       0.051   8.959  20.011  0.00  0.00    +0.000 HD
BRANCH  16  19
ATOM     19  C   UNL     1       0.070  10.751  21.849  0.00  0.00    +0.000 A 
ATOM     20  C   UNL     1      -0.960  10.694  22.805  0.00  0.00    +0.000 A 
ATOM     21  C   UNL     1      -1.854  11.750  22.931  0.00  0.00    +0.000 A 
ATOM     22  F   UNL     1      -2.857  11.665  23.815  0.00  0.00    +0.000 F 
ATOM     23  C   UNL     1      -1.717  12.882  22.140  0.00  0.00    +0.000 A 
ATOM     24  F   UNL     1      -2.581  13.898  22.258  0.00  0.00    +0.000 F 
ATOM     25  C   UNL     1      -0.688  12.972  21.212  0.00  0.00    +0.000 A 
ATOM     26  C   UNL     1       0.200  11.907  21.052  0.00  0.00    +0.000 A 
ATOM     27 CL   UNL     1       1.426  12.121  19.851  0.00  0.00    +0.000 Cl
ENDBRANCH  16  19
ENDBRANCH   4  15
TORSDOF 3
ENDMDL
MODEL 2
REMARK VINA RESULT:      -7.5      1.216      1.254
REMARK  Name = 
REMARK  6 active torsions:
REMARK  status: ('A' for Active; 'I' for Inactive)
REMARK    1  A    between atoms: C_1  and  C_2
REMARK    2  A    between atoms: C_5  and  C_6
REMARK    3  A    between atoms: C_7  and  N_8
REMARK    4  A    between atoms: C_11  and  N_12
REMARK    5  A    between atoms: C_13  and  C_15
REMARK    6  A    between atoms: C_24  and  C_25
REMARK                            x       y       z     vdW  Elec       q    Type
REMARK                         _______ _______ _______ _____ _____    ______ ____
ROOT
ATOM      1  N   UNL     1       2.835   6.265  19.288  0.00  0.00    +0.000 N 
ATOM      2  N   UNL     1       2.418   5.837  20.499  0.00  0.00    +0.000 NA
ATOM      3  C   UNL     1       1.725   6.849  21.018  0.00  0.00    +0.000 A 
ATOM      4  C   UNL     1       1.672   7.948  20.144  0.00  0.00    +0.000 A 
ATOM      5  C   UNL     1       2.401   7.571  19.031  0.00  0.00    +0.000 A 
ATOM      6  C   UNL     1       2.605   8.280  17.735  0.00  0.00    +0.000 C 
ENDROOT
BRANCH   1  13
ATOM      7  C   UNL     1       7.279   4.973  17.553  0.00  0.00    +0.000 C 
ATOM      8  C   UNL     1       5.795   4.752  17.571  0.00  0.00    +0.000 A 
ATOM      9  C   UNL     1       5.183   3.792  16.770  0.00  0.00    +0.000 A 
ATOM     10  C   UNL     1       3.798   3.609  16.826  0.00  0.00    +0.000 A 
ATOM     11  C   UNL     1       2.986   4.398  17.660  0.00  0.00    +0.000 A 
ATOM     12  C   UNL     1       1.495   4.174  17.613  0.00  0.00    +0.000 C 
ATOM     13  C   UNL     1       3.599   5.394  18.452  0.00  0.00    +0.000 A 
ATOM     14  C   UNL     1       4.999   5.528  18.417  0.00  0.00    +0.000 A 
ENDBRANCH   1  13
BRANCH   4  15
ATOM     15  N   UNL     1       1.024   9.160  20.290  0.00  0.00    +0.000 N 
ATOM     16  C   UNL     1      -0.102   9.355  21.062  0.00  0.00    +0.000 C 
ATOM     17  O   UNL     1      -0.716   8.484  21.669  0.00  0.00    +0.000 OA
ATOM     18  H   UNL     1       1.444   9.951  19.823  0.00  0.00    +0.000 HD
BRANCH  16  19
ATOM     19  C   UNL     1      -0.633  10.748  21.104  0.00  0.00    +0.000 A 
ATOM     20  C   UNL     1      -0.562  11.407  22.345  0.00  0.00    +0.000 A 
ATOM     21  C   UNL     1      -1.056  12.698  22.478  0.00  0.00    +0.000 A 
ATOM     22  F   UNL     1      -1.022  13.298  23.676  0.00  0.00    +0.000 F 
ATOM     23  C   UNL     1      -1.590  13.360  21.383  0.00  0.00    +0.000 A 
ATOM     24  F   UNL     1      -2.071  14.603  21.511  0.00  0.00    +0.000 F 
ATOM     25  C   UNL     1      -1.642  12.740  20.141  0.00  0.00    +0.000 A 
ATOM     26  C   UNL     1      -1.178  11.431  19.998  0.00  0.00    +0.000 A 
ATOM     27 CL   UNL     1      -1.313  10.753  18.412  0.00  0.00    +0.000 Cl
ENDBRANCH  16  19
ENDBRANCH   4  15
TORSDOF 3
ENDMDL
MODEL 3
REMARK VINA RESULT:      -7.5      1.616      2.326
REMARK  Name = 
REMARK  6 active torsions:
REMARK  status: ('A' for Active; 'I' for Inactive)
REMARK    1  A    between atoms: C_1  and  C_2
REMARK    2  A    between atoms: C_5  and  C_6
REMARK    3  A    between atoms: C_7  and  N_8
REMARK    4  A    between atoms: C_11  and  N_12
REMARK    5  A    between atoms: C_13  and  C_15
REMARK    6  A    between atoms: C_24  and  C_25
REMARK                            x       y       z     vdW  Elec       q    Type
REMARK                         _______ _______ _______ _____ _____    ______ ____
ROOT
ATOM      1  N   UNL     1       2.726   7.520  18.242  0.00  0.00    +0.000 N 
ATOM      2  N   UNL     1       2.582   8.471  17.294  0.00  0.00    +0.000 NA
ATOM      3  C   UNL     1       1.693   9.333  17.784  0.00  0.00    +0.000 A 
ATOM      4  C   UNL     1       1.254   8.960  19.065  0.00  0.00    +0.000 A 
ATOM      5  C   UNL     1       1.915   7.779  19.354  0.00  0.00    +0.000 A 
ATOM      6  C   UNL     1       1.933   6.975  20.609  0.00  0.00    +0.000 C 
ENDROOT
BRANCH   1  13
ATOM      7  C   UNL     1       7.423   6.046  17.805  0.00  0.00    +0.000 C 
ATOM      8  C   UNL     1       5.964   5.698  17.797  0.00  0.00    +0.000 A 
ATOM      9  C   UNL     1       5.515   4.406  17.540  0.00  0.00    +0.000 A 
ATOM     10  C   UNL     1       4.146   4.121  17.556  0.00  0.00    +0.000 A 
ATOM     11  C   UNL     1       3.190   5.122  17.800  0.00  0.00    +0.000 A 
ATOM     12  C   UNL     1       1.733   4.739  17.739  0.00  0.00    +0.000 C 
ATOM     13  C   UNL     1       3.639   6.441  18.033  0.00  0.00    +0.000 A 
ATOM     14  C   UNL     1       5.022   6.696  18.061  0.00  0.00    +0.000 A 
ENDBRANCH   1  13
BRANCH   4  15
ATOM     15  N   UNL     1       0.377   9.603  19.918  0.00  0.00    +0.000 N 
ATOM     16  C   UNL     1       0.550  10.886  20.394  0.00  0.00    +0.000 C 
ATOM     17  O   UNL     1       1.519  11.606  20.181  0.00  0.00    +0.000 OA
ATOM     18  H   UNL     1      -0.460   9.094  20.166  0.00  0.00    +0.000 HD
BRANCH  16  19
ATOM     19  C   UNL     1      -0.526  11.403  21.287  0.00  0.00    +0.000 A 
ATOM     20  C   UNL     1      -1.297  12.468  20.785  0.00  0.00    +0.000 A 
ATOM     21  C   UNL     1      -2.305  13.025  21.562  0.00  0.00    +0.000 A 
ATOM     22  F   UNL     1      -3.002  14.067  21.090  0.00  0.00    +0.000 F 
ATOM     23  C   UNL     1      -2.582  12.515  22.822  0.00  0.00    +0.000 A 
ATOM     24  F   UNL     1      -3.551  13.055  23.572  0.00  0.00    +0.000 F 
ATOM     25  C   UNL     1      -1.855  11.444  23.324  0.00  0.00    +0.000 A 
ATOM     26  C   UNL     1      -0.818  10.892  22.568  0.00  0.00    +0.000 A 
ATOM     27 CL   UNL     1       0.034   9.578  23.304  0.00  0.00    +0.000 Cl
ENDBRANCH  16  19
ENDBRANCH   4  15
TORSDOF 3
ENDMDL
MODEL 4
REMARK VINA RESULT:      -7.5      1.570      2.076
REMARK  Name = 
REMARK  6 active torsions:
REMARK  status: ('A' for Active; 'I' for Inactive)
REMARK    1  A    between atoms: C_1  and  C_2
REMARK    2  A    between atoms: C_5  and  C_6
REMARK    3  A    between atoms: C_7  and  N_8
REMARK    4  A    between atoms: C_11  and  N_12
REMARK    5  A    between atoms: C_13  and  C_15
REMARK    6  A    between atoms: C_24  and  C_25
REMARK                            x       y       z     vdW  Elec       q    Type
REMARK                         _______ _______ _______ _____ _____    ______ ____
ROOT
ATOM      1  N   UNL     1       2.692   6.539  19.274  0.00  0.00    +0.000 N 
ATOM      2  N   UNL     1       2.220   6.144  20.476  0.00  0.00    +0.000 NA
ATOM      3  C   UNL     1       1.465   7.150  20.913  0.00  0.00    +0.000 A 
ATOM      4  C   UNL     1       1.425   8.211  19.993  0.00  0.00    +0.000 A 
ATOM      5  C   UNL     1       2.231   7.818  18.939  0.00  0.00    +0.000 A 
ATOM      6  C   UNL     1       2.486   8.483  17.629  0.00  0.00    +0.000 C 
ENDROOT
BRANCH   1  13
ATOM      7  C   UNL     1       7.267   5.357  17.825  0.00  0.00    +0.000 C 
ATOM      8  C   UNL     1       5.794   5.075  17.779  0.00  0.00    +0.000 A 
ATOM      9  C   UNL     1       5.263   4.056  16.994  0.00  0.00    +0.000 A 
ATOM     10  C   UNL     1       3.885   3.818  16.990  0.00  0.00    +0.000 A 
ATOM     11  C   UNL     1       3.000   4.609  17.744  0.00  0.00    +0.000 A 
ATOM     12  C   UNL     1       1.524   4.321  17.634  0.00  0.00    +0.000 C 
ATOM     13  C   UNL     1       3.532   5.664  18.519  0.00  0.00    +0.000 A 
ATOM     14  C   UNL     1       4.925   5.855  18.547  0.00  0.00    +0.000 A 
ENDBRANCH   1  13
BRANCH   4  15
ATOM     15  N   UNL     1       0.731   9.405  20.053  0.00  0.00    +0.000 N 
ATOM     16  C   UNL     1       0.805  10.298  21.101  0.00  0.00    +0.000 C 
ATOM     17  O   UNL     1       1.437  10.137  22.139  0.00  0.00    +0.000 OA
ATOM     18  H   UNL     1       0.168   9.636  19.247  0.00  0.00    +0.000 HD
BRANCH  16  19
ATOM     19  C   UNL     1      -0.008  11.540  20.959  0.00  0.00    +0.000 A 
ATOM     20  C   UNL     1       0.272  12.345  19.840  0.00  0.00    +0.000 A 
ATOM     21  C   UNL     1      -0.422  13.533  19.644  0.00  0.00    +0.000 A 
ATOM     22  F   UNL     1      -0.117  14.312  18.598  0.00  0.00    +0.000 F 
ATOM     23  C   UNL     1      -1.418  13.917  20.530  0.00  0.00    +0.000 A 
ATOM     24  F   UNL     1      -2.084  15.063  20.345  0.00  0.00    +0.000 F 
ATOM     25  C   UNL     1      -1.732  13.122  21.625  0.00  0.00    +0.000 A 
ATOM     26  C   UNL     1      -1.023  11.940  21.853  0.00  0.00    +0.000 A 
ATOM     27 CL   UNL     1      -1.484  11.043  23.258  0.00  0.00    +0.000 Cl
ENDBRANCH  16  19
ENDBRANCH   4  15
TORSDOF 3
ENDMDL
MODEL 5
REMARK VINA RESULT:      -7.4      1.962      3.129
REMARK  Name = 
REMARK  6 active torsions:
REMARK  status: ('A' for Active; 'I' for Inactive)
REMARK    1  A    between atoms: C_1  and  C_2
REMARK    2  A    between atoms: C_5  and  C_6
REMARK    3  A    between atoms: C_7  and  N_8
REMARK    4  A    between atoms: C_11  and  N_12
REMARK    5  A    between atoms: C_13  and  C_15
REMARK    6  A    between atoms: C_24  and  C_25
REMARK                            x       y       z     vdW  Elec       q    Type
REMARK                         _______ _______ _______ _____ _____    ______ ____
ROOT
ATOM      1  N   UNL     1       2.419   7.371  18.247  0.00  0.00    +0.000 N 
ATOM      2  N   UNL     1       2.499   8.281  17.253  0.00  0.00    +0.000 NA
ATOM      3  C   UNL     1       1.952   9.393  17.741  0.00  0.00    +0.000 A 
ATOM      4  C   UNL     1       1.518   9.224  19.066  0.00  0.00    +0.000 A 
ATOM      5  C   UNL     1       1.811   7.910  19.386  0.00  0.00    +0.000 A 
ATOM      6  C   UNL     1       1.678   7.189  20.685  0.00  0.00    +0.000 C 
ENDROOT
BRANCH   1  13
ATOM      7  C   UNL     1       1.626   2.493  18.338  0.00  0.00    +0.000 C 
ATOM      8  C   UNL     1       2.572   3.635  18.106  0.00  0.00    +0.000 A 
ATOM      9  C   UNL     1       3.908   3.430  17.777  0.00  0.00    +0.000 A 
ATOM     10  C   UNL     1       4.753   4.521  17.556  0.00  0.00    +0.000 A 
ATOM     11  C   UNL     1       4.294   5.844  17.687  0.00  0.00    +0.000 A 
ATOM     12  C   UNL     1       5.289   6.961  17.490  0.00  0.00    +0.000 C 
ATOM     13  C   UNL     1       2.946   6.057  18.050  0.00  0.00    +0.000 A 
ATOM     14  C   UNL     1       2.100   4.945  18.219  0.00  0.00    +0.000 A 
ENDBRANCH   1  13
BRANCH   4  15
ATOM     15  N   UNL     1       0.943  10.137  19.929  0.00  0.00    +0.000 N 
ATOM     16  C   UNL     1      -0.388  10.501  19.906  0.00  0.00    +0.000 C 
ATOM     17  O   UNL     1      -1.222  10.120  19.093  0.00  0.00    +0.000 OA
ATOM     18  H   UNL     1       1.546  10.522  20.642  0.00  0.00    +0.000 HD
BRANCH  16  19
ATOM     19  C   UNL     1      -0.814  11.487  20.940  0.00  0.00    +0.000 A 
ATOM     20  C   UNL     1      -1.123  12.781  20.481  0.00  0.00    +0.000 A 
ATOM     21  C   UNL     1      -1.505  13.768  21.381  0.00  0.00    +0.000 A 
ATOM     22  F   UNL     1      -1.754  15.006  20.936  0.00  0.00    +0.000 F 
ATOM     23  C   UNL     1      -1.617  13.477  22.732  0.00  0.00    +0.000 A 
ATOM     24  F   UNL     1      -1.981  14.429  23.601  0.00  0.00    +0.000 F 
ATOM     25  C   UNL     1      -1.347  12.199  23.204  0.00  0.00    +0.000 A 
ATOM     26  C   UNL     1      -0.933  11.204  22.316  0.00  0.00    +0.000 A 
ATOM     27 CL   UNL     1      -0.602   9.658  23.018  0.00  0.00    +0.000 Cl
ENDBRANCH  16  19
ENDBRANCH   4  15
TORSDOF 3
ENDMDL
MODEL 6
REMARK VINA RESULT:      -7.4      4.459      8.638
REMARK  Name = 
REMARK  6 active torsions:
REMARK  status: ('A' for Active; 'I' for Inactive)
REMARK    1  A    between atoms: C_1  and  C_2
REMARK    2  A    between atoms: C_5  and  C_6
REMARK    3  A    between atoms: C_7  and  N_8
REMARK    4  A    between atoms: C_11  and  N_12
REMARK    5  A    between atoms: C_13  and  C_15
REMARK    6  A    between atoms: C_24  and  C_25
REMARK                            x       y       z     vdW  Elec       q    Type
REMARK                         _______ _______ _______ _____ _____    ______ ____
ROOT
ATOM      1  N   UNL     1       0.853  10.021  19.171  0.00  0.00    +0.000 N 
ATOM      2  N   UNL     1       1.448  10.071  17.960  0.00  0.00    +0.000 NA
ATOM      3  C   UNL     1       2.185   8.966  17.876  0.00  0.00    +0.000 A 
ATOM      4  C   UNL     1       2.069   8.172  19.030  0.00  0.00    +0.000 A 
ATOM      5  C   UNL     1       1.216   8.865  19.871  0.00  0.00    +0.000 A 
ATOM      6  C   UNL     1       0.639   8.468  21.188  0.00  0.00    +0.000 C 
ENDROOT
BRANCH   1  13
ATOM      7  C   UNL     1       0.098  14.028  21.964  0.00  0.00    +0.000 C 
ATOM      8  C   UNL     1      -0.431  13.046  20.961  0.00  0.00    +0.000 A 
ATOM      9  C   UNL     1      -1.737  13.109  20.485  0.00  0.00    +0.000 A 
ATOM     10  C   UNL     1      -2.187  12.182  19.540  0.00  0.00    +0.000 A 
ATOM     11  C   UNL     1      -1.354  11.152  19.067  0.00  0.00    +0.000 A 
ATOM     12  C   UNL     1      -1.939  10.160  18.093  0.00  0.00    +0.000 C 
ATOM     13  C   UNL     1      -0.036  11.067  19.569  0.00  0.00    +0.000 A 
ATOM     14  C   UNL     1       0.411  12.039  20.482  0.00  0.00    +0.000 A 
ENDBRANCH   1  13
BRANCH   4  15
ATOM     15  N   UNL     1       2.634   6.944  19.317  0.00  0.00    +0.000 N 
ATOM     16  C   UNL     1       2.330   5.772  18.654  0.00  0.00    +0.000 C 
ATOM     17  O   UNL     1       1.487   5.643  17.774  0.00  0.00    +0.000 OA
ATOM     18  H   UNL     1       3.343   6.934  20.036  0.00  0.00    +0.000 HD
BRANCH  16  19
ATOM     19  C   UNL     1       3.070   4.558  19.103  0.00  0.00    +0.000 A 
ATOM     20  C   UNL     1       2.610   3.946  20.283  0.00  0.00    +0.000 A 
ATOM     21  C   UNL     1       3.257   2.823  20.785  0.00  0.00    +0.000 A 
ATOM     22  F   UNL     1       2.836   2.276  21.932  0.00  0.00    +0.000 F 
ATOM     23  C   UNL     1       4.339   2.278  20.109  0.00  0.00    +0.000 A 
ATOM     24  F   UNL     1       4.966   1.200  20.594  0.00  0.00    +0.000 F 
ATOM     25  C   UNL     1       4.791   2.848  18.926  0.00  0.00    +0.000 A 
ATOM     26  C   UNL     1       4.170   3.994  18.424  0.00  0.00    +0.000 A 
ATOM     27 CL   UNL     1       4.832   4.630  16.958  0.00  0.00    +0.000 Cl
ENDBRANCH  16  19
ENDBRANCH   4  15
TORSDOF 3
ENDMDL
MODEL 7
REMARK VINA RESULT:      -7.3      1.708      2.766
REMARK  Name = 
REMARK  6 active torsions:
REMARK  status: ('A' for Active; 'I' for Inactive)
REMARK    1  A    between atoms: C_1  and  C_2
REMARK    2  A    between atoms: C_5  and  C_6
REMARK    3  A    between atoms: C_7  and  N_8
REMARK    4  A    between atoms: C_11  and  N_12
REMARK    5  A    between atoms: C_13  and  C_15
REMARK    6  A    between atoms: C_24  and  C_25
REMARK                            x       y       z     vdW  Elec       q    Type
REMARK                         _______ _______ _______ _____ _____    ______ ____
ROOT
ATOM      1  N   UNL     1       2.364   7.350  18.263  0.00  0.00    +0.000 N 
ATOM      2  N   UNL     1       2.415   8.264  17.270  0.00  0.00    +0.000 NA
ATOM      3  C   UNL     1       1.944   9.392  17.796  0.00  0.00    +0.000 A 
ATOM      4  C   UNL     1       1.590   9.231  19.146  0.00  0.00    +0.000 A 
ATOM      5  C   UNL     1       1.851   7.905  19.442  0.00  0.00    +0.000 A 
ATOM      6  C   UNL     1       1.775   7.181  20.743  0.00  0.00    +0.000 C 
ENDROOT
BRANCH   1  13
ATOM      7  C   UNL     1       1.404   2.505  18.424  0.00  0.00    +0.000 C 
ATOM      8  C   UNL     1       2.369   3.612  18.116  0.00  0.00    +0.000 A 
ATOM      9  C   UNL     1       3.667   3.358  17.682  0.00  0.00    +0.000 A 
ATOM     10  C   UNL     1       4.531   4.419  17.393  0.00  0.00    +0.000 A 
ATOM     11  C   UNL     1       4.132   5.758  17.558  0.00  0.00    +0.000 A 
ATOM     12  C   UNL     1       5.147   6.838  17.281  0.00  0.00    +0.000 C 
ATOM     13  C   UNL     1       2.825   6.019  18.026  0.00  0.00    +0.000 A 
ATOM     14  C   UNL     1       1.956   4.938  18.264  0.00  0.00    +0.000 A 
ENDBRANCH   1  13
BRANCH   4  15
ATOM     15  N   UNL     1       1.107  10.160  20.049  0.00  0.00    +0.000 N 
ATOM     16  C   UNL     1      -0.166  10.691  20.015  0.00  0.00    +0.000 C 
ATOM     17  O   UNL     1      -1.015  10.466  19.161  0.00  0.00    +0.000 OA
ATOM     18  H   UNL     1       1.732  10.425  20.797  0.00  0.00    +0.000 HD
BRANCH  16  19
ATOM     19  C   UNL     1      -0.496  11.664  21.096  0.00  0.00    +0.000 A 
ATOM     20  C   UNL     1      -1.477  11.262  22.020  0.00  0.00    +0.000 A 
ATOM     21  C   UNL     1      -1.863  12.117  23.045  0.00  0.00    +0.000 A 
ATOM     22  F   UNL     1      -2.829  11.739  23.892  0.00  0.00    +0.000 F 
ATOM     23  C   UNL     1      -1.260  13.358  23.185  0.00  0.00    +0.000 A 
ATOM     24  F   UNL     1      -1.634  14.185  24.170  0.00  0.00    +0.000 F 
ATOM     25  C   UNL     1      -0.267  13.763  22.303  0.00  0.00    +0.000 A 
ATOM     26  C   UNL     1       0.111  12.928  21.250  0.00  0.00    +0.000 A 
ATOM     27 CL   UNL     1       1.340  13.545  20.201  0.00  0.00    +0.000 Cl
ENDBRANCH  16  19
ENDBRANCH   4  15
TORSDOF 3
ENDMDL
MODEL 8
REMARK VINA RESULT:      -7.3      4.721      8.932
REMARK  Name = 
REMARK  6 active torsions:
REMARK  status: ('A' for Active; 'I' for Inactive)
REMARK    1  A    between atoms: C_1  and  C_2
REMARK    2  A    between atoms: C_5  and  C_6
REMARK    3  A    between atoms: C_7  and  N_8
REMARK    4  A    between atoms: C_11  and  N_12
REMARK    5  A    between atoms: C_13  and  C_15
REMARK    6  A    between atoms: C_24  and  C_25
REMARK                            x       y       z     vdW  Elec       q    Type
REMARK                         _______ _______ _______ _____ _____    ______ ____
ROOT
ATOM      1  N   UNL     1       0.551   9.653  20.029  0.00  0.00    +0.000 N 
ATOM      2  N   UNL     1       0.543   8.707  20.993  0.00  0.00    +0.000 NA
ATOM      3  C   UNL     1       1.405   7.776  20.589  0.00  0.00    +0.000 A 
ATOM      4  C   UNL     1       1.997   8.110  19.359  0.00  0.00    +0.000 A 
ATOM      5  C   UNL     1       1.432   9.319  18.993  0.00  0.00    +0.000 A 
ATOM      6  C   UNL     1       1.745  10.212  17.841  0.00  0.00    +0.000 C 
ENDROOT
BRANCH   1  13
ATOM      7  C   UNL     1      -0.360  13.846  22.482  0.00  0.00    +0.000 C 
ATOM      8  C   UNL     1      -0.739  12.891  21.388  0.00  0.00    +0.000 A 
ATOM      9  C   UNL     1      -1.862  13.093  20.590  0.00  0.00    +0.000 A 
ATOM     10  C   UNL     1      -2.172  12.186  19.571  0.00  0.00    +0.000 A 
ATOM     11  C   UNL     1      -1.389  11.041  19.343  0.00  0.00    +0.000 A 
ATOM     12  C   UNL     1      -1.830  10.085  18.264  0.00  0.00    +0.000 C 
ATOM     13  C   UNL     1      -0.265  10.817  20.170  0.00  0.00    +0.000 A 
ATOM     14  C   UNL     1       0.057  11.767  21.156  0.00  0.00    +0.000 A 
ENDBRANCH   1  13
BRANCH   4  15
ATOM     15  N   UNL     1       2.960   7.437  18.631  0.00  0.00    +0.000 N 
ATOM     16  C   UNL     1       3.201   6.082  18.724  0.00  0.00    +0.000 C 
ATOM     17  O   UNL     1       2.649   5.305  19.495  0.00  0.00    +0.000 OA
ATOM     18  H   UNL     1       3.483   7.986  17.965  0.00  0.00    +0.000 HD
BRANCH  16  19
ATOM     19  C   UNL     1       4.271   5.547  17.834  0.00  0.00    +0.000 A 
ATOM     20  C   UNL     1       5.463   6.293  17.770  0.00  0.00    +0.000 A 
ATOM     21  C   UNL     1       6.502   5.879  16.947  0.00  0.00    +0.000 A 
ATOM     22  F   UNL     1       7.613   6.621  16.862  0.00  0.00    +0.000 F 
ATOM     23  C   UNL     1       6.387   4.710  16.208  0.00  0.00    +0.000 A 
ATOM     24  F   UNL     1       7.386   4.312  15.411  0.00  0.00    +0.000 F 
ATOM     25  C   UNL     1       5.232   3.941  16.280  0.00  0.00    +0.000 A 
ATOM     26  C   UNL     1       4.167   4.360  17.080  0.00  0.00    +0.000 A 
ATOM     27 CL   UNL     1       2.772   3.337  17.073  0.00  0.00    +0.000 Cl
ENDBRANCH  16  19
ENDBRANCH   4  15
TORSDOF 3
ENDMDL
MODEL 9
REMARK VINA RESULT:      -7.3      4.136      8.157
REMARK  Name = 
REMARK  6 active torsions:
REMARK  status: ('A' for Active; 'I' for Inactive)
REMARK    1  A    between atoms: C_1  and  C_2
REMARK    2  A    between atoms: C_5  and  C_6
REMARK    3  A    between atoms: C_7  and  N_8
REMARK    4  A    between atoms: C_11  and  N_12
REMARK    5  A    between atoms: C_13  and  C_15
REMARK    6  A    between atoms: C_24  and  C_25
REMARK                            x       y       z     vdW  Elec       q    Type
REMARK                         _______ _______ _______ _____ _____    ______ ____
ROOT
ATOM      1  N   UNL     1       0.921  10.921  20.409  0.00  0.00    +0.000 N 
ATOM      2  N   UNL     1       1.112  10.752  21.735  0.00  0.00    +0.000 NA
ATOM      3  C   UNL     1       1.216   9.437  21.917  0.00  0.00    +0.000 A 
ATOM      4  C   UNL     1       1.107   8.731  20.707  0.00  0.00    +0.000 A 
ATOM      5  C   UNL     1       0.904   9.695  19.734  0.00  0.00    +0.000 A 
ATOM      6  C   UNL     1       0.824   9.556  18.252  0.00  0.00    +0.000 C 
ENDROOT
BRANCH   1  13
ATOM      7  C   UNL     1       3.161  14.971  18.673  0.00  0.00    +0.000 C 
ATOM      8  C   UNL     1       1.887  14.261  19.026  0.00  0.00    +0.000 A 
ATOM      9  C   UNL     1       0.643  14.872  18.898  0.00  0.00    +0.000 A 
ATOM     10  C   UNL     1      -0.522  14.171  19.225  0.00  0.00    +0.000 A 
ATOM     11  C   UNL     1      -0.473  12.853  19.715  0.00  0.00    +0.000 A 
ATOM     12  C   UNL     1      -1.773  12.193  20.100  0.00  0.00    +0.000 C 
ATOM     13  C   UNL     1       0.790  12.239  19.874  0.00  0.00    +0.000 A 
ATOM     14  C   UNL     1       1.945  12.945  19.493  0.00  0.00    +0.000 A 
ENDBRANCH   1  13
BRANCH   4  15
ATOM     15  N   UNL     1       1.201   7.374  20.465  0.00  0.00    +0.000 N 
ATOM     16  C   UNL     1       2.261   6.768  19.822  0.00  0.00    +0.000 C 
ATOM     17  O   UNL     1       3.224   7.343  19.327  0.00  0.00    +0.000 OA
ATOM     18  H   UNL     1       0.452   6.801  20.827  0.00  0.00    +0.000 HD
BRANCH  16  19
ATOM     19  C   UNL     1       2.179   5.286  19.683  0.00  0.00    +0.000 A 
ATOM     20  C   UNL     1       1.492   4.599  20.701  0.00  0.00    +0.000 A 
ATOM     21  C   UNL     1       1.390   3.214  20.662  0.00  0.00    +0.000 A 
ATOM     22  F   UNL     1       0.771   2.570  21.659  0.00  0.00    +0.000 F 
ATOM     23  C   UNL     1       1.933   2.502  19.603  0.00  0.00    +0.000 A 
ATOM     24  F   UNL     1       1.839   1.166  19.567  0.00  0.00    +0.000 F 
ATOM     25  C   UNL     1       2.588   3.161  18.571  0.00  0.00    +0.000 A 
ATOM     26  C   UNL     1       2.726   4.551  18.611  0.00  0.00    +0.000 A 
ATOM     27 CL   UNL     1       3.580   5.262  17.285  0.00  0.00    +0.000 Cl
ENDBRANCH  16  19
ENDBRANCH   4  15
TORSDOF 3
ENDMDL
