MODEL 1
REMARK VINA RESULT:      -9.3      0.000      0.000
REMARK  Name = 
REMARK  3 active torsions:
REMARK  status: ('A' for Active; 'I' for Inactive)
REMARK    1  A    between atoms: C_1  and  C_2
REMARK    2  A    between atoms: C_8  and  C_9
REMARK    3  A    between atoms: C_16  and  C_17
REMARK                            x       y       z     vdW  Elec       q    Type
REMARK                         _______ _______ _______ _____ _____    ______ ____
ROOT
ATOM      1  C   UNL     1       2.574   5.737  19.798  0.00  0.00    +0.000 C 
ATOM      2  O   UNL     1       2.059   4.739  20.287  0.00  0.00    +0.000 OA
ATOM      3  N   UNL     1       2.154   6.986  20.192  0.00  0.00    +0.000 N 
ATOM      4  C   UNL     1       1.355   7.094  21.419  0.00  0.00    +0.000 C 
ATOM      5  C   UNL     1       1.418   8.588  21.676  0.00  0.00    +0.000 C 
ATOM      6  C   UNL     1       1.069   8.979  20.267  0.00  0.00    +0.000 A 
ATOM      7  C   UNL     1       0.108   9.840  19.773  0.00  0.00    +0.000 A 
ATOM      8  C   UNL     1      -0.141   9.823  18.383  0.00  0.00    +0.000 A 
ATOM      9  C   UNL     1       0.756   9.111  17.536  0.00  0.00    +0.000 A 
ATOM     10  C   UNL     1       1.701   8.216  18.043  0.00  0.00    +0.000 A 
ATOM     11  C   UNL     1       1.747   8.084  19.411  0.00  0.00    +0.000 A 
ENDROOT
BRANCH   1  19
ATOM     12  C   UNL     1       5.812   3.724  13.431  0.00  0.00    +0.000 C 
ATOM     13  C   UNL     1       5.903   4.230  14.836  0.00  0.00    +0.000 A 
ATOM     14  C   UNL     1       7.179   4.621  15.382  0.00  0.00    +0.000 A 
ATOM     15  C   UNL     1       7.283   5.081  16.629  0.00  0.00    +0.000 A 
ATOM     16  C   UNL     1       6.052   5.238  17.446  0.00  0.00    +0.000 A 
ATOM     17  N   UNL     1       6.170   5.740  18.648  0.00  0.00    +0.000 NA
ATOM     18  C   UNL     1       5.016   5.893  19.367  0.00  0.00    +0.000 A 
ATOM     19  C   UNL     1       3.781   5.615  18.925  0.00  0.00    +0.000 A 
ATOM     20  C   UNL     1       3.661   4.978  17.599  0.00  0.00    +0.000 A 
ATOM     21  O   UNL     1       2.580   4.620  17.140  0.00  0.00    +0.000 OA
ATOM     22  N   UNL     1       4.852   4.849  16.888  0.00  0.00    +0.000 N 
ATOM     23  C   UNL     1       4.808   4.336  15.601  0.00  0.00    +0.000 A 
ENDBRANCH   1  19
BRANCH   8  24
ATOM     24  C   UNL     1      -1.407  10.367  17.836  0.00  0.00    +0.000 A 
ATOM     25  C   UNL     1      -1.905   9.909  16.592  0.00  0.00    +0.000 A 
ATOM     26  C   UNL     1      -3.145  10.321  16.094  0.00  0.00    +0.000 A 
ATOM     27  C   UNL     1      -3.933  11.184  16.843  0.00  0.00    +0.000 A 
ATOM     28  C   UNL     1      -3.471  11.628  18.075  0.00  0.00    +0.000 A 
ATOM     29  F   UNL     1      -4.243  12.432  18.815  0.00  0.00    +0.000 F 
ATOM     30  C   UNL     1      -2.227  11.237  18.568  0.00  0.00    +0.000 A 
ENDBRANCH   8  24
TORSDOF 2
ENDMDL
MODEL 2
REMARK VINA RESULT:      -9.1      0.858      1.226
REMARK  Name = 
REMARK  3 active torsions:
REMARK  status: ('A' for Active; 'I' for Inactive)
REMARK    1  A    between atoms: C_1  and  C_2
REMARK    2  A    between atoms: C_8  and  C_9
REMARK    3  A    between atoms: C_16  and  C_17
REMARK                            x       y       z     vdW  Elec       q    Type
REMARK                         _______ _______ _______ _____ _____    ______ ____
ROOT
ATOM      1  C   UNL     1       2.644   5.703  19.756  0.00  0.00    +0.000 C 
ATOM      2  O   UNL     1       2.152   4.696  20.249  0.00  0.00    +0.000 OA
ATOM      3  N   UNL     1       2.205   6.944  20.155  0.00  0.00    +0.000 N 
ATOM      4  C   UNL     1       1.416   7.037  21.389  0.00  0.00    +0.000 C 
ATOM      5  C   UNL     1       1.454   8.532  21.646  0.00  0.00    +0.000 C 
ATOM      6  C   UNL     1       1.084   8.917  20.241  0.00  0.00    +0.000 A 
ATOM      7  C   UNL     1       0.103   9.760  19.757  0.00  0.00    +0.000 A 
ATOM      8  C   UNL     1      -0.159   9.739  18.368  0.00  0.00    +0.000 A 
ATOM      9  C   UNL     1       0.743   9.043  17.513  0.00  0.00    +0.000 A 
ATOM     10  C   UNL     1       1.709   8.166  18.011  0.00  0.00    +0.000 A 
ATOM     11  C   UNL     1       1.771   8.035  19.377  0.00  0.00    +0.000 A 
ENDROOT
BRANCH   1  19
ATOM     12  C   UNL     1       5.871   3.701  13.380  0.00  0.00    +0.000 C 
ATOM     13  C   UNL     1       5.962   4.227  14.777  0.00  0.00    +0.000 A 
ATOM     14  C   UNL     1       7.232   4.660  15.305  0.00  0.00    +0.000 A 
ATOM     15  C   UNL     1       7.337   5.139  16.545  0.00  0.00    +0.000 A 
ATOM     16  C   UNL     1       6.110   5.271  17.373  0.00  0.00    +0.000 A 
ATOM     17  N   UNL     1       6.226   5.791  18.567  0.00  0.00    +0.000 NA
ATOM     18  C   UNL     1       5.076   5.921  19.297  0.00  0.00    +0.000 A 
ATOM     19  C   UNL     1       3.845   5.604  18.872  0.00  0.00    +0.000 A 
ATOM     20  C   UNL     1       3.729   4.947  17.555  0.00  0.00    +0.000 A 
ATOM     21  O   UNL     1       2.654   4.554  17.112  0.00  0.00    +0.000 OA
ATOM     22  N   UNL     1       4.916   4.842  16.833  0.00  0.00    +0.000 N 
ATOM     23  C   UNL     1       4.872   4.312  15.552  0.00  0.00    +0.000 A 
ENDBRANCH   1  19
BRANCH   8  24
ATOM     24  C   UNL     1      -1.440  10.260  17.834  0.00  0.00    +0.000 A 
ATOM     25  C   UNL     1      -2.168  11.240  18.550  0.00  0.00    +0.000 A 
ATOM     26  C   UNL     1      -3.325  11.830  18.030  0.00  0.00    +0.000 A 
ATOM     27  C   UNL     1      -3.768  11.472  16.764  0.00  0.00    +0.000 A 
ATOM     28  C   UNL     1      -3.055  10.528  16.038  0.00  0.00    +0.000 A 
ATOM     29  F   UNL     1      -3.460  10.206  14.804  0.00  0.00    +0.000 F 
ATOM     30  C   UNL     1      -1.913   9.921  16.559  0.00  0.00    +0.000 A 
ENDBRANCH   8  24
TORSDOF 2
ENDMDL
MODEL 3
REMARK VINA RESULT:      -8.0      1.980      3.183
REMARK  Name = 
REMARK  3 active torsions:
REMARK  status: ('A' for Active; 'I' for Inactive)
REMARK    1  A    between atoms: C_1  and  C_2
REMARK    2  A    between atoms: C_8  and  C_9
REMARK    3  A    between atoms: C_16  and  C_17
REMARK                            x       y       z     vdW  Elec       q    Type
REMARK                         _______ _______ _______ _____ _____    ______ ____
ROOT
ATOM      1  C   UNL     1       1.428   8.495  20.551  0.00  0.00    +0.000 C 
ATOM      2  O   UNL     1       1.328   8.143  21.720  0.00  0.00    +0.000 OA
ATOM      3  N   UNL     1       1.091   9.780  20.193  0.00  0.00    +0.000 N 
ATOM      4  C   UNL     1       0.952  10.782  21.256  0.00  0.00    +0.000 C 
ATOM      5  C   UNL     1       0.944  12.065  20.446  0.00  0.00    +0.000 C 
ATOM      6  C   UNL     1      -0.069  11.582  19.445  0.00  0.00    +0.000 A 
ATOM      7  C   UNL     1      -1.247  12.148  18.997  0.00  0.00    +0.000 A 
ATOM      8  C   UNL     1      -2.113  11.344  18.223  0.00  0.00    +0.000 A 
ATOM      9  C   UNL     1      -1.636  10.089  17.745  0.00  0.00    +0.000 A 
ATOM     10  C   UNL     1      -0.461   9.509  18.230  0.00  0.00    +0.000 A 
ATOM     11  C   UNL     1       0.235  10.231  19.170  0.00  0.00    +0.000 A 
ENDROOT
BRANCH   1  19
ATOM     12  C   UNL     1       3.446   1.770  18.147  0.00  0.00    +0.000 C 
ATOM     13  C   UNL     1       3.481   3.261  18.029  0.00  0.00    +0.000 A 
ATOM     14  C   UNL     1       4.166   3.881  16.922  0.00  0.00    +0.000 A 
ATOM     15  C   UNL     1       4.205   5.208  16.792  0.00  0.00    +0.000 A 
ATOM     16  C   UNL     1       3.487   6.051  17.781  0.00  0.00    +0.000 A 
ATOM     17  N   UNL     1       3.494   7.347  17.607  0.00  0.00    +0.000 NA
ATOM     18  C   UNL     1       2.805   8.096  18.522  0.00  0.00    +0.000 A 
ATOM     19  C   UNL     1       2.091   7.609  19.547  0.00  0.00    +0.000 A 
ATOM     20  C   UNL     1       2.150   6.153  19.785  0.00  0.00    +0.000 A 
ATOM     21  O   UNL     1       1.591   5.622  20.740  0.00  0.00    +0.000 OA
ATOM     22  N   UNL     1       2.848   5.419  18.828  0.00  0.00    +0.000 N 
ATOM     23  C   UNL     1       2.876   4.037  18.938  0.00  0.00    +0.000 A 
ENDBRANCH   1  19
BRANCH   8  24
ATOM     24  C   UNL     1      -3.544  11.702  18.074  0.00  0.00    +0.000 A 
ATOM     25  C   UNL     1      -4.199  11.529  16.831  0.00  0.00    +0.000 A 
ATOM     26  C   UNL     1      -5.570  11.757  16.678  0.00  0.00    +0.000 A 
ATOM     27  C   UNL     1      -6.329  12.139  17.777  0.00  0.00    +0.000 A 
ATOM     28  C   UNL     1      -5.708  12.293  19.009  0.00  0.00    +0.000 A 
ATOM     29  F   UNL     1      -6.442  12.627  20.077  0.00  0.00    +0.000 F 
ATOM     30  C   UNL     1      -4.337  12.087  19.163  0.00  0.00    +0.000 A 
ENDBRANCH   8  24
TORSDOF 2
ENDMDL
MODEL 4
REMARK VINA RESULT:      -8.0      4.739      9.764
REMARK  Name = 
REMARK  3 active torsions:
REMARK  status: ('A' for Active; 'I' for Inactive)
REMARK    1  A    between atoms: C_1  and  C_2
REMARK    2  A    between atoms: C_8  and  C_9
REMARK    3  A    between atoms: C_16  and  C_17
REMARK                            x       y       z     vdW  Elec       q    Type
REMARK                         _______ _______ _______ _____ _____    ______ ____
ROOT
ATOM      1  C   UNL     1      -0.817  10.816  19.203  0.00  0.00    +0.000 C 
ATOM      2  O   UNL     1      -1.644  10.870  18.302  0.00  0.00    +0.000 OA
ATOM      3  N   UNL     1       0.366  10.141  19.008  0.00  0.00    +0.000 N 
ATOM      4  C   UNL     1       0.752   9.804  17.632  0.00  0.00    +0.000 C 
ATOM      5  C   UNL     1       2.209   9.425  17.825  0.00  0.00    +0.000 C 
ATOM      6  C   UNL     1       1.955   8.521  18.999  0.00  0.00    +0.000 A 
ATOM      7  C   UNL     1       2.338   7.215  19.241  0.00  0.00    +0.000 A 
ATOM      8  C   UNL     1       1.746   6.547  20.337  0.00  0.00    +0.000 A 
ATOM      9  C   UNL     1       0.979   7.305  21.267  0.00  0.00    +0.000 A 
ATOM     10  C   UNL     1       0.568   8.613  20.997  0.00  0.00    +0.000 A 
ATOM     11  C   UNL     1       0.974   9.147  19.798  0.00  0.00    +0.000 A 
ENDROOT
BRANCH   1  19
ATOM     12  C   UNL     1      -5.030  14.895  23.752  0.00  0.00    +0.000 C 
ATOM     13  C   UNL     1      -3.695  14.353  23.348  0.00  0.00    +0.000 A 
ATOM     14  C   UNL     1      -2.535  14.610  24.164  0.00  0.00    +0.000 A 
ATOM     15  C   UNL     1      -1.336  14.131  23.828  0.00  0.00    +0.000 A 
ATOM     16  C   UNL     1      -1.213  13.279  22.618  0.00  0.00    +0.000 A 
ATOM     17  N   UNL     1      -0.039  12.776  22.335  0.00  0.00    +0.000 NA
ATOM     18  C   UNL     1       0.037  11.977  21.227  0.00  0.00    +0.000 A 
ATOM     19  C   UNL     1      -0.994  11.632  20.442  0.00  0.00    +0.000 A 
ATOM     20  C   UNL     1      -2.299  12.263  20.721  0.00  0.00    +0.000 A 
ATOM     21  O   UNL     1      -3.284  12.068  20.015  0.00  0.00    +0.000 OA
ATOM     22  N   UNL     1      -2.347  13.060  21.863  0.00  0.00    +0.000 N 
ATOM     23  C   UNL     1      -3.559  13.619  22.236  0.00  0.00    +0.000 A 
ENDBRANCH   1  19
BRANCH   8  24
ATOM     24  C   UNL     1       1.757   5.066  20.413  0.00  0.00    +0.000 A 
ATOM     25  C   UNL     1       2.258   4.413  21.565  0.00  0.00    +0.000 A 
ATOM     26  C   UNL     1       2.189   3.024  21.717  0.00  0.00    +0.000 A 
ATOM     27  C   UNL     1       1.591   2.254  20.728  0.00  0.00    +0.000 A 
ATOM     28  C   UNL     1       1.075   2.879  19.601  0.00  0.00    +0.000 A 
ATOM     29  F   UNL     1       0.467   2.144  18.663  0.00  0.00    +0.000 F 
ATOM     30  C   UNL     1       1.159   4.261  19.434  0.00  0.00    +0.000 A 
ENDBRANCH   8  24
TORSDOF 2
ENDMDL
MODEL 5
REMARK VINA RESULT:      -7.9      2.215      3.761
REMARK  Name = 
REMARK  3 active torsions:
REMARK  status: ('A' for Active; 'I' for Inactive)
REMARK    1  A    between atoms: C_1  and  C_2
REMARK    2  A    between atoms: C_8  and  C_9
REMARK    3  A    between atoms: C_16  and  C_17
REMARK                            x       y       z     vdW  Elec       q    Type
REMARK                         _______ _______ _______ _____ _____    ______ ____
ROOT
ATOM      1  C   UNL     1       1.186   9.155  20.351  0.00  0.00    +0.000 C 
ATOM      2  O   UNL     1       1.222   9.009  21.566  0.00  0.00    +0.000 OA
ATOM      3  N   UNL     1       0.654  10.305  19.815  0.00  0.00    +0.000 N 
ATOM      4  C   UNL     1       0.465  11.459  20.702  0.00  0.00    +0.000 C 
ATOM      5  C   UNL     1       0.224  12.565  19.691  0.00  0.00    +0.000 C 
ATOM      6  C   UNL     1      -0.788  11.794  18.890  0.00  0.00    +0.000 A 
ATOM      7  C   UNL     1      -2.062  12.127  18.471  0.00  0.00    +0.000 A 
ATOM      8  C   UNL     1      -2.869  11.100  17.933  0.00  0.00    +0.000 A 
ATOM      9  C   UNL     1      -2.267   9.845  17.629  0.00  0.00    +0.000 A 
ATOM     10  C   UNL     1      -0.992   9.505  18.088  0.00  0.00    +0.000 A 
ATOM     11  C   UNL     1      -0.329  10.460  18.820  0.00  0.00    +0.000 A 
ENDROOT
BRANCH   1  19
ATOM     12  C   UNL     1       3.564   2.303  18.773  0.00  0.00    +0.000 C 
ATOM     13  C   UNL     1       3.506   3.766  18.465  0.00  0.00    +0.000 A 
ATOM     14  C   UNL     1       4.131   4.278  17.270  0.00  0.00    +0.000 A 
ATOM     15  C   UNL     1       4.087   5.576  16.970  0.00  0.00    +0.000 A 
ATOM     16  C   UNL     1       3.338   6.497  17.863  0.00  0.00    +0.000 A 
ATOM     17  N   UNL     1       3.262   7.758  17.524  0.00  0.00    +0.000 NA
ATOM     18  C   UNL     1       2.546   8.577  18.354  0.00  0.00    +0.000 A 
ATOM     19  C   UNL     1       1.883   8.186  19.451  0.00  0.00    +0.000 A 
ATOM     20  C   UNL     1       2.035   6.779  19.871  0.00  0.00    +0.000 A 
ATOM     21  O   UNL     1       1.526   6.344  20.900  0.00  0.00    +0.000 OA
ATOM     22  N   UNL     1       2.758   5.969  18.998  0.00  0.00    +0.000 N 
ATOM     23  C   UNL     1       2.872   4.617  19.282  0.00  0.00    +0.000 A 
ENDBRANCH   1  19
BRANCH   8  24
ATOM     24  C   UNL     1      -4.342  11.255  17.866  0.00  0.00    +0.000 A 
ATOM     25  C   UNL     1      -5.183  10.451  18.673  0.00  0.00    +0.000 A 
ATOM     26  C   UNL     1      -6.568  10.638  18.714  0.00  0.00    +0.000 A 
ATOM     27  C   UNL     1      -7.146  11.656  17.967  0.00  0.00    +0.000 A 
ATOM     28  C   UNL     1      -6.335  12.469  17.187  0.00  0.00    +0.000 A 
ATOM     29  F   UNL     1      -6.884  13.473  16.493  0.00  0.00    +0.000 F 
ATOM     30  C   UNL     1      -4.956  12.274  17.125  0.00  0.00    +0.000 A 
ENDBRANCH   8  24
TORSDOF 2
ENDMDL
MODEL 6
REMARK VINA RESULT:      -7.7      4.901      9.948
REMARK  Name = 
REMARK  3 active torsions:
REMARK  status: ('A' for Active; 'I' for Inactive)
REMARK    1  A    between atoms: C_1  and  C_2
REMARK    2  A    between atoms: C_8  and  C_9
REMARK    3  A    between atoms: C_16  and  C_17
REMARK                            x       y       z     vdW  Elec       q    Type
REMARK                         _______ _______ _______ _____ _____    ______ ____
ROOT
ATOM      1  C   UNL     1      -1.125  10.830  19.393  0.00  0.00    +0.000 C 
ATOM      2  O   UNL     1      -2.027  10.807  18.566  0.00  0.00    +0.000 OA
ATOM      3  N   UNL     1       0.095  10.269  19.090  0.00  0.00    +0.000 N 
ATOM      4  C   UNL     1       0.390   9.970  17.684  0.00  0.00    +0.000 C 
ATOM      5  C   UNL     1       1.887   9.727  17.748  0.00  0.00    +0.000 C 
ATOM      6  C   UNL     1       1.821   8.803  18.932  0.00  0.00    +0.000 A 
ATOM      7  C   UNL     1       2.342   7.539  19.129  0.00  0.00    +0.000 A 
ATOM      8  C   UNL     1       1.911   6.818  20.265  0.00  0.00    +0.000 A 
ATOM      9  C   UNL     1       1.160   7.501  21.265  0.00  0.00    +0.000 A 
ATOM     10  C   UNL     1       0.608   8.765  21.042  0.00  0.00    +0.000 A 
ATOM     11  C   UNL     1       0.858   9.335  19.817  0.00  0.00    +0.000 A 
ENDROOT
BRANCH   1  19
ATOM     12  C   UNL     1      -5.048  15.279  23.853  0.00  0.00    +0.000 C 
ATOM     13  C   UNL     1      -3.771  14.583  23.502  0.00  0.00    +0.000 A 
ATOM     14  C   UNL     1      -2.636  14.666  24.388  0.00  0.00    +0.000 A 
ATOM     15  C   UNL     1      -1.490  14.048  24.100  0.00  0.00    +0.000 A 
ATOM     16  C   UNL     1      -1.406  13.223  22.868  0.00  0.00    +0.000 A 
ATOM     17  N   UNL     1      -0.289  12.583  22.631  0.00  0.00    +0.000 NA
ATOM     18  C   UNL     1      -0.250  11.813  21.500  0.00  0.00    +0.000 A 
ATOM     19  C   UNL     1      -1.269  11.626  20.649  0.00  0.00    +0.000 A 
ATOM     20  C   UNL     1      -2.499  12.410  20.880  0.00  0.00    +0.000 A 
ATOM     21  O   UNL     1      -3.458  12.362  20.116  0.00  0.00    +0.000 OA
ATOM     22  N   UNL     1      -2.512  13.172  22.046  0.00  0.00    +0.000 N 
ATOM     23  C   UNL     1      -3.664  13.870  22.373  0.00  0.00    +0.000 A 
ENDBRANCH   1  19
BRANCH   8  24
ATOM     24  C   UNL     1       2.065   5.345  20.328  0.00  0.00    +0.000 A 
ATOM     25  C   UNL     1       0.935   4.514  20.523  0.00  0.00    +0.000 A 
ATOM     26  C   UNL     1       1.026   3.119  20.484  0.00  0.00    +0.000 A 
ATOM     27  C   UNL     1       2.250   2.518  20.220  0.00  0.00    +0.000 A 
ATOM     28  C   UNL     1       3.365   3.316  20.005  0.00  0.00    +0.000 A 
ATOM     29  F   UNL     1       4.538   2.741  19.715  0.00  0.00    +0.000 F 
ATOM     30  C   UNL     1       3.285   4.707  20.063  0.00  0.00    +0.000 A 
ENDBRANCH   8  24
TORSDOF 2
ENDMDL
MODEL 7
REMARK VINA RESULT:      -7.6      4.801      9.497
REMARK  Name = 
REMARK  3 active torsions:
REMARK  status: ('A' for Active; 'I' for Inactive)
REMARK    1  A    between atoms: C_1  and  C_2
REMARK    2  A    between atoms: C_8  and  C_9
REMARK    3  A    between atoms: C_16  and  C_17
REMARK                            x       y       z     vdW  Elec       q    Type
REMARK                         _______ _______ _______ _____ _____    ______ ____
ROOT
ATOM      1  C   UNL     1      -0.731  10.906  19.101  0.00  0.00    +0.000 C 
ATOM      2  O   UNL     1      -1.539  10.952  18.182  0.00  0.00    +0.000 OA
ATOM      3  N   UNL     1       0.448  10.215  18.942  0.00  0.00    +0.000 N 
ATOM      4  C   UNL     1       0.857   9.848  17.581  0.00  0.00    +0.000 C 
ATOM      5  C   UNL     1       2.305   9.456  17.810  0.00  0.00    +0.000 C 
ATOM      6  C   UNL     1       2.018   8.577  18.995  0.00  0.00    +0.000 A 
ATOM      7  C   UNL     1       2.381   7.272  19.270  0.00  0.00    +0.000 A 
ATOM      8  C   UNL     1       1.760   6.632  20.365  0.00  0.00    +0.000 A 
ATOM      9  C   UNL     1       0.983   7.416  21.266  0.00  0.00    +0.000 A 
ATOM     10  C   UNL     1       0.592   8.723  20.963  0.00  0.00    +0.000 A 
ATOM     11  C   UNL     1       1.028   9.229  19.762  0.00  0.00    +0.000 A 
ENDROOT
BRANCH   1  19
ATOM     12  C   UNL     1       0.524  17.107  22.982  0.00  0.00    +0.000 C 
ATOM     13  C   UNL     1      -0.040  15.725  22.880  0.00  0.00    +0.000 A 
ATOM     14  C   UNL     1      -0.797  15.171  23.975  0.00  0.00    +0.000 A 
ATOM     15  C   UNL     1      -1.315  13.944  23.905  0.00  0.00    +0.000 A 
ATOM     16  C   UNL     1      -1.148  13.162  22.654  0.00  0.00    +0.000 A 
ATOM     17  N   UNL     1      -1.708  11.981  22.586  0.00  0.00    +0.000 NA
ATOM     18  C   UNL     1      -1.556  11.294  21.412  0.00  0.00    +0.000 A 
ATOM     19  C   UNL     1      -0.923  11.748  20.321  0.00  0.00    +0.000 A 
ATOM     20  C   UNL     1      -0.228  13.046  20.429  0.00  0.00    +0.000 A 
ATOM     21  O   UNL     1       0.438  13.510  19.509  0.00  0.00    +0.000 OA
ATOM     22  N   UNL     1      -0.414  13.725  21.631  0.00  0.00    +0.000 N 
ATOM     23  C   UNL     1       0.139  14.988  21.775  0.00  0.00    +0.000 A 
ENDBRANCH   1  19
BRANCH   8  24
ATOM     24  C   UNL     1       1.752   5.153  20.470  0.00  0.00    +0.000 A 
ATOM     25  C   UNL     1       2.330   4.512  21.592  0.00  0.00    +0.000 A 
ATOM     26  C   UNL     1       2.251   3.128  21.776  0.00  0.00    +0.000 A 
ATOM     27  C   UNL     1       1.566   2.350  20.852  0.00  0.00    +0.000 A 
ATOM     28  C   UNL     1       0.974   2.964  19.756  0.00  0.00    +0.000 A 
ATOM     29  F   UNL     1       0.283   2.223  18.882  0.00  0.00    +0.000 F 
ATOM     30  C   UNL     1       1.067   4.341  19.556  0.00  0.00    +0.000 A 
ENDBRANCH   8  24
TORSDOF 2
ENDMDL
MODEL 8
REMARK VINA RESULT:      -7.6      5.963     11.601
REMARK  Name = 
REMARK  3 active torsions:
REMARK  status: ('A' for Active; 'I' for Inactive)
REMARK    1  A    between atoms: C_1  and  C_2
REMARK    2  A    between atoms: C_8  and  C_9
REMARK    3  A    between atoms: C_16  and  C_17
REMARK                            x       y       z     vdW  Elec       q    Type
REMARK                         _______ _______ _______ _____ _____    ______ ____
ROOT
ATOM      1  C   UNL     1      -5.615  12.166  19.703  0.00  0.00    +0.000 C 
ATOM      2  O   UNL     1      -6.496  11.377  20.019  0.00  0.00    +0.000 OA
ATOM      3  N   UNL     1      -4.730  11.840  18.702  0.00  0.00    +0.000 N 
ATOM      4  C   UNL     1      -5.069  10.720  17.816  0.00  0.00    +0.000 C 
ATOM      5  C   UNL     1      -4.069  10.926  16.693  0.00  0.00    +0.000 C 
ATOM      6  C   UNL     1      -2.885  11.106  17.601  0.00  0.00    +0.000 A 
ATOM      7  C   UNL     1      -1.646  10.494  17.613  0.00  0.00    +0.000 A 
ATOM      8  C   UNL     1      -0.820  10.700  18.740  0.00  0.00    +0.000 A 
ATOM      9  C   UNL     1      -1.189  11.698  19.686  0.00  0.00    +0.000 A 
ATOM     10  C   UNL     1      -2.457  12.285  19.688  0.00  0.00    +0.000 A 
ATOM     11  C   UNL     1      -3.322  11.875  18.702  0.00  0.00    +0.000 A 
ENDROOT
BRANCH   1  19
ATOM     12  C   UNL     1      -4.264  16.958  25.208  0.00  0.00    +0.000 C 
ATOM     13  C   UNL     1      -4.820  16.653  23.852  0.00  0.00    +0.000 A 
ATOM     14  C   UNL     1      -5.366  17.712  23.041  0.00  0.00    +0.000 A 
ATOM     15  C   UNL     1      -5.860  17.466  21.827  0.00  0.00    +0.000 A 
ATOM     16  C   UNL     1      -5.799  16.082  21.291  0.00  0.00    +0.000 A 
ATOM     17  N   UNL     1      -6.242  15.871  20.078  0.00  0.00    +0.000 NA
ATOM     18  C   UNL     1      -6.152  14.590  19.604  0.00  0.00    +0.000 A 
ATOM     19  C   UNL     1      -5.608  13.554  20.258  0.00  0.00    +0.000 A 
ATOM     20  C   UNL     1      -5.180  13.781  21.653  0.00  0.00    +0.000 A 
ATOM     21  O   UNL     1      -4.739  12.877  22.357  0.00  0.00    +0.000 OA
ATOM     22  N   UNL     1      -5.273  15.097  22.100  0.00  0.00    +0.000 N 
ATOM     23  C   UNL     1      -4.812  15.402  23.372  0.00  0.00    +0.000 A 
ENDBRANCH   1  19
BRANCH   8  24
ATOM     24  C   UNL     1       0.297   9.771  19.036  0.00  0.00    +0.000 A 
ATOM     25  C   UNL     1       0.436   9.206  20.327  0.00  0.00    +0.000 A 
ATOM     26  C   UNL     1       1.413   8.248  20.615  0.00  0.00    +0.000 A 
ATOM     27  C   UNL     1       2.263   7.809  19.608  0.00  0.00    +0.000 A 
ATOM     28  C   UNL     1       2.128   8.336  18.331  0.00  0.00    +0.000 A 
ATOM     29  F   UNL     1       2.922   7.890  17.350  0.00  0.00    +0.000 F 
ATOM     30  C   UNL     1       1.169   9.306  18.041  0.00  0.00    +0.000 A 
ENDBRANCH   8  24
TORSDOF 2
ENDMDL
MODEL 9
REMARK VINA RESULT:      -7.5      7.811     11.960
REMARK  Name = 
REMARK  3 active torsions:
REMARK  status: ('A' for Active; 'I' for Inactive)
REMARK    1  A    between atoms: C_1  and  C_2
REMARK    2  A    between atoms: C_8  and  C_9
REMARK    3  A    between atoms: C_16  and  C_17
REMARK                            x       y       z     vdW  Elec       q    Type
REMARK                         _______ _______ _______ _____ _____    ______ ____
ROOT
ATOM      1  C   UNL     1      -5.896  13.045  23.470  0.00  0.00    +0.000 C 
ATOM      2  O   UNL     1      -6.118  12.157  24.283  0.00  0.00    +0.000 OA
ATOM      3  N   UNL     1      -6.369  12.929  22.183  0.00  0.00    +0.000 N 
ATOM      4  C   UNL     1      -7.407  11.926  21.915  0.00  0.00    +0.000 C 
ATOM      5  C   UNL     1      -7.883  12.362  20.542  0.00  0.00    +0.000 C 
ATOM      6  C   UNL     1      -6.503  12.494  19.960  0.00  0.00    +0.000 A 
ATOM      7  C   UNL     1      -5.950  11.978  18.804  0.00  0.00    +0.000 A 
ATOM      8  C   UNL     1      -4.550  12.079  18.640  0.00  0.00    +0.000 A 
ATOM      9  C   UNL     1      -3.814  12.903  19.539  0.00  0.00    +0.000 A 
ATOM     10  C   UNL     1      -4.373  13.391  20.723  0.00  0.00    +0.000 A 
ATOM     11  C   UNL     1      -5.686  13.065  20.960  0.00  0.00    +0.000 A 
ENDROOT
BRANCH   1  19
ATOM     12  C   UNL     1      -0.150  16.964  26.059  0.00  0.00    +0.000 C 
ATOM     13  C   UNL     1      -1.592  16.866  25.671  0.00  0.00    +0.000 A 
ATOM     14  C   UNL     1      -2.431  18.038  25.710  0.00  0.00    +0.000 A 
ATOM     15  C   UNL     1      -3.717  17.977  25.362  0.00  0.00    +0.000 A 
ATOM     16  C   UNL     1      -4.273  16.686  24.881  0.00  0.00    +0.000 A 
ATOM     17  N   UNL     1      -5.523  16.659  24.495  0.00  0.00    +0.000 NA
ATOM     18  C   UNL     1      -6.000  15.462  24.036  0.00  0.00    +0.000 A 
ATOM     19  C   UNL     1      -5.283  14.336  23.907  0.00  0.00    +0.000 A 
ATOM     20  C   UNL     1      -3.897  14.351  24.416  0.00  0.00    +0.000 A 
ATOM     21  O   UNL     1      -3.186  13.351  24.409  0.00  0.00    +0.000 OA
ATOM     22  N   UNL     1      -3.438  15.588  24.863  0.00  0.00    +0.000 N 
ATOM     23  C   UNL     1      -2.120  15.700  25.277  0.00  0.00    +0.000 A 
ENDBRANCH   1  19
BRANCH   8  24
ATOM     24  C   UNL     1      -3.837  11.200  17.682  0.00  0.00    +0.000 A 
ATOM     25  C   UNL     1      -4.320  11.042  16.360  0.00  0.00    +0.000 A 
ATOM     26  C   UNL     1      -3.619  10.305  15.400  0.00  0.00    +0.000 A 
ATOM     27  C   UNL     1      -2.400   9.729  15.731  0.00  0.00    +0.000 A 
ATOM     28  C   UNL     1      -1.900   9.892  17.016  0.00  0.00    +0.000 A 
ATOM     29  F   UNL     1      -0.709   9.368  17.329  0.00  0.00    +0.000 F 
ATOM     30  C   UNL     1      -2.603  10.607  17.985  0.00  0.00    +0.000 A 
ENDBRANCH   8  24
TORSDOF 2
ENDMDL
