MODEL 1
REMARK VINA RESULT:      -7.8      0.000      0.000
REMARK  Name = 
REMARK  3 active torsions:
REMARK  status: ('A' for Active; 'I' for Inactive)
REMARK    1  A    between atoms: C_1  and  C_2
REMARK    2  A    between atoms: C_4  and  C_5
REMARK    3  A    between atoms: C_16  and  C_17
REMARK                            x       y       z     vdW  Elec       q    Type
REMARK                         _______ _______ _______ _____ _____    ______ ____
ROOT
ATOM      1  C   UNL     1       4.228   4.816  17.127  0.00  0.00    +0.000 C 
ATOM      2  O   UNL     1       4.478   3.907  16.321  0.00  0.00    +0.000 OA
ATOM      3  N   UNL     1       2.873   4.984  17.581  0.00  0.00    +0.000 N 
ATOM      4  C   UNL     1       2.101   3.712  17.443  0.00  0.00    +0.000 C 
ATOM      5  C   UNL     1       2.571   2.805  18.577  0.00  0.00    +0.000 A 
ATOM      6  C   UNL     1       2.879   1.471  18.318  0.00  0.00    +0.000 A 
ATOM      7  C   UNL     1       3.932   0.889  19.016  0.00  0.00    +0.000 A 
ATOM      8  C   UNL     1       4.622   1.624  19.984  0.00  0.00    +0.000 A 
ATOM      9  C   UNL     1       4.155   2.875  20.390  0.00  0.00    +0.000 A 
ATOM     10  C   UNL     1       3.074   3.449  19.731  0.00  0.00    +0.000 A 
ATOM     11  C   UNL     1       2.570   4.834  20.072  0.00  0.00    +0.000 C 
ATOM     12  C   UNL     1       2.366   5.689  18.798  0.00  0.00    +0.000 C 
ENDROOT
BRANCH   1  16
ATOM     13  C   UNL     1       8.239   5.449  20.179  0.00  0.00    +0.000 C 
ATOM     14  C   UNL     1       7.409   5.882  19.003  0.00  0.00    +0.000 A 
ATOM     15  C   UNL     1       6.253   5.189  18.573  0.00  0.00    +0.000 A 
ATOM     16  C   UNL     1       5.444   5.638  17.481  0.00  0.00    +0.000 A 
ATOM     17  C   UNL     1       5.818   6.852  16.929  0.00  0.00    +0.000 A 
ATOM     18  F   UNL     1       5.040   7.507  16.066  0.00  0.00    +0.000 F 
ATOM     19  C   UNL     1       6.985   7.532  17.299  0.00  0.00    +0.000 A 
ATOM     20  C   UNL     1       7.773   7.034  18.321  0.00  0.00    +0.000 A 
ATOM     21  F   UNL     1       8.865   7.719  18.691  0.00  0.00    +0.000 F 
ENDBRANCH   1  16
BRANCH  12  22
ATOM     22  C   UNL     1       2.395   7.207  19.067  0.00  0.00    +0.000 C 
ATOM     23  N   UNL     1       2.204   7.600  20.358  0.00  0.00    +0.000 N 
ATOM     24  O   UNL     1       2.766   8.047  18.254  0.00  0.00    +0.000 OA
ATOM     25  H   UNL     1       2.240   6.923  21.110  0.00  0.00    +0.000 HD
ATOM     26  H   UNL     1       2.480   8.554  20.563  0.00  0.00    +0.000 HD
ENDBRANCH  12  22
TORSDOF 2
ENDMDL
MODEL 2
REMARK VINA RESULT:      -7.5      2.658      5.326
REMARK  Name = 
REMARK  3 active torsions:
REMARK  status: ('A' for Active; 'I' for Inactive)
REMARK    1  A    between atoms: C_1  and  C_2
REMARK    2  A    between atoms: C_4  and  C_5
REMARK    3  A    between atoms: C_16  and  C_17
REMARK                            x       y       z     vdW  Elec       q    Type
REMARK                         _______ _______ _______ _____ _____    ______ ____
ROOT
ATOM      1  C   UNL     1       5.027   4.665  18.733  0.00  0.00    +0.000 C 
ATOM      2  O   UNL     1       6.069   4.007  18.877  0.00  0.00    +0.000 OA
ATOM      3  N   UNL     1       5.126   6.092  18.580  0.00  0.00    +0.000 N 
ATOM      4  C   UNL     1       6.475   6.482  18.069  0.00  0.00    +0.000 C 
ATOM      5  C   UNL     1       6.484   6.130  16.584  0.00  0.00    +0.000 A 
ATOM      6  C   UNL     1       7.578   5.463  16.034  0.00  0.00    +0.000 A 
ATOM      7  C   UNL     1       7.344   4.526  15.033  0.00  0.00    +0.000 A 
ATOM      8  C   UNL     1       6.045   4.306  14.569  0.00  0.00    +0.000 A 
ATOM      9  C   UNL     1       4.999   5.141  14.966  0.00  0.00    +0.000 A 
ATOM     10  C   UNL     1       5.230   6.112  15.933  0.00  0.00    +0.000 A 
ATOM     11  C   UNL     1       4.121   6.997  16.462  0.00  0.00    +0.000 C 
ATOM     12  C   UNL     1       4.132   7.051  18.008  0.00  0.00    +0.000 C 
ENDROOT
BRANCH   1  16
ATOM     13  C   UNL     1       1.253   2.719  21.520  0.00  0.00    +0.000 C 
ATOM     14  C   UNL     1       1.941   2.903  20.196  0.00  0.00    +0.000 A 
ATOM     15  C   UNL     1       3.109   3.683  20.032  0.00  0.00    +0.000 A 
ATOM     16  C   UNL     1       3.782   3.811  18.775  0.00  0.00    +0.000 A 
ATOM     17  C   UNL     1       3.264   3.044  17.746  0.00  0.00    +0.000 A 
ATOM     18  F   UNL     1       3.908   2.881  16.590  0.00  0.00    +0.000 F 
ATOM     19  C   UNL     1       2.080   2.304  17.866  0.00  0.00    +0.000 A 
ATOM     20  C   UNL     1       1.426   2.253  19.083  0.00  0.00    +0.000 A 
ATOM     21  F   UNL     1       0.316   1.507  19.193  0.00  0.00    +0.000 F 
ENDBRANCH   1  16
BRANCH  12  22
ATOM     22  C   UNL     1       2.773   7.448  18.618  0.00  0.00    +0.000 C 
ATOM     23  N   UNL     1       2.574   7.117  19.926  0.00  0.00    +0.000 N 
ATOM     24  O   UNL     1       1.964   8.196  18.080  0.00  0.00    +0.000 OA
ATOM     25  H   UNL     1       3.349   6.809  20.499  0.00  0.00    +0.000 HD
ATOM     26  H   UNL     1       1.808   7.601  20.381  0.00  0.00    +0.000 HD
ENDBRANCH  12  22
TORSDOF 2
ENDMDL
MODEL 3
REMARK VINA RESULT:      -7.3      2.467      4.973
REMARK  Name = 
REMARK  3 active torsions:
REMARK  status: ('A' for Active; 'I' for Inactive)
REMARK    1  A    between atoms: C_1  and  C_2
REMARK    2  A    between atoms: C_4  and  C_5
REMARK    3  A    between atoms: C_16  and  C_17
REMARK                            x       y       z     vdW  Elec       q    Type
REMARK                         _______ _______ _______ _____ _____    ______ ____
ROOT
ATOM      1  C   UNL     1       3.737   6.342  17.218  0.00  0.00    +0.000 C 
ATOM      2  O   UNL     1       4.465   7.113  16.576  0.00  0.00    +0.000 OA
ATOM      3  N   UNL     1       3.762   4.939  16.897  0.00  0.00    +0.000 N 
ATOM      4  C   UNL     1       5.049   4.566  16.234  0.00  0.00    +0.000 C 
ATOM      5  C   UNL     1       6.100   4.528  17.340  0.00  0.00    +0.000 A 
ATOM      6  C   UNL     1       7.338   5.137  17.144  0.00  0.00    +0.000 A 
ATOM      7  C   UNL     1       7.946   5.761  18.228  0.00  0.00    +0.000 A 
ATOM      8  C   UNL     1       7.340   5.727  19.487  0.00  0.00    +0.000 A 
ATOM      9  C   UNL     1       6.223   4.922  19.714  0.00  0.00    +0.000 A 
ATOM     10  C   UNL     1       5.632   4.256  18.646  0.00  0.00    +0.000 A 
ATOM     11  C   UNL     1       4.374   3.431  18.813  0.00  0.00    +0.000 C 
ATOM     12  C   UNL     1       3.327   3.773  17.726  0.00  0.00    +0.000 C 
ENDROOT
BRANCH   1  16
ATOM     13  C   UNL     1       0.973  10.428  18.424  0.00  0.00    +0.000 C 
ATOM     14  C   UNL     1       1.530   9.077  18.773  0.00  0.00    +0.000 A 
ATOM     15  C   UNL     1       2.328   8.316  17.887  0.00  0.00    +0.000 A 
ATOM     16  C   UNL     1       2.893   7.051  18.250  0.00  0.00    +0.000 A 
ATOM     17  C   UNL     1       2.681   6.663  19.562  0.00  0.00    +0.000 A 
ATOM     18  F   UNL     1       3.327   5.633  20.109  0.00  0.00    +0.000 F 
ATOM     19  C   UNL     1       1.853   7.371  20.443  0.00  0.00    +0.000 A 
ATOM     20  C   UNL     1       1.277   8.560  20.036  0.00  0.00    +0.000 A 
ATOM     21  F   UNL     1       0.521   9.246  20.905  0.00  0.00    +0.000 F 
ENDBRANCH   1  16
BRANCH  12  22
ATOM     22  C   UNL     1       1.883   3.413  18.129  0.00  0.00    +0.000 C 
ATOM     23  N   UNL     1       1.720   2.834  19.352  0.00  0.00    +0.000 N 
ATOM     24  O   UNL     1       0.883   3.785  17.525  0.00  0.00    +0.000 OA
ATOM     25  H   UNL     1       2.479   2.827  20.021  0.00  0.00    +0.000 HD
ATOM     26  H   UNL     1       0.770   2.843  19.709  0.00  0.00    +0.000 HD
ENDBRANCH  12  22
TORSDOF 2
ENDMDL
MODEL 4
REMARK VINA RESULT:      -7.2      2.782      4.250
REMARK  Name = 
REMARK  3 active torsions:
REMARK  status: ('A' for Active; 'I' for Inactive)
REMARK    1  A    between atoms: C_1  and  C_2
REMARK    2  A    between atoms: C_4  and  C_5
REMARK    3  A    between atoms: C_16  and  C_17
REMARK                            x       y       z     vdW  Elec       q    Type
REMARK                         _______ _______ _______ _____ _____    ______ ____
ROOT
ATOM      1  C   UNL     1       4.729   6.062  17.195  0.00  0.00    +0.000 C 
ATOM      2  O   UNL     1       3.666   6.622  16.888  0.00  0.00    +0.000 OA
ATOM      3  N   UNL     1       5.045   5.898  18.589  0.00  0.00    +0.000 N 
ATOM      4  C   UNL     1       3.806   5.925  19.425  0.00  0.00    +0.000 C 
ATOM      5  C   UNL     1       3.127   4.573  19.221  0.00  0.00    +0.000 A 
ATOM      6  C   UNL     1       1.756   4.512  18.980  0.00  0.00    +0.000 A 
ATOM      7  C   UNL     1       1.282   3.540  18.106  0.00  0.00    +0.000 A 
ATOM      8  C   UNL     1       2.166   2.623  17.530  0.00  0.00    +0.000 A 
ATOM      9  C   UNL     1       3.493   2.554  17.959  0.00  0.00    +0.000 A 
ATOM     10  C   UNL     1       3.968   3.493  18.867  0.00  0.00    +0.000 A 
ATOM     11  C   UNL     1       5.415   3.518  19.311  0.00  0.00    +0.000 C 
ATOM     12  C   UNL     1       6.003   4.948  19.234  0.00  0.00    +0.000 C 
ENDROOT
BRANCH   1  16
ATOM     13  C   UNL     1       5.056   3.296  12.948  0.00  0.00    +0.000 C 
ATOM     14  C   UNL     1       5.641   4.294  13.907  0.00  0.00    +0.000 A 
ATOM     15  C   UNL     1       4.964   4.748  15.063  0.00  0.00    +0.000 A 
ATOM     16  C   UNL     1       5.552   5.662  15.994  0.00  0.00    +0.000 A 
ATOM     17  C   UNL     1       6.869   6.003  15.736  0.00  0.00    +0.000 A 
ATOM     18  F   UNL     1       7.618   6.657  16.625  0.00  0.00    +0.000 F 
ATOM     19  C   UNL     1       7.546   5.610  14.575  0.00  0.00    +0.000 A 
ATOM     20  C   UNL     1       6.922   4.773  13.668  0.00  0.00    +0.000 A 
ATOM     21  F   UNL     1       7.599   4.372  12.582  0.00  0.00    +0.000 F 
ENDBRANCH   1  16
BRANCH  12  22
ATOM     22  C   UNL     1       7.541   4.974  19.131  0.00  0.00    +0.000 C 
ATOM     23  N   UNL     1       8.208   5.584  20.152  0.00  0.00    +0.000 N 
ATOM     24  O   UNL     1       8.191   4.327  18.318  0.00  0.00    +0.000 OA
ATOM     25  H   UNL     1       7.725   5.823  21.008  0.00  0.00    +0.000 HD
ATOM     26  H   UNL     1       9.198   5.371  20.207  0.00  0.00    +0.000 HD
ENDBRANCH  12  22
TORSDOF 2
ENDMDL
MODEL 5
REMARK VINA RESULT:      -7.1      1.758      2.275
REMARK  Name = 
REMARK  3 active torsions:
REMARK  status: ('A' for Active; 'I' for Inactive)
REMARK    1  A    between atoms: C_1  and  C_2
REMARK    2  A    between atoms: C_4  and  C_5
REMARK    3  A    between atoms: C_16  and  C_17
REMARK                            x       y       z     vdW  Elec       q    Type
REMARK                         _______ _______ _______ _____ _____    ______ ____
ROOT
ATOM      1  C   UNL     1       3.703   4.587  17.791  0.00  0.00    +0.000 C 
ATOM      2  O   UNL     1       3.766   3.407  17.415  0.00  0.00    +0.000 OA
ATOM      3  N   UNL     1       2.430   5.258  17.751  0.00  0.00    +0.000 N 
ATOM      4  C   UNL     1       1.306   4.274  17.792  0.00  0.00    +0.000 C 
ATOM      5  C   UNL     1       1.221   3.787  19.236  0.00  0.00    +0.000 A 
ATOM      6  C   UNL     1       1.093   2.425  19.504  0.00  0.00    +0.000 A 
ATOM      7  C   UNL     1       1.735   1.909  20.624  0.00  0.00    +0.000 A 
ATOM      8  C   UNL     1       2.448   2.758  21.476  0.00  0.00    +0.000 A 
ATOM      9  C   UNL     1       2.375   4.143  21.320  0.00  0.00    +0.000 A 
ATOM     10  C   UNL     1       1.697   4.674  20.229  0.00  0.00    +0.000 A 
ATOM     11  C   UNL     1       1.648   6.163  19.962  0.00  0.00    +0.000 C 
ATOM     12  C   UNL     1       1.985   6.482  18.486  0.00  0.00    +0.000 C 
ENDROOT
BRANCH   1  16
ATOM     13  C   UNL     1       7.579   7.700  16.749  0.00  0.00    +0.000 C 
ATOM     14  C   UNL     1       6.906   6.707  17.654  0.00  0.00    +0.000 A 
ATOM     15  C   UNL     1       5.650   6.123  17.367  0.00  0.00    +0.000 A 
ATOM     16  C   UNL     1       5.042   5.142  18.214  0.00  0.00    +0.000 A 
ATOM     17  C   UNL     1       5.810   4.734  19.291  0.00  0.00    +0.000 A 
ATOM     18  F   UNL     1       5.482   3.675  20.033  0.00  0.00    +0.000 F 
ATOM     19  C   UNL     1       7.031   5.330  19.628  0.00  0.00    +0.000 A 
ATOM     20  C   UNL     1       7.559   6.318  18.815  0.00  0.00    +0.000 A 
ATOM     21  F   UNL     1       8.749   6.850  19.130  0.00  0.00    +0.000 F 
ENDBRANCH   1  16
BRANCH  12  22
ATOM     22  C   UNL     1       2.486   7.924  18.268  0.00  0.00    +0.000 C 
ATOM     23  N   UNL     1       1.936   8.885  19.064  0.00  0.00    +0.000 N 
ATOM     24  O   UNL     1       3.460   8.222  17.587  0.00  0.00    +0.000 OA
ATOM     25  H   UNL     1       1.383   8.626  19.871  0.00  0.00    +0.000 HD
ATOM     26  H   UNL     1       2.446   9.761  19.096  0.00  0.00    +0.000 HD
ENDBRANCH  12  22
TORSDOF 2
ENDMDL
MODEL 6
REMARK VINA RESULT:      -6.9      9.029     11.640
REMARK  Name = 
REMARK  3 active torsions:
REMARK  status: ('A' for Active; 'I' for Inactive)
REMARK    1  A    between atoms: C_1  and  C_2
REMARK    2  A    between atoms: C_4  and  C_5
REMARK    3  A    between atoms: C_16  and  C_17
REMARK                            x       y       z     vdW  Elec       q    Type
REMARK                         _______ _______ _______ _____ _____    ______ ____
ROOT
ATOM      1  C   UNL     1       9.951  14.801  20.012  0.00  0.00    +0.000 C 
ATOM      2  O   UNL     1       9.876  14.272  21.131  0.00  0.00    +0.000 OA
ATOM      3  N   UNL     1      11.176  14.677  19.269  0.00  0.00    +0.000 N 
ATOM      4  C   UNL     1      11.953  13.481  19.715  0.00  0.00    +0.000 C 
ATOM      5  C   UNL     1      11.243  12.268  19.118  0.00  0.00    +0.000 A 
ATOM      6  C   UNL     1      10.990  11.150  19.910  0.00  0.00    +0.000 A 
ATOM      7  C   UNL     1       9.808  10.447  19.703  0.00  0.00    +0.000 A 
ATOM      8  C   UNL     1       8.929  10.838  18.689  0.00  0.00    +0.000 A 
ATOM      9  C   UNL     1       9.305  11.812  17.762  0.00  0.00    +0.000 A 
ATOM     10  C   UNL     1      10.506  12.490  17.932  0.00  0.00    +0.000 A 
ATOM     11  C   UNL     1      10.932  13.610  17.007  0.00  0.00    +0.000 C 
ATOM     12  C   UNL     1      11.412  14.847  17.802  0.00  0.00    +0.000 C 
ENDROOT
BRANCH   1  16
ATOM     13  C   UNL     1       5.341  14.606  17.890  0.00  0.00    +0.000 C 
ATOM     14  C   UNL     1       6.426  15.374  18.590  0.00  0.00    +0.000 A 
ATOM     15  C   UNL     1       7.646  14.788  19.004  0.00  0.00    +0.000 A 
ATOM     16  C   UNL     1       8.692  15.541  19.627  0.00  0.00    +0.000 A 
ATOM     17  C   UNL     1       8.467  16.904  19.715  0.00  0.00    +0.000 A 
ATOM     18  F   UNL     1       9.431  17.760  20.058  0.00  0.00    +0.000 F 
ATOM     19  C   UNL     1       7.251  17.502  19.362  0.00  0.00    +0.000 A 
ATOM     20  C   UNL     1       6.241  16.730  18.817  0.00  0.00    +0.000 A 
ATOM     21  F   UNL     1       5.098  17.325  18.445  0.00  0.00    +0.000 F 
ENDBRANCH   1  16
BRANCH  12  22
ATOM     22  C   UNL     1      11.335  16.161  17.000  0.00  0.00    +0.000 C 
ATOM     23  N   UNL     1      10.596  16.131  15.854  0.00  0.00    +0.000 N 
ATOM     24  O   UNL     1      11.717  17.249  17.416  0.00  0.00    +0.000 OA
ATOM     25  H   UNL     1       9.984  15.349  15.660  0.00  0.00    +0.000 HD
ATOM     26  H   UNL     1      10.340  17.040  15.483  0.00  0.00    +0.000 HD
ENDBRANCH  12  22
TORSDOF 2
ENDMDL
MODEL 7
REMARK VINA RESULT:      -6.7      2.271      4.669
REMARK  Name = 
REMARK  3 active torsions:
REMARK  status: ('A' for Active; 'I' for Inactive)
REMARK    1  A    between atoms: C_1  and  C_2
REMARK    2  A    between atoms: C_4  and  C_5
REMARK    3  A    between atoms: C_16  and  C_17
REMARK                            x       y       z     vdW  Elec       q    Type
REMARK                         _______ _______ _______ _____ _____    ______ ____
ROOT
ATOM      1  C   UNL     1       4.823   4.948  19.105  0.00  0.00    +0.000 C 
ATOM      2  O   UNL     1       5.248   5.802  19.897  0.00  0.00    +0.000 OA
ATOM      3  N   UNL     1       3.676   4.164  19.484  0.00  0.00    +0.000 N 
ATOM      4  C   UNL     1       2.858   4.876  20.512  0.00  0.00    +0.000 C 
ATOM      5  C   UNL     1       2.103   5.974  19.767  0.00  0.00    +0.000 A 
ATOM      6  C   UNL     1       2.056   7.265  20.290  0.00  0.00    +0.000 A 
ATOM      7  C   UNL     1       2.084   8.337  19.405  0.00  0.00    +0.000 A 
ATOM      8  C   UNL     1       2.111   8.108  18.027  0.00  0.00    +0.000 A 
ATOM      9  C   UNL     1       1.926   6.821  17.519  0.00  0.00    +0.000 A 
ATOM     10  C   UNL     1       1.850   5.745  18.395  0.00  0.00    +0.000 A 
ATOM     11  C   UNL     1       1.728   4.318  17.904  0.00  0.00    +0.000 C 
ATOM     12  C   UNL     1       2.736   3.388  18.618  0.00  0.00    +0.000 C 
ENDROOT
BRANCH   1  16
ATOM     13  C   UNL     1       4.883   4.245  14.076  0.00  0.00    +0.000 C 
ATOM     14  C   UNL     1       5.601   4.527  15.365  0.00  0.00    +0.000 A 
ATOM     15  C   UNL     1       4.940   4.638  16.612  0.00  0.00    +0.000 A 
ATOM     16  C   UNL     1       5.641   4.859  17.840  0.00  0.00    +0.000 A 
ATOM     17  C   UNL     1       7.022   4.867  17.740  0.00  0.00    +0.000 A 
ATOM     18  F   UNL     1       7.810   4.834  18.815  0.00  0.00    +0.000 F 
ATOM     19  C   UNL     1       7.699   4.811  16.515  0.00  0.00    +0.000 A 
ATOM     20  C   UNL     1       6.982   4.656  15.342  0.00  0.00    +0.000 A 
ATOM     21  F   UNL     1       7.648   4.563  14.182  0.00  0.00    +0.000 F 
ENDBRANCH   1  16
BRANCH  12  22
ATOM     22  C   UNL     1       3.056   2.105  17.826  0.00  0.00    +0.000 C 
ATOM     23  N   UNL     1       3.935   1.236  18.403  0.00  0.00    +0.000 N 
ATOM     24  O   UNL     1       2.439   1.731  16.835  0.00  0.00    +0.000 OA
ATOM     25  H   UNL     1       4.198   1.345  19.374  0.00  0.00    +0.000 HD
ATOM     26  H   UNL     1       3.936   0.301  18.011  0.00  0.00    +0.000 HD
ENDBRANCH  12  22
TORSDOF 2
ENDMDL
MODEL 8
REMARK VINA RESULT:      -6.7      2.122      2.298
REMARK  Name = 
REMARK  3 active torsions:
REMARK  status: ('A' for Active; 'I' for Inactive)
REMARK    1  A    between atoms: C_1  and  C_2
REMARK    2  A    between atoms: C_4  and  C_5
REMARK    3  A    between atoms: C_16  and  C_17
REMARK                            x       y       z     vdW  Elec       q    Type
REMARK                         _______ _______ _______ _____ _____    ______ ____
ROOT
ATOM      1  C   UNL     1       3.115   4.006  17.464  0.00  0.00    +0.000 C 
ATOM      2  O   UNL     1       2.775   2.825  17.294  0.00  0.00    +0.000 OA
ATOM      3  N   UNL     1       2.091   4.999  17.654  0.00  0.00    +0.000 N 
ATOM      4  C   UNL     1       0.832   4.378  18.165  0.00  0.00    +0.000 C 
ATOM      5  C   UNL     1       1.079   4.072  19.641  0.00  0.00    +0.000 A 
ATOM      6  C   UNL     1       0.716   2.833  20.164  0.00  0.00    +0.000 A 
ATOM      7  C   UNL     1       1.527   2.266  21.142  0.00  0.00    +0.000 A 
ATOM      8  C   UNL     1       2.648   2.957  21.610  0.00  0.00    +0.000 A 
ATOM      9  C   UNL     1       2.865   4.286  21.242  0.00  0.00    +0.000 A 
ATOM     10  C   UNL     1       2.033   4.880  20.300  0.00  0.00    +0.000 A 
ATOM     11  C   UNL     1       2.263   6.291  19.803  0.00  0.00    +0.000 C 
ATOM     12  C   UNL     1       2.199   6.362  18.259  0.00  0.00    +0.000 C 
ENDROOT
BRANCH   1  16
ATOM     13  C   UNL     1       7.350   5.415  19.887  0.00  0.00    +0.000 C 
ATOM     14  C   UNL     1       6.659   4.887  18.661  0.00  0.00    +0.000 A 
ATOM     15  C   UNL     1       5.264   4.658  18.597  0.00  0.00    +0.000 A 
ATOM     16  C   UNL     1       4.611   4.202  17.408  0.00  0.00    +0.000 A 
ATOM     17  C   UNL     1       5.425   4.085  16.293  0.00  0.00    +0.000 A 
ATOM     18  F   UNL     1       4.928   3.893  15.071  0.00  0.00    +0.000 F 
ATOM     19  C   UNL     1       6.814   4.255  16.342  0.00  0.00    +0.000 A 
ATOM     20  C   UNL     1       7.417   4.641  17.525  0.00  0.00    +0.000 A 
ATOM     21  F   UNL     1       8.743   4.839  17.544  0.00  0.00    +0.000 F 
ENDBRANCH   1  16
BRANCH  12  22
ATOM     22  C   UNL     1       2.939   7.579  17.669  0.00  0.00    +0.000 C 
ATOM     23  N   UNL     1       2.282   8.773  17.718  0.00  0.00    +0.000 N 
ATOM     24  O   UNL     1       4.123   7.581  17.350  0.00  0.00    +0.000 OA
ATOM     25  H   UNL     1       1.450   8.876  18.284  0.00  0.00    +0.000 HD
ATOM     26  H   UNL     1       2.864   9.591  17.574  0.00  0.00    +0.000 HD
ENDBRANCH  12  22
TORSDOF 2
ENDMDL
MODEL 9
REMARK VINA RESULT:      -6.5      2.343      2.925
REMARK  Name = 
REMARK  3 active torsions:
REMARK  status: ('A' for Active; 'I' for Inactive)
REMARK    1  A    between atoms: C_1  and  C_2
REMARK    2  A    between atoms: C_4  and  C_5
REMARK    3  A    between atoms: C_16  and  C_17
REMARK                            x       y       z     vdW  Elec       q    Type
REMARK                         _______ _______ _______ _____ _____    ______ ____
ROOT
ATOM      1  C   UNL     1       2.894   3.932  17.517  0.00  0.00    +0.000 C 
ATOM      2  O   UNL     1       2.555   2.747  17.379  0.00  0.00    +0.000 OA
ATOM      3  N   UNL     1       1.876   4.917  17.767  0.00  0.00    +0.000 N 
ATOM      4  C   UNL     1       0.659   4.289  18.366  0.00  0.00    +0.000 C 
ATOM      5  C   UNL     1       1.006   3.997  19.824  0.00  0.00    +0.000 A 
ATOM      6  C   UNL     1       0.691   2.759  20.380  0.00  0.00    +0.000 A 
ATOM      7  C   UNL     1       1.570   2.207  21.305  0.00  0.00    +0.000 A 
ATOM      8  C   UNL     1       2.714   2.912  21.692  0.00  0.00    +0.000 A 
ATOM      9  C   UNL     1       2.893   4.240  21.302  0.00  0.00    +0.000 A 
ATOM     10  C   UNL     1       1.995   4.819  20.412  0.00  0.00    +0.000 A 
ATOM     11  C   UNL     1       2.178   6.228  19.891  0.00  0.00    +0.000 C 
ATOM     12  C   UNL     1       2.011   6.286  18.354  0.00  0.00    +0.000 C 
ENDROOT
BRANCH   1  16
ATOM     13  C   UNL     1       6.835   4.514  14.367  0.00  0.00    +0.000 C 
ATOM     14  C   UNL     1       6.273   4.442  15.758  0.00  0.00    +0.000 A 
ATOM     15  C   UNL     1       4.897   4.255  16.030  0.00  0.00    +0.000 A 
ATOM     16  C   UNL     1       4.381   4.140  17.360  0.00  0.00    +0.000 A 
ATOM     17  C   UNL     1       5.334   4.133  18.365  0.00  0.00    +0.000 A 
ATOM     18  F   UNL     1       5.033   3.808  19.623  0.00  0.00    +0.000 F 
ATOM     19  C   UNL     1       6.694   4.367  18.130  0.00  0.00    +0.000 A 
ATOM     20  C   UNL     1       7.146   4.533  16.833  0.00  0.00    +0.000 A 
ATOM     21  F   UNL     1       8.458   4.715  16.622  0.00  0.00    +0.000 F 
ENDBRANCH   1  16
BRANCH  12  22
ATOM     22  C   UNL     1       2.699   7.505  17.707  0.00  0.00    +0.000 C 
ATOM     23  N   UNL     1       1.997   8.674  17.714  0.00  0.00    +0.000 N 
ATOM     24  O   UNL     1       3.879   7.539  17.377  0.00  0.00    +0.000 OA
ATOM     25  H   UNL     1       1.165   8.768  18.283  0.00  0.00    +0.000 HD
ATOM     26  H   UNL     1       2.546   9.507  17.530  0.00  0.00    +0.000 HD
ENDBRANCH  12  22
TORSDOF 2
ENDMDL
