MODEL 1
REMARK VINA RESULT:      -8.9      0.000      0.000
REMARK  Name = 
REMARK  5 active torsions:
REMARK  status: ('A' for Active; 'I' for Inactive)
REMARK    1  A    between atoms: C_2  and  C_3
REMARK    2  A    between atoms: C_3  and  C_4
REMARK    3  A    between atoms: C_4  and  C_5
REMARK    4  A    between atoms: C_8  and  C_9
REMARK    5  A    between atoms: C_24  and  O_25
REMARK                            x       y       z     vdW  Elec       q    Type
REMARK                         _______ _______ _______ _____ _____    ______ ____
ROOT
ATOM      1  C   UNL     1       2.598   3.388  20.655  0.00  0.00    +0.000 C 
ENDROOT
BRANCH   1   3
ATOM      2  O   UNL     1       2.011   2.071  18.736  0.00  0.00    +0.000 OA
ATOM      3  C   UNL     1       2.823   2.832  19.260  0.00  0.00    +0.000 C 
ATOM      4  N   UNL     1       3.954   3.293  18.597  0.00  0.00    +0.000 N 
ATOM      5  C   UNL     1       4.158   2.962  17.190  0.00  0.00    +0.000 C 
ATOM      6  C   UNL     1       4.589   4.204  16.402  0.00  0.00    +0.000 C 
ATOM      7  C   UNL     1       5.669   4.995  17.102  0.00  0.00    +0.000 A 
ATOM      8  C   UNL     1       6.387   5.979  16.404  0.00  0.00    +0.000 A 
ATOM      9  C   UNL     1       7.361   6.741  17.052  0.00  0.00    +0.000 A 
ATOM     10  C   UNL     1       7.619   6.519  18.398  0.00  0.00    +0.000 A 
ATOM     11  C   UNL     1       6.910   5.560  19.109  0.00  0.00    +0.000 A 
ATOM     12  C   UNL     1       5.913   4.806  18.475  0.00  0.00    +0.000 A 
ATOM     13  C   UNL     1       5.140   3.798  19.284  0.00  0.00    +0.000 C 
BRANCH  10  14
ATOM     14  O   UNL     1       8.562   7.235  19.075  0.00  0.00    +0.000 OA
ATOM     15  H   UNL     1       9.165   7.638  18.431  0.00  0.00    +0.000 HD
ENDBRANCH  10  14
ENDBRANCH   1   3
BRANCH   1  16
ATOM     16  C   UNL     1       1.319   4.212  20.768  0.00  0.00    +0.000 C 
BRANCH  16  17
ATOM     17  C   UNL     1       1.625   5.648  20.537  0.00  0.00    +0.000 A 
ATOM     18  N   UNL     1       2.472   6.173  19.677  0.00  0.00    +0.000 NA
ATOM     19  C   UNL     1       2.291   7.525  19.828  0.00  0.00    +0.000 A 
ATOM     20  C   UNL     1       1.323   7.781  20.775  0.00  0.00    +0.000 A 
ATOM     21  O   UNL     1       0.891   6.564  21.244  0.00  0.00    +0.000 OA
BRANCH  20  22
ATOM     22  C   UNL     1       0.688   8.977  21.317  0.00  0.00    +0.000 A 
ATOM     23  C   UNL     1       0.115   8.986  22.602  0.00  0.00    +0.000 A 
ATOM     24  C   UNL     1      -0.520  10.128  23.095  0.00  0.00    +0.000 A 
ATOM     25  C   UNL     1      -0.589  11.273  22.308  0.00  0.00    +0.000 A 
ATOM     26  F   UNL     1      -1.211  12.362  22.778  0.00  0.00    +0.000 F 
ATOM     27  C   UNL     1      -0.024  11.301  21.043  0.00  0.00    +0.000 A 
ATOM     28  C   UNL     1       0.609  10.158  20.561  0.00  0.00    +0.000 A 
ATOM     29  F   UNL     1       1.145  10.217  19.331  0.00  0.00    +0.000 F 
ENDBRANCH  20  22
ENDBRANCH  16  17
ENDBRANCH   1  16
TORSDOF 5
ENDMDL
MODEL 2
REMARK VINA RESULT:      -8.4      5.202      8.250
REMARK  Name = 
REMARK  5 active torsions:
REMARK  status: ('A' for Active; 'I' for Inactive)
REMARK    1  A    between atoms: C_2  and  C_3
REMARK    2  A    between atoms: C_3  and  C_4
REMARK    3  A    between atoms: C_4  and  C_5
REMARK    4  A    between atoms: C_8  and  C_9
REMARK    5  A    between atoms: C_24  and  O_25
REMARK                            x       y       z     vdW  Elec       q    Type
REMARK                         _______ _______ _______ _____ _____    ______ ____
ROOT
ATOM      1  C   UNL     1       7.577   7.159  17.750  0.00  0.00    +0.000 C 
ENDROOT
BRANCH   1   3
ATOM      2  O   UNL     1       7.681   5.742  15.814  0.00  0.00    +0.000 OA
ATOM      3  C   UNL     1       7.004   6.174  16.747  0.00  0.00    +0.000 C 
ATOM      4  N   UNL     1       5.706   5.741  16.993  0.00  0.00    +0.000 N 
ATOM      5  C   UNL     1       5.135   4.660  16.195  0.00  0.00    +0.000 C 
ATOM      6  C   UNL     1       4.425   3.643  17.096  0.00  0.00    +0.000 C 
ATOM      7  C   UNL     1       3.540   4.297  18.131  0.00  0.00    +0.000 A 
ATOM      8  C   UNL     1       2.596   3.534  18.835  0.00  0.00    +0.000 A 
ATOM      9  C   UNL     1       1.798   4.120  19.820  0.00  0.00    +0.000 A 
ATOM     10  C   UNL     1       1.943   5.473  20.099  0.00  0.00    +0.000 A 
ATOM     11  C   UNL     1       2.880   6.242  19.423  0.00  0.00    +0.000 A 
ATOM     12  C   UNL     1       3.703   5.657  18.450  0.00  0.00    +0.000 A 
ATOM     13  C   UNL     1       4.732   6.514  17.760  0.00  0.00    +0.000 C 
BRANCH  10  14
ATOM     14  O   UNL     1       1.186   6.094  21.049  0.00  0.00    +0.000 OA
ATOM     15  H   UNL     1       1.102   7.031  20.813  0.00  0.00    +0.000 HD
ENDBRANCH  10  14
ENDBRANCH   1   3
BRANCH   1  16
ATOM     16  C   UNL     1       7.280   8.612  17.393  0.00  0.00    +0.000 C 
BRANCH  16  17
ATOM     17  C   UNL     1       8.234   9.507  18.099  0.00  0.00    +0.000 A 
ATOM     18  N   UNL     1       8.951   9.251  19.173  0.00  0.00    +0.000 NA
ATOM     19  C   UNL     1       9.707  10.384  19.335  0.00  0.00    +0.000 A 
ATOM     20  C   UNL     1       9.434  11.296  18.340  0.00  0.00    +0.000 A 
ATOM     21  O   UNL     1       8.471  10.734  17.536  0.00  0.00    +0.000 OA
BRANCH  20  22
ATOM     22  C   UNL     1       9.934  12.615  17.969  0.00  0.00    +0.000 A 
ATOM     23  C   UNL     1      11.096  12.769  17.192  0.00  0.00    +0.000 A 
ATOM     24  C   UNL     1      11.582  14.039  16.873  0.00  0.00    +0.000 A 
ATOM     25  C   UNL     1      10.910  15.169  17.329  0.00  0.00    +0.000 A 
ATOM     26  F   UNL     1      11.387  16.385  17.033  0.00  0.00    +0.000 F 
ATOM     27  C   UNL     1       9.756  15.052  18.087  0.00  0.00    +0.000 A 
ATOM     28  C   UNL     1       9.278  13.781  18.397  0.00  0.00    +0.000 A 
ATOM     29  F   UNL     1       8.158  13.702  19.134  0.00  0.00    +0.000 F 
ENDBRANCH  20  22
ENDBRANCH  16  17
ENDBRANCH   1  16
TORSDOF 5
ENDMDL
MODEL 3
REMARK VINA RESULT:      -8.4      5.441      8.318
REMARK  Name = 
REMARK  5 active torsions:
REMARK  status: ('A' for Active; 'I' for Inactive)
REMARK    1  A    between atoms: C_2  and  C_3
REMARK    2  A    between atoms: C_3  and  C_4
REMARK    3  A    between atoms: C_4  and  C_5
REMARK    4  A    between atoms: C_8  and  C_9
REMARK    5  A    between atoms: C_24  and  O_25
REMARK                            x       y       z     vdW  Elec       q    Type
REMARK                         _______ _______ _______ _____ _____    ______ ____
ROOT
ATOM      1  C   UNL     1       7.545   7.242  17.693  0.00  0.00    +0.000 C 
ENDROOT
BRANCH   1   3
ATOM      2  O   UNL     1       7.704   5.921  15.694  0.00  0.00    +0.000 OA
ATOM      3  C   UNL     1       7.012   6.279  16.646  0.00  0.00    +0.000 C 
ATOM      4  N   UNL     1       5.735   5.779  16.874  0.00  0.00    +0.000 N 
ATOM      5  C   UNL     1       5.209   4.711  16.028  0.00  0.00    +0.000 C 
ATOM      6  C   UNL     1       4.548   3.624  16.883  0.00  0.00    +0.000 C 
ATOM      7  C   UNL     1       3.638   4.191  17.948  0.00  0.00    +0.000 A 
ATOM      8  C   UNL     1       2.731   3.355  18.617  0.00  0.00    +0.000 A 
ATOM      9  C   UNL     1       1.912   3.860  19.628  0.00  0.00    +0.000 A 
ATOM     10  C   UNL     1       1.997   5.204  19.969  0.00  0.00    +0.000 A 
ATOM     11  C   UNL     1       2.898   6.044  19.328  0.00  0.00    +0.000 A 
ATOM     12  C   UNL     1       3.743   5.541  18.329  0.00  0.00    +0.000 A 
ATOM     13  C   UNL     1       4.731   6.472  17.677  0.00  0.00    +0.000 C 
BRANCH  10  14
ATOM     14  O   UNL     1       1.218   5.747  20.947  0.00  0.00    +0.000 OA
ATOM     15  H   UNL     1       0.302   5.456  20.809  0.00  0.00    +0.000 HD
ENDBRANCH  10  14
ENDBRANCH   1   3
BRANCH   1  16
ATOM     16  C   UNL     1       7.260   8.702  17.357  0.00  0.00    +0.000 C 
BRANCH  16  17
ATOM     17  C   UNL     1       8.220   9.579  18.077  0.00  0.00    +0.000 A 
ATOM     18  N   UNL     1       8.996   9.275  19.096  0.00  0.00    +0.000 NA
ATOM     19  C   UNL     1       9.726  10.419  19.300  0.00  0.00    +0.000 A 
ATOM     20  C   UNL     1       9.377  11.386  18.382  0.00  0.00    +0.000 A 
ATOM     21  O   UNL     1       8.393  10.847  17.589  0.00  0.00    +0.000 OA
BRANCH  20  22
ATOM     22  C   UNL     1       9.820  12.743  18.080  0.00  0.00    +0.000 A 
ATOM     23  C   UNL     1       8.972  13.850  18.260  0.00  0.00    +0.000 A 
ATOM     24  C   UNL     1       9.399  15.140  17.933  0.00  0.00    +0.000 A 
ATOM     25  C   UNL     1      10.678  15.335  17.423  0.00  0.00    +0.000 A 
ATOM     26  F   UNL     1      11.079  16.570  17.098  0.00  0.00    +0.000 F 
ATOM     27  C   UNL     1      11.543  14.266  17.246  0.00  0.00    +0.000 A 
ATOM     28  C   UNL     1      11.109  12.985  17.576  0.00  0.00    +0.000 A 
ATOM     29  F   UNL     1      11.970  11.971  17.392  0.00  0.00    +0.000 F 
ENDBRANCH  20  22
ENDBRANCH  16  17
ENDBRANCH   1  16
TORSDOF 5
ENDMDL
MODEL 4
REMARK VINA RESULT:      -8.3      4.141      7.212
REMARK  Name = 
REMARK  5 active torsions:
REMARK  status: ('A' for Active; 'I' for Inactive)
REMARK    1  A    between atoms: C_2  and  C_3
REMARK    2  A    between atoms: C_3  and  C_4
REMARK    3  A    between atoms: C_4  and  C_5
REMARK    4  A    between atoms: C_8  and  C_9
REMARK    5  A    between atoms: C_24  and  O_25
REMARK                            x       y       z     vdW  Elec       q    Type
REMARK                         _______ _______ _______ _____ _____    ______ ____
ROOT
ATOM      1  C   UNL     1       6.553   5.017  17.994  0.00  0.00    +0.000 C 
ENDROOT
BRANCH   1   3
ATOM      2  O   UNL     1       5.578   3.277  19.330  0.00  0.00    +0.000 OA
ATOM      3  C   UNL     1       5.421   4.355  18.759  0.00  0.00    +0.000 C 
ATOM      4  N   UNL     1       4.234   5.075  18.832  0.00  0.00    +0.000 N 
ATOM      5  C   UNL     1       3.153   4.611  19.696  0.00  0.00    +0.000 C 
ATOM      6  C   UNL     1       2.576   5.775  20.509  0.00  0.00    +0.000 C 
ATOM      7  C   UNL     1       2.327   7.007  19.670  0.00  0.00    +0.000 A 
ATOM      8  C   UNL     1       1.535   8.052  20.171  0.00  0.00    +0.000 A 
ATOM      9  C   UNL     1       1.329   9.211  19.420  0.00  0.00    +0.000 A 
ATOM     10  C   UNL     1       1.913   9.324  18.164  0.00  0.00    +0.000 A 
ATOM     11  C   UNL     1       2.710   8.306  17.657  0.00  0.00    +0.000 A 
ATOM     12  C   UNL     1       2.944   7.149  18.414  0.00  0.00    +0.000 A 
ATOM     13  C   UNL     1       3.841   6.080  17.848  0.00  0.00    +0.000 C 
BRANCH  10  14
ATOM     14  O   UNL     1       1.740  10.433  17.390  0.00  0.00    +0.000 OA
ATOM     15  H   UNL     1       1.039  10.977  17.783  0.00  0.00    +0.000 HD
ENDBRANCH  10  14
ENDBRANCH   1   3
BRANCH   1  16
ATOM     16  C   UNL     1       7.466   5.853  18.886  0.00  0.00    +0.000 C 
BRANCH  16  17
ATOM     17  C   UNL     1       7.689   7.185  18.267  0.00  0.00    +0.000 A 
ATOM     18  N   UNL     1       7.208   7.649  17.132  0.00  0.00    +0.000 NA
ATOM     19  C   UNL     1       7.660   8.944  17.094  0.00  0.00    +0.000 A 
ATOM     20  C   UNL     1       8.398   9.233  18.221  0.00  0.00    +0.000 A 
ATOM     21  O   UNL     1       8.425   8.090  18.985  0.00  0.00    +0.000 OA
BRANCH  20  22
ATOM     22  C   UNL     1       9.074  10.413  18.749  0.00  0.00    +0.000 A 
ATOM     23  C   UNL     1       9.968  10.325  19.831  0.00  0.00    +0.000 A 
ATOM     24  C   UNL     1      10.582  11.468  20.348  0.00  0.00    +0.000 A 
ATOM     25  C   UNL     1      10.309  12.711  19.787  0.00  0.00    +0.000 A 
ATOM     26  F   UNL     1      10.889  13.807  20.293  0.00  0.00    +0.000 F 
ATOM     27  C   UNL     1       9.443  12.830  18.711  0.00  0.00    +0.000 A 
ATOM     28  C   UNL     1       8.837  11.685  18.202  0.00  0.00    +0.000 A 
ATOM     29  F   UNL     1       8.002  11.835  17.161  0.00  0.00    +0.000 F 
ENDBRANCH  20  22
ENDBRANCH  16  17
ENDBRANCH   1  16
TORSDOF 5
ENDMDL
MODEL 5
REMARK VINA RESULT:      -8.2      2.904      4.005
REMARK  Name = 
REMARK  5 active torsions:
REMARK  status: ('A' for Active; 'I' for Inactive)
REMARK    1  A    between atoms: C_2  and  C_3
REMARK    2  A    between atoms: C_3  and  C_4
REMARK    3  A    between atoms: C_4  and  C_5
REMARK    4  A    between atoms: C_8  and  C_9
REMARK    5  A    between atoms: C_24  and  O_25
REMARK                            x       y       z     vdW  Elec       q    Type
REMARK                         _______ _______ _______ _____ _____    ______ ____
ROOT
ATOM      1  C   UNL     1       2.145   7.315  20.413  0.00  0.00    +0.000 C 
ENDROOT
BRANCH   1   3
ATOM      2  O   UNL     1       0.998   5.233  20.752  0.00  0.00    +0.000 OA
ATOM      3  C   UNL     1       1.961   5.815  20.255  0.00  0.00    +0.000 C 
ATOM      4  N   UNL     1       2.900   5.168  19.460  0.00  0.00    +0.000 N 
ATOM      5  C   UNL     1       2.706   3.767  19.098  0.00  0.00    +0.000 C 
ATOM      6  C   UNL     1       2.980   3.555  17.605  0.00  0.00    +0.000 C 
ATOM      7  C   UNL     1       4.249   4.231  17.142  0.00  0.00    +0.000 A 
ATOM      8  C   UNL     1       4.810   3.902  15.898  0.00  0.00    +0.000 A 
ATOM      9  C   UNL     1       5.961   4.547  15.444  0.00  0.00    +0.000 A 
ATOM     10  C   UNL     1       6.555   5.523  16.235  0.00  0.00    +0.000 A 
ATOM     11  C   UNL     1       6.007   5.872  17.462  0.00  0.00    +0.000 A 
ATOM     12  C   UNL     1       4.837   5.248  17.916  0.00  0.00    +0.000 A 
ATOM     13  C   UNL     1       4.251   5.675  19.237  0.00  0.00    +0.000 C 
BRANCH  10  14
ATOM     14  O   UNL     1       7.681   6.180  15.839  0.00  0.00    +0.000 OA
ATOM     15  H   UNL     1       8.273   6.269  16.603  0.00  0.00    +0.000 HD
ENDBRANCH  10  14
ENDBRANCH   1   3
BRANCH   1  16
ATOM     16  C   UNL     1       1.246   7.914  21.490  0.00  0.00    +0.000 C 
BRANCH  16  17
ATOM     17  C   UNL     1       0.654   9.185  20.999  0.00  0.00    +0.000 A 
ATOM     18  N   UNL     1       1.000  10.418  21.305  0.00  0.00    +0.000 NA
ATOM     19  C   UNL     1       0.190  11.189  20.509  0.00  0.00    +0.000 A 
ATOM     20  C   UNL     1      -0.621  10.394  19.729  0.00  0.00    +0.000 A 
ATOM     21  O   UNL     1      -0.328   9.090  20.048  0.00  0.00    +0.000 OA
BRANCH  20  22
ATOM     22  C   UNL     1      -1.623  10.626  18.694  0.00  0.00    +0.000 A 
ATOM     23  C   UNL     1      -1.510  10.045  17.418  0.00  0.00    +0.000 A 
ATOM     24  C   UNL     1      -2.459  10.304  16.427  0.00  0.00    +0.000 A 
ATOM     25  C   UNL     1      -3.532  11.145  16.702  0.00  0.00    +0.000 A 
ATOM     26  F   UNL     1      -4.433  11.401  15.745  0.00  0.00    +0.000 F 
ATOM     27  C   UNL     1      -3.680  11.722  17.953  0.00  0.00    +0.000 A 
ATOM     28  C   UNL     1      -2.729  11.457  18.936  0.00  0.00    +0.000 A 
ATOM     29  F   UNL     1      -2.901  12.033  20.137  0.00  0.00    +0.000 F 
ENDBRANCH  20  22
ENDBRANCH  16  17
ENDBRANCH   1  16
TORSDOF 5
ENDMDL
MODEL 6
REMARK VINA RESULT:      -8.2      3.632      4.596
REMARK  Name = 
REMARK  5 active torsions:
REMARK  status: ('A' for Active; 'I' for Inactive)
REMARK    1  A    between atoms: C_2  and  C_3
REMARK    2  A    between atoms: C_3  and  C_4
REMARK    3  A    between atoms: C_4  and  C_5
REMARK    4  A    between atoms: C_8  and  C_9
REMARK    5  A    between atoms: C_24  and  O_25
REMARK                            x       y       z     vdW  Elec       q    Type
REMARK                         _______ _______ _______ _____ _____    ______ ____
ROOT
ATOM      1  C   UNL     1       2.687   8.136  18.675  0.00  0.00    +0.000 C 
ENDROOT
BRANCH   1   3
ATOM      2  O   UNL     1       1.737   6.286  19.875  0.00  0.00    +0.000 OA
ATOM      3  C   UNL     1       2.608   6.680  19.101  0.00  0.00    +0.000 C 
ATOM      4  N   UNL     1       3.527   5.823  18.507  0.00  0.00    +0.000 N 
ATOM      5  C   UNL     1       3.414   4.381  18.709  0.00  0.00    +0.000 C 
ATOM      6  C   UNL     1       3.582   3.637  17.380  0.00  0.00    +0.000 C 
ATOM      7  C   UNL     1       4.752   4.144  16.569  0.00  0.00    +0.000 A 
ATOM      8  C   UNL     1       5.234   3.397  15.484  0.00  0.00    +0.000 A 
ATOM      9  C   UNL     1       6.291   3.874  14.706  0.00  0.00    +0.000 A 
ATOM     10  C   UNL     1       6.869   5.099  15.015  0.00  0.00    +0.000 A 
ATOM     11  C   UNL     1       6.397   5.858  16.077  0.00  0.00    +0.000 A 
ATOM     12  C   UNL     1       5.320   5.400  16.849  0.00  0.00    +0.000 A 
ATOM     13  C   UNL     1       4.812   6.265  17.973  0.00  0.00    +0.000 C 
BRANCH  10  14
ATOM     14  O   UNL     1       7.904   5.607  14.289  0.00  0.00    +0.000 OA
ATOM     15  H   UNL     1       7.569   5.876  13.418  0.00  0.00    +0.000 HD
ENDBRANCH  10  14
ENDBRANCH   1   3
BRANCH   1  16
ATOM     16  C   UNL     1       1.654   8.502  17.614  0.00  0.00    +0.000 C 
BRANCH  16  17
ATOM     17  C   UNL     1       0.838   9.652  18.084  0.00  0.00    +0.000 A 
ATOM     18  N   UNL     1       1.234  10.713  18.756  0.00  0.00    +0.000 NA
ATOM     19  C   UNL     1       0.100  11.481  18.847  0.00  0.00    +0.000 A 
ATOM     20  C   UNL     1      -0.956  10.863  18.212  0.00  0.00    +0.000 A 
ATOM     21  O   UNL     1      -0.483   9.670  17.720  0.00  0.00    +0.000 OA
BRANCH  20  22
ATOM     22  C   UNL     1      -2.350  11.197  17.946  0.00  0.00    +0.000 A 
ATOM     23  C   UNL     1      -3.183  11.728  18.946  0.00  0.00    +0.000 A 
ATOM     24  C   UNL     1      -4.526  12.011  18.685  0.00  0.00    +0.000 A 
ATOM     25  C   UNL     1      -5.049  11.767  17.419  0.00  0.00    +0.000 A 
ATOM     26  F   UNL     1      -6.340  12.026  17.176  0.00  0.00    +0.000 F 
ATOM     27  C   UNL     1      -4.251  11.256  16.407  0.00  0.00    +0.000 A 
ATOM     28  C   UNL     1      -2.913  10.979  16.677  0.00  0.00    +0.000 A 
ATOM     29  F   UNL     1      -2.168  10.485  15.676  0.00  0.00    +0.000 F 
ENDBRANCH  20  22
ENDBRANCH  16  17
ENDBRANCH   1  16
TORSDOF 5
ENDMDL
MODEL 7
REMARK VINA RESULT:      -8.2      3.108      4.029
REMARK  Name = 
REMARK  5 active torsions:
REMARK  status: ('A' for Active; 'I' for Inactive)
REMARK    1  A    between atoms: C_2  and  C_3
REMARK    2  A    between atoms: C_3  and  C_4
REMARK    3  A    between atoms: C_4  and  C_5
REMARK    4  A    between atoms: C_8  and  C_9
REMARK    5  A    between atoms: C_24  and  O_25
REMARK                            x       y       z     vdW  Elec       q    Type
REMARK                         _______ _______ _______ _____ _____    ______ ____
ROOT
ATOM      1  C   UNL     1       2.099   7.482  20.163  0.00  0.00    +0.000 C 
ENDROOT
BRANCH   1   3
ATOM      2  O   UNL     1       1.053   5.398  20.731  0.00  0.00    +0.000 OA
ATOM      3  C   UNL     1       1.989   5.968  20.172  0.00  0.00    +0.000 C 
ATOM      4  N   UNL     1       2.961   5.282  19.453  0.00  0.00    +0.000 N 
ATOM      5  C   UNL     1       2.836   3.842  19.248  0.00  0.00    +0.000 C 
ATOM      6  C   UNL     1       3.127   3.479  17.788  0.00  0.00    +0.000 C 
ATOM      7  C   UNL     1       4.364   4.161  17.251  0.00  0.00    +0.000 A 
ATOM      8  C   UNL     1       4.945   3.724  16.051  0.00  0.00    +0.000 A 
ATOM      9  C   UNL     1       6.066   4.370  15.527  0.00  0.00    +0.000 A 
ATOM     10  C   UNL     1       6.608   5.455  16.205  0.00  0.00    +0.000 A 
ATOM     11  C   UNL     1       6.039   5.911  17.386  0.00  0.00    +0.000 A 
ATOM     12  C   UNL     1       4.898   5.284  17.908  0.00  0.00    +0.000 A 
ATOM     13  C   UNL     1       4.287   5.826  19.174  0.00  0.00    +0.000 C 
BRANCH  10  14
ATOM     14  O   UNL     1       7.704   6.118  15.737  0.00  0.00    +0.000 OA
ATOM     15  H   UNL     1       8.230   6.419  16.495  0.00  0.00    +0.000 HD
ENDBRANCH  10  14
ENDBRANCH   1   3
BRANCH   1  16
ATOM     16  C   UNL     1       1.062   8.160  21.053  0.00  0.00    +0.000 C 
BRANCH  16  17
ATOM     17  C   UNL     1       0.596   9.417  20.411  0.00  0.00    +0.000 A 
ATOM     18  N   UNL     1       1.280  10.518  20.182  0.00  0.00    +0.000 NA
ATOM     19  C   UNL     1       0.394  11.314  19.499  0.00  0.00    +0.000 A 
ATOM     20  C   UNL     1      -0.807  10.661  19.323  0.00  0.00    +0.000 A 
ATOM     21  O   UNL     1      -0.683   9.430  19.921  0.00  0.00    +0.000 OA
BRANCH  20  22
ATOM     22  C   UNL     1      -2.070  10.966  18.661  0.00  0.00    +0.000 A 
ATOM     23  C   UNL     1      -2.999  11.859  19.224  0.00  0.00    +0.000 A 
ATOM     24  C   UNL     1      -4.219  12.115  18.594  0.00  0.00    +0.000 A 
ATOM     25  C   UNL     1      -4.523  11.479  17.395  0.00  0.00    +0.000 A 
ATOM     26  F   UNL     1      -5.701  11.716  16.802  0.00  0.00    +0.000 F 
ATOM     27  C   UNL     1      -3.624  10.603  16.808  0.00  0.00    +0.000 A 
ATOM     28  C   UNL     1      -2.410  10.356  17.441  0.00  0.00    +0.000 A 
ATOM     29  F   UNL     1      -1.562   9.501  16.847  0.00  0.00    +0.000 F 
ENDBRANCH  20  22
ENDBRANCH  16  17
ENDBRANCH   1  16
TORSDOF 5
ENDMDL
MODEL 8
REMARK VINA RESULT:      -8.1      0.884      1.253
REMARK  Name = 
REMARK  5 active torsions:
REMARK  status: ('A' for Active; 'I' for Inactive)
REMARK    1  A    between atoms: C_2  and  C_3
REMARK    2  A    between atoms: C_3  and  C_4
REMARK    3  A    between atoms: C_4  and  C_5
REMARK    4  A    between atoms: C_8  and  C_9
REMARK    5  A    between atoms: C_24  and  O_25
REMARK                            x       y       z     vdW  Elec       q    Type
REMARK                         _______ _______ _______ _____ _____    ______ ____
ROOT
ATOM      1  C   UNL     1       2.428   3.597  20.692  0.00  0.00    +0.000 C 
ENDROOT
BRANCH   1   3
ATOM      2  O   UNL     1       1.826   2.223  18.817  0.00  0.00    +0.000 OA
ATOM      3  C   UNL     1       2.657   2.976  19.326  0.00  0.00    +0.000 C 
ATOM      4  N   UNL     1       3.815   3.368  18.665  0.00  0.00    +0.000 N 
ATOM      5  C   UNL     1       4.032   2.971  17.277  0.00  0.00    +0.000 C 
ATOM      6  C   UNL     1       4.522   4.163  16.448  0.00  0.00    +0.000 C 
ATOM      7  C   UNL     1       5.618   4.944  17.135  0.00  0.00    +0.000 A 
ATOM      8  C   UNL     1       6.384   5.870  16.412  0.00  0.00    +0.000 A 
ATOM      9  C   UNL     1       7.374   6.624  17.046  0.00  0.00    +0.000 A 
ATOM     10  C   UNL     1       7.600   6.448  18.405  0.00  0.00    +0.000 A 
ATOM     11  C   UNL     1       6.844   5.546  19.141  0.00  0.00    +0.000 A 
ATOM     12  C   UNL     1       5.830   4.803  18.519  0.00  0.00    +0.000 A 
ATOM     13  C   UNL     1       5.007   3.857  19.354  0.00  0.00    +0.000 C 
BRANCH  10  14
ATOM     14  O   UNL     1       8.557   7.157  19.070  0.00  0.00    +0.000 OA
ATOM     15  H   UNL     1       8.179   7.479  19.904  0.00  0.00    +0.000 HD
ENDBRANCH  10  14
ENDBRANCH   1   3
BRANCH   1  16
ATOM     16  C   UNL     1       1.174   4.463  20.750  0.00  0.00    +0.000 C 
BRANCH  16  17
ATOM     17  C   UNL     1       1.528   5.879  20.469  0.00  0.00    +0.000 A 
ATOM     18  N   UNL     1       2.403   6.345  19.603  0.00  0.00    +0.000 NA
ATOM     19  C   UNL     1       2.263   7.706  19.700  0.00  0.00    +0.000 A 
ATOM     20  C   UNL     1       1.290   8.028  20.622  0.00  0.00    +0.000 A 
ATOM     21  O   UNL     1       0.814   6.843  21.130  0.00  0.00    +0.000 OA
BRANCH  20  22
ATOM     22  C   UNL     1       0.685   9.262  21.109  0.00  0.00    +0.000 A 
ATOM     23  C   UNL     1       0.968  10.505  20.515  0.00  0.00    +0.000 A 
ATOM     24  C   UNL     1       0.407  11.683  21.015  0.00  0.00    +0.000 A 
ATOM     25  C   UNL     1      -0.444  11.629  22.114  0.00  0.00    +0.000 A 
ATOM     26  F   UNL     1      -0.969  12.762  22.598  0.00  0.00    +0.000 F 
ATOM     27  C   UNL     1      -0.753  10.419  22.714  0.00  0.00    +0.000 A 
ATOM     28  C   UNL     1      -0.191   9.251  22.208  0.00  0.00    +0.000 A 
ATOM     29  F   UNL     1      -0.510   8.095  22.813  0.00  0.00    +0.000 F 
ENDBRANCH  20  22
ENDBRANCH  16  17
ENDBRANCH   1  16
TORSDOF 5
ENDMDL
MODEL 9
REMARK VINA RESULT:      -8.0      1.948      3.126
REMARK  Name = 
REMARK  5 active torsions:
REMARK  status: ('A' for Active; 'I' for Inactive)
REMARK    1  A    between atoms: C_2  and  C_3
REMARK    2  A    between atoms: C_3  and  C_4
REMARK    3  A    between atoms: C_4  and  C_5
REMARK    4  A    between atoms: C_8  and  C_9
REMARK    5  A    between atoms: C_24  and  O_25
REMARK                            x       y       z     vdW  Elec       q    Type
REMARK                         _______ _______ _______ _____ _____    ______ ____
ROOT
ATOM      1  C   UNL     1       2.241   7.175  20.053  0.00  0.00    +0.000 C 
ENDROOT
BRANCH   1   3
ATOM      2  O   UNL     1       1.200   5.077  20.582  0.00  0.00    +0.000 OA
ATOM      3  C   UNL     1       2.124   5.661  20.017  0.00  0.00    +0.000 C 
ATOM      4  N   UNL     1       3.074   4.996  19.251  0.00  0.00    +0.000 N 
ATOM      5  C   UNL     1       2.937   3.563  19.005  0.00  0.00    +0.000 C 
ATOM      6  C   UNL     1       3.188   3.246  17.526  0.00  0.00    +0.000 C 
ATOM      7  C   UNL     1       4.414   3.940  16.979  0.00  0.00    +0.000 A 
ATOM      8  C   UNL     1       4.962   3.538  15.751  0.00  0.00    +0.000 A 
ATOM      9  C   UNL     1       6.072   4.197  15.219  0.00  0.00    +0.000 A 
ATOM     10  C   UNL     1       6.637   5.258  15.916  0.00  0.00    +0.000 A 
ATOM     11  C   UNL     1       6.101   5.678  17.126  0.00  0.00    +0.000 A 
ATOM     12  C   UNL     1       4.971   5.039  17.657  0.00  0.00    +0.000 A 
ATOM     13  C   UNL     1       4.395   5.543  18.955  0.00  0.00    +0.000 C 
BRANCH  10  14
ATOM     14  O   UNL     1       7.722   5.931  15.441  0.00  0.00    +0.000 OA
ATOM     15  H   UNL     1       7.493   6.319  14.581  0.00  0.00    +0.000 HD
ENDBRANCH  10  14
ENDBRANCH   1   3
BRANCH   1  16
ATOM     16  C   UNL     1       1.875   7.832  18.726  0.00  0.00    +0.000 C 
BRANCH  16  17
ATOM     17  C   UNL     1       1.427   9.229  18.964  0.00  0.00    +0.000 A 
ATOM     18  N   UNL     1       1.745  10.313  18.289  0.00  0.00    +0.000 NA
ATOM     19  C   UNL     1       0.991  11.296  18.881  0.00  0.00    +0.000 A 
ATOM     20  C   UNL     1       0.224  10.771  19.898  0.00  0.00    +0.000 A 
ATOM     21  O   UNL     1       0.509   9.428  19.961  0.00  0.00    +0.000 OA
BRANCH  20  22
ATOM     22  C   UNL     1      -0.772  11.293  20.827  0.00  0.00    +0.000 A 
ATOM     23  C   UNL     1      -1.832  12.106  20.388  0.00  0.00    +0.000 A 
ATOM     24  C   UNL     1      -2.759  12.626  21.295  0.00  0.00    +0.000 A 
ATOM     25  C   UNL     1      -2.636  12.337  22.649  0.00  0.00    +0.000 A 
ATOM     26  F   UNL     1      -3.518  12.849  23.517  0.00  0.00    +0.000 F 
ATOM     27  C   UNL     1      -1.610  11.528  23.113  0.00  0.00    +0.000 A 
ATOM     28  C   UNL     1      -0.692  11.013  22.202  0.00  0.00    +0.000 A 
ATOM     29  F   UNL     1       0.289  10.234  22.683  0.00  0.00    +0.000 F 
ENDBRANCH  20  22
ENDBRANCH  16  17
ENDBRANCH   1  16
TORSDOF 5
ENDMDL
