MODEL 1
REMARK VINA RESULT:      -9.0      0.000      0.000
REMARK  Name = 
REMARK  6 active torsions:
REMARK  status: ('A' for Active; 'I' for Inactive)
REMARK    1  A    between atoms: C_1  and  C_2
REMARK    2  A    between atoms: C_5  and  C_6
REMARK    3  A    between atoms: C_11  and  C_13
REMARK    4  A    between atoms: C_18  and  O_19
REMARK    5  A    between atoms: O_19  and  C_20
REMARK    6  A    between atoms: C_20  and  C_21
REMARK                            x       y       z     vdW  Elec       q    Type
REMARK                         _______ _______ _______ _____ _____    ______ ____
ROOT
ATOM      1  C   UNL     1       3.561   3.560  19.117  0.00  0.00    +0.000 A 
ATOM      2  C   UNL     1       3.329   2.744  17.993  0.00  0.00    +0.000 A 
ATOM      3  C   UNL     1       2.068   2.214  17.720  0.00  0.00    +0.000 A 
ATOM      4  C   UNL     1       0.988   2.595  18.494  0.00  0.00    +0.000 A 
ATOM      5  C   UNL     1       1.164   3.554  19.488  0.00  0.00    +0.000 A 
ATOM      6  C   UNL     1       2.437   4.090  19.782  0.00  0.00    +0.000 A 
ENDROOT
BRANCH   1  12
ATOM      7  C   UNL     1       6.088   6.608  17.138  0.00  0.00    +0.000 C 
ATOM      8  C   UNL     1       7.398   7.021  17.808  0.00  0.00    +0.000 C 
ATOM      9  C   UNL     1       8.026   5.835  18.546  0.00  0.00    +0.000 C 
ATOM     10  C   UNL     1       7.060   5.176  19.532  0.00  0.00    +0.000 C 
ATOM     11  N   UNL     1       5.734   4.884  18.970  0.00  0.00    +0.000 N 
ATOM     12  C   UNL     1       4.986   3.808  19.549  0.00  0.00    +0.000 C 
ATOM     13  O   UNL     1       5.476   3.067  20.401  0.00  0.00    +0.000 OA
ATOM     14  C   UNL     1       5.150   5.946  18.137  0.00  0.00    +0.000 C 
BRANCH   7  19
ATOM     15  C   UNL     1       5.642   3.706  13.200  0.00  0.00    +0.000 C 
ATOM     16  C   UNL     1       6.231   4.541  14.258  0.00  0.00    +0.000 A 
ATOM     17  N   UNL     1       7.470   5.040  14.190  0.00  0.00    +0.000 NA
ATOM     18  O   UNL     1       7.544   5.855  15.317  0.00  0.00    +0.000 OA
ATOM     19  C   UNL     1       6.338   5.747  15.950  0.00  0.00    +0.000 A 
ATOM     20  N   UNL     1       5.510   4.919  15.361  0.00  0.00    +0.000 NA
ENDBRANCH   7  19
ENDBRANCH   1  12
BRANCH   6  21
ATOM     21  O   UNL     1       2.577   5.123  20.689  0.00  0.00    +0.000 OA
BRANCH  21  22
ATOM     22  C   UNL     1       1.440   6.013  20.718  0.00  0.00    +0.000 C 
BRANCH  22  23
ATOM     23  C   UNL     1       1.636   7.314  19.971  0.00  0.00    +0.000 A 
ATOM     24  C   UNL     1       2.224   7.352  18.702  0.00  0.00    +0.000 A 
ATOM     25  C   UNL     1       2.291   8.554  17.990  0.00  0.00    +0.000 A 
ATOM     26  C   UNL     1       1.758   9.714  18.541  0.00  0.00    +0.000 A 
ATOM     27  F   UNL     1       1.815  10.860  17.850  0.00  0.00    +0.000 F 
ATOM     28  C   UNL     1       1.155   9.698  19.792  0.00  0.00    +0.000 A 
ATOM     29  C   UNL     1       1.085   8.497  20.503  0.00  0.00    +0.000 A 
ENDBRANCH  22  23
ENDBRANCH  21  22
ENDBRANCH   6  21
TORSDOF 5
ENDMDL
MODEL 2
REMARK VINA RESULT:      -8.9      1.050      1.381
REMARK  Name = 
REMARK  6 active torsions:
REMARK  status: ('A' for Active; 'I' for Inactive)
REMARK    1  A    between atoms: C_1  and  C_2
REMARK    2  A    between atoms: C_5  and  C_6
REMARK    3  A    between atoms: C_11  and  C_13
REMARK    4  A    between atoms: C_18  and  O_19
REMARK    5  A    between atoms: O_19  and  C_20
REMARK    6  A    between atoms: C_20  and  C_21
REMARK                            x       y       z     vdW  Elec       q    Type
REMARK                         _______ _______ _______ _____ _____    ______ ____
ROOT
ATOM      1  C   UNL     1       3.525   3.765  19.020  0.00  0.00    +0.000 A 
ATOM      2  C   UNL     1       3.352   2.727  18.085  0.00  0.00    +0.000 A 
ATOM      3  C   UNL     1       2.103   2.151  17.853  0.00  0.00    +0.000 A 
ATOM      4  C   UNL     1       0.983   2.689  18.459  0.00  0.00    +0.000 A 
ATOM      5  C   UNL     1       1.111   3.839  19.234  0.00  0.00    +0.000 A 
ATOM      6  C   UNL     1       2.371   4.426  19.485  0.00  0.00    +0.000 A 
ENDROOT
BRANCH   1  12
ATOM      7  C   UNL     1       6.015   6.736  16.882  0.00  0.00    +0.000 C 
ATOM      8  C   UNL     1       7.285   7.250  17.559  0.00  0.00    +0.000 C 
ATOM      9  C   UNL     1       7.928   6.153  18.411  0.00  0.00    +0.000 C 
ATOM     10  C   UNL     1       6.950   5.539  19.416  0.00  0.00    +0.000 C 
ATOM     11  N   UNL     1       5.655   5.153  18.837  0.00  0.00    +0.000 N 
ATOM     12  C   UNL     1       4.925   4.100  19.477  0.00  0.00    +0.000 C 
ATOM     13  O   UNL     1       5.409   3.450  20.402  0.00  0.00    +0.000 OA
ATOM     14  C   UNL     1       5.066   6.123  17.900  0.00  0.00    +0.000 C 
BRANCH   7  19
ATOM     15  C   UNL     1       5.811   3.594  13.113  0.00  0.00    +0.000 C 
ATOM     16  C   UNL     1       6.335   4.480  14.163  0.00  0.00    +0.000 A 
ATOM     17  N   UNL     1       7.591   4.941  14.170  0.00  0.00    +0.000 NA
ATOM     18  O   UNL     1       7.595   5.826  15.245  0.00  0.00    +0.000 OA
ATOM     19  C   UNL     1       6.337   5.793  15.778  0.00  0.00    +0.000 A 
ATOM     20  N   UNL     1       5.536   4.949  15.173  0.00  0.00    +0.000 NA
ENDBRANCH   7  19
ENDBRANCH   1  12
BRANCH   6  21
ATOM     21  O   UNL     1       2.469   5.629  20.156  0.00  0.00    +0.000 OA
BRANCH  21  22
ATOM     22  C   UNL     1       2.289   6.777  19.298  0.00  0.00    +0.000 C 
BRANCH  22  23
ATOM     23  C   UNL     1       1.656   7.975  19.970  0.00  0.00    +0.000 A 
ATOM     24  C   UNL     1       1.423   9.168  19.278  0.00  0.00    +0.000 A 
ATOM     25  C   UNL     1       0.736  10.220  19.893  0.00  0.00    +0.000 A 
ATOM     26  C   UNL     1       0.270  10.072  21.196  0.00  0.00    +0.000 A 
ATOM     27  F   UNL     1      -0.397  11.078  21.776  0.00  0.00    +0.000 F 
ATOM     28  C   UNL     1       0.475   8.892  21.897  0.00  0.00    +0.000 A 
ATOM     29  C   UNL     1       1.158   7.839  21.281  0.00  0.00    +0.000 A 
ENDBRANCH  22  23
ENDBRANCH  21  22
ENDBRANCH   6  21
TORSDOF 5
ENDMDL
MODEL 3
REMARK VINA RESULT:      -8.6      0.847      1.259
REMARK  Name = 
REMARK  6 active torsions:
REMARK  status: ('A' for Active; 'I' for Inactive)
REMARK    1  A    between atoms: C_1  and  C_2
REMARK    2  A    between atoms: C_5  and  C_6
REMARK    3  A    between atoms: C_11  and  C_13
REMARK    4  A    between atoms: C_18  and  O_19
REMARK    5  A    between atoms: O_19  and  C_20
REMARK    6  A    between atoms: C_20  and  C_21
REMARK                            x       y       z     vdW  Elec       q    Type
REMARK                         _______ _______ _______ _____ _____    ______ ____
ROOT
ATOM      1  C   UNL     1       3.497   3.721  19.007  0.00  0.00    +0.000 A 
ATOM      2  C   UNL     1       3.339   2.832  17.927  0.00  0.00    +0.000 A 
ATOM      3  C   UNL     1       2.114   2.224  17.652  0.00  0.00    +0.000 A 
ATOM      4  C   UNL     1       0.994   2.592  18.375  0.00  0.00    +0.000 A 
ATOM      5  C   UNL     1       1.094   3.614  19.315  0.00  0.00    +0.000 A 
ATOM      6  C   UNL     1       2.330   4.230  19.610  0.00  0.00    +0.000 A 
ENDROOT
BRANCH   1  12
ATOM      7  C   UNL     1       5.963   6.706  16.861  0.00  0.00    +0.000 C 
ATOM      8  C   UNL     1       7.231   7.229  17.535  0.00  0.00    +0.000 C 
ATOM      9  C   UNL     1       7.882   6.136  18.387  0.00  0.00    +0.000 C 
ATOM     10  C   UNL     1       6.910   5.517  19.394  0.00  0.00    +0.000 C 
ATOM     11  N   UNL     1       5.617   5.123  18.818  0.00  0.00    +0.000 N 
ATOM     12  C   UNL     1       4.895   4.066  19.461  0.00  0.00    +0.000 C 
ATOM     13  O   UNL     1       5.385   3.419  20.386  0.00  0.00    +0.000 OA
ATOM     14  C   UNL     1       5.019   6.087  17.881  0.00  0.00    +0.000 C 
BRANCH   7  19
ATOM     15  C   UNL     1       5.771   3.553  13.099  0.00  0.00    +0.000 C 
ATOM     16  C   UNL     1       6.292   4.447  14.145  0.00  0.00    +0.000 A 
ATOM     17  N   UNL     1       7.543   4.920  14.145  0.00  0.00    +0.000 NA
ATOM     18  O   UNL     1       7.544   5.808  15.218  0.00  0.00    +0.000 OA
ATOM     19  C   UNL     1       6.289   5.763  15.757  0.00  0.00    +0.000 A 
ATOM     20  N   UNL     1       5.493   4.911  15.157  0.00  0.00    +0.000 NA
ENDBRANCH   7  19
ENDBRANCH   1  12
BRANCH   6  21
ATOM     21  O   UNL     1       2.392   5.319  20.458  0.00  0.00    +0.000 OA
BRANCH  21  22
ATOM     22  C   UNL     1       2.818   6.532  19.799  0.00  0.00    +0.000 C 
BRANCH  22  23
ATOM     23  C   UNL     1       1.838   7.681  19.896  0.00  0.00    +0.000 A 
ATOM     24  C   UNL     1       1.206   8.009  21.100  0.00  0.00    +0.000 A 
ATOM     25  C   UNL     1       0.392   9.143  21.185  0.00  0.00    +0.000 A 
ATOM     26  C   UNL     1       0.222   9.956  20.069  0.00  0.00    +0.000 A 
ATOM     27  F   UNL     1      -0.550  11.047  20.159  0.00  0.00    +0.000 F 
ATOM     28  C   UNL     1       0.852   9.660  18.868  0.00  0.00    +0.000 A 
ATOM     29  C   UNL     1       1.669   8.529  18.784  0.00  0.00    +0.000 A 
ENDBRANCH  22  23
ENDBRANCH  21  22
ENDBRANCH   6  21
TORSDOF 5
ENDMDL
MODEL 4
REMARK VINA RESULT:      -7.4      6.573     10.707
REMARK  Name = 
REMARK  6 active torsions:
REMARK  status: ('A' for Active; 'I' for Inactive)
REMARK    1  A    between atoms: C_1  and  C_2
REMARK    2  A    between atoms: C_5  and  C_6
REMARK    3  A    between atoms: C_11  and  C_13
REMARK    4  A    between atoms: C_18  and  O_19
REMARK    5  A    between atoms: O_19  and  C_20
REMARK    6  A    between atoms: C_20  and  C_21
REMARK                            x       y       z     vdW  Elec       q    Type
REMARK                         _______ _______ _______ _____ _____    ______ ____
ROOT
ATOM      1  C   UNL     1      -1.682  11.773  18.699  0.00  0.00    +0.000 A 
ATOM      2  C   UNL     1      -3.056  11.537  18.507  0.00  0.00    +0.000 A 
ATOM      3  C   UNL     1      -3.516  10.575  17.607  0.00  0.00    +0.000 A 
ATOM      4  C   UNL     1      -2.608   9.743  16.978  0.00  0.00    +0.000 A 
ATOM      5  C   UNL     1      -1.258   9.833  17.307  0.00  0.00    +0.000 A 
ATOM      6  C   UNL     1      -0.779  10.810  18.207  0.00  0.00    +0.000 A 
ENDROOT
BRANCH   1  12
ATOM      7  C   UNL     1      -2.254  12.309  23.055  0.00  0.00    +0.000 C 
ATOM      8  C   UNL     1      -1.537  13.465  23.751  0.00  0.00    +0.000 C 
ATOM      9  C   UNL     1      -1.425  14.674  22.818  0.00  0.00    +0.000 C 
ATOM     10  C   UNL     1      -0.779  14.323  21.475  0.00  0.00    +0.000 C 
ATOM     11  N   UNL     1      -1.344  13.130  20.830  0.00  0.00    +0.000 N 
ATOM     12  C   UNL     1      -1.257  13.040  19.403  0.00  0.00    +0.000 C 
ATOM     13  O   UNL     1      -0.841  13.976  18.721  0.00  0.00    +0.000 OA
ATOM     14  C   UNL     1      -1.599  11.987  21.720  0.00  0.00    +0.000 C 
BRANCH   7  19
ATOM     15  C   UNL     1      -6.789  13.105  21.345  0.00  0.00    +0.000 C 
ATOM     16  C   UNL     1      -5.662  12.901  22.268  0.00  0.00    +0.000 A 
ATOM     17  N   UNL     1      -5.823  12.580  23.556  0.00  0.00    +0.000 NA
ATOM     18  O   UNL     1      -4.518  12.359  23.991  0.00  0.00    +0.000 OA
ATOM     19  C   UNL     1      -3.709  12.584  22.913  0.00  0.00    +0.000 A 
ATOM     20  N   UNL     1      -4.361  12.959  21.839  0.00  0.00    +0.000 NA
ENDBRANCH   7  19
ENDBRANCH   1  12
BRANCH   6  21
ATOM     21  O   UNL     1       0.543  10.812  18.611  0.00  0.00    +0.000 OA
BRANCH  21  22
ATOM     22  C   UNL     1       0.811   9.886  19.686  0.00  0.00    +0.000 C 
BRANCH  22  23
ATOM     23  C   UNL     1       1.692   8.715  19.306  0.00  0.00    +0.000 A 
ATOM     24  C   UNL     1       1.817   7.592  20.131  0.00  0.00    +0.000 A 
ATOM     25  C   UNL     1       2.549   6.479  19.703  0.00  0.00    +0.000 A 
ATOM     26  C   UNL     1       3.143   6.485  18.445  0.00  0.00    +0.000 A 
ATOM     27  F   UNL     1       3.833   5.413  18.036  0.00  0.00    +0.000 F 
ATOM     28  C   UNL     1       3.019   7.582  17.603  0.00  0.00    +0.000 A 
ATOM     29  C   UNL     1       2.284   8.692  18.028  0.00  0.00    +0.000 A 
ENDBRANCH  22  23
ENDBRANCH  21  22
ENDBRANCH   6  21
TORSDOF 5
ENDMDL
MODEL 5
REMARK VINA RESULT:      -7.2      6.744     10.857
REMARK  Name = 
REMARK  6 active torsions:
REMARK  status: ('A' for Active; 'I' for Inactive)
REMARK    1  A    between atoms: C_1  and  C_2
REMARK    2  A    between atoms: C_5  and  C_6
REMARK    3  A    between atoms: C_11  and  C_13
REMARK    4  A    between atoms: C_18  and  O_19
REMARK    5  A    between atoms: O_19  and  C_20
REMARK    6  A    between atoms: C_20  and  C_21
REMARK                            x       y       z     vdW  Elec       q    Type
REMARK                         _______ _______ _______ _____ _____    ______ ____
ROOT
ATOM      1  C   UNL     1      -1.642  11.889  18.876  0.00  0.00    +0.000 A 
ATOM      2  C   UNL     1      -2.997  11.724  18.531  0.00  0.00    +0.000 A 
ATOM      3  C   UNL     1      -3.405  10.770  17.599  0.00  0.00    +0.000 A 
ATOM      4  C   UNL     1      -2.481   9.876  17.091  0.00  0.00    +0.000 A 
ATOM      5  C   UNL     1      -1.174   9.899  17.571  0.00  0.00    +0.000 A 
ATOM      6  C   UNL     1      -0.745  10.867  18.505  0.00  0.00    +0.000 A 
ENDROOT
BRANCH   1  12
ATOM      7  C   UNL     1      -2.531  12.476  23.172  0.00  0.00    +0.000 C 
ATOM      8  C   UNL     1      -1.830  13.612  23.916  0.00  0.00    +0.000 C 
ATOM      9  C   UNL     1      -1.603  14.809  22.989  0.00  0.00    +0.000 C 
ATOM     10  C   UNL     1      -0.868  14.426  21.702  0.00  0.00    +0.000 C 
ATOM     11  N   UNL     1      -1.423  13.248  21.020  0.00  0.00    +0.000 N 
ATOM     12  C   UNL     1      -1.229  13.145  19.605  0.00  0.00    +0.000 C 
ATOM     13  O   UNL     1      -0.728  14.061  18.953  0.00  0.00    +0.000 OA
ATOM     14  C   UNL     1      -1.787  12.122  21.893  0.00  0.00    +0.000 C 
BRANCH   7  19
ATOM     15  C   UNL     1      -7.126  12.636  21.444  0.00  0.00    +0.000 C 
ATOM     16  C   UNL     1      -5.932  12.908  22.258  0.00  0.00    +0.000 A 
ATOM     17  N   UNL     1      -5.984  13.507  23.453  0.00  0.00    +0.000 NA
ATOM     18  O   UNL     1      -4.667  13.431  23.901  0.00  0.00    +0.000 OA
ATOM     19  C   UNL     1      -3.960  12.801  22.916  0.00  0.00    +0.000 A 
ATOM     20  N   UNL     1      -4.685  12.495  21.866  0.00  0.00    +0.000 NA
ENDBRANCH   7  19
ENDBRANCH   1  12
BRANCH   6  21
ATOM     21  O   UNL     1       0.519  10.805  19.058  0.00  0.00    +0.000 OA
BRANCH  21  22
ATOM     22  C   UNL     1       1.484  10.154  18.202  0.00  0.00    +0.000 C 
BRANCH  22  23
ATOM     23  C   UNL     1       1.864   8.753  18.630  0.00  0.00    +0.000 A 
ATOM     24  C   UNL     1       2.660   7.930  17.826  0.00  0.00    +0.000 A 
ATOM     25  C   UNL     1       3.087   6.684  18.294  0.00  0.00    +0.000 A 
ATOM     26  C   UNL     1       2.730   6.267  19.573  0.00  0.00    +0.000 A 
ATOM     27  F   UNL     1       3.151   5.078  20.021  0.00  0.00    +0.000 F 
ATOM     28  C   UNL     1       1.955   7.074  20.395  0.00  0.00    +0.000 A 
ATOM     29  C   UNL     1       1.531   8.321  19.929  0.00  0.00    +0.000 A 
ENDBRANCH  22  23
ENDBRANCH  21  22
ENDBRANCH   6  21
TORSDOF 5
ENDMDL
MODEL 6
REMARK VINA RESULT:      -7.1      4.725      8.137
REMARK  Name = 
REMARK  6 active torsions:
REMARK  status: ('A' for Active; 'I' for Inactive)
REMARK    1  A    between atoms: C_1  and  C_2
REMARK    2  A    between atoms: C_5  and  C_6
REMARK    3  A    between atoms: C_11  and  C_13
REMARK    4  A    between atoms: C_18  and  O_19
REMARK    5  A    between atoms: O_19  and  C_20
REMARK    6  A    between atoms: C_20  and  C_21
REMARK                            x       y       z     vdW  Elec       q    Type
REMARK                         _______ _______ _______ _____ _____    ______ ____
ROOT
ATOM      1  C   UNL     1       1.630   8.340  19.930  0.00  0.00    +0.000 A 
ATOM      2  C   UNL     1       1.639   9.098  18.744  0.00  0.00    +0.000 A 
ATOM      3  C   UNL     1       2.401   8.720  17.638  0.00  0.00    +0.000 A 
ATOM      4  C   UNL     1       3.069   7.509  17.654  0.00  0.00    +0.000 A 
ATOM      5  C   UNL     1       2.912   6.657  18.743  0.00  0.00    +0.000 A 
ATOM      6  C   UNL     1       2.152   7.032  19.873  0.00  0.00    +0.000 A 
ENDROOT
BRANCH   1  12
ATOM      7  C   UNL     1      -1.282  11.669  19.771  0.00  0.00    +0.000 C 
ATOM      8  C   UNL     1      -2.024  12.055  21.051  0.00  0.00    +0.000 C 
ATOM      9  C   UNL     1      -1.132  11.847  22.278  0.00  0.00    +0.000 C 
ATOM     10  C   UNL     1      -0.555  10.431  22.354  0.00  0.00    +0.000 C 
ATOM     11  N   UNL     1       0.049   9.961  21.099  0.00  0.00    +0.000 N 
ATOM     12  C   UNL     1       1.080   8.970  21.187  0.00  0.00    +0.000 C 
ATOM     13  O   UNL     1       1.540   8.611  22.270  0.00  0.00    +0.000 OA
ATOM     14  C   UNL     1      -0.710  10.264  19.876  0.00  0.00    +0.000 C 
BRANCH   7  19
ATOM     15  C   UNL     1       2.803  13.948  18.270  0.00  0.00    +0.000 C 
ATOM     16  C   UNL     1       1.446  13.714  18.788  0.00  0.00    +0.000 A 
ATOM     17  N   UNL     1       0.509  14.667  18.837  0.00  0.00    +0.000 NA
ATOM     18  O   UNL     1      -0.623  13.974  19.259  0.00  0.00    +0.000 OA
ATOM     19  C   UNL     1      -0.238  12.674  19.430  0.00  0.00    +0.000 A 
ATOM     20  N   UNL     1       1.035  12.470  19.192  0.00  0.00    +0.000 NA
ENDBRANCH   7  19
ENDBRANCH   1  12
BRANCH   6  21
ATOM     21  O   UNL     1       1.910   6.132  20.893  0.00  0.00    +0.000 OA
BRANCH  21  22
ATOM     22  C   UNL     1       1.028   5.055  20.505  0.00  0.00    +0.000 C 
BRANCH  22  23
ATOM     23  C   UNL     1       1.724   3.858  19.896  0.00  0.00    +0.000 A 
ATOM     24  C   UNL     1       1.322   3.320  18.668  0.00  0.00    +0.000 A 
ATOM     25  C   UNL     1       2.053   2.284  18.077  0.00  0.00    +0.000 A 
ATOM     26  C   UNL     1       3.193   1.797  18.707  0.00  0.00    +0.000 A 
ATOM     27  F   UNL     1       3.896   0.813  18.131  0.00  0.00    +0.000 F 
ATOM     28  C   UNL     1       3.621   2.325  19.917  0.00  0.00    +0.000 A 
ATOM     29  C   UNL     1       2.893   3.363  20.507  0.00  0.00    +0.000 A 
ENDBRANCH  22  23
ENDBRANCH  21  22
ENDBRANCH   6  21
TORSDOF 5
ENDMDL
MODEL 7
REMARK VINA RESULT:      -7.1      6.602     10.760
REMARK  Name = 
REMARK  6 active torsions:
REMARK  status: ('A' for Active; 'I' for Inactive)
REMARK    1  A    between atoms: C_1  and  C_2
REMARK    2  A    between atoms: C_5  and  C_6
REMARK    3  A    between atoms: C_11  and  C_13
REMARK    4  A    between atoms: C_18  and  O_19
REMARK    5  A    between atoms: O_19  and  C_20
REMARK    6  A    between atoms: C_20  and  C_21
REMARK                            x       y       z     vdW  Elec       q    Type
REMARK                         _______ _______ _______ _____ _____    ______ ____
ROOT
ATOM      1  C   UNL     1      -1.635  11.739  18.667  0.00  0.00    +0.000 A 
ATOM      2  C   UNL     1      -2.977  11.625  18.259  0.00  0.00    +0.000 A 
ATOM      3  C   UNL     1      -3.379  10.675  17.320  0.00  0.00    +0.000 A 
ATOM      4  C   UNL     1      -2.469   9.738  16.868  0.00  0.00    +0.000 A 
ATOM      5  C   UNL     1      -1.186   9.715  17.409  0.00  0.00    +0.000 A 
ATOM      6  C   UNL     1      -0.764  10.678  18.352  0.00  0.00    +0.000 A 
ENDROOT
BRANCH   1  12
ATOM      7  C   UNL     1      -2.254  12.197  23.025  0.00  0.00    +0.000 C 
ATOM      8  C   UNL     1      -1.535  13.333  23.752  0.00  0.00    +0.000 C 
ATOM      9  C   UNL     1      -1.399  14.558  22.844  0.00  0.00    +0.000 C 
ATOM     10  C   UNL     1      -0.740  14.227  21.503  0.00  0.00    +0.000 C 
ATOM     11  N   UNL     1      -1.310  13.052  20.827  0.00  0.00    +0.000 N 
ATOM     12  C   UNL     1      -1.206  12.988  19.400  0.00  0.00    +0.000 C 
ATOM     13  O   UNL     1      -0.772  13.933  18.742  0.00  0.00    +0.000 OA
ATOM     14  C   UNL     1      -1.587  11.895  21.692  0.00  0.00    +0.000 C 
BRANCH   7  19
ATOM     15  C   UNL     1      -6.930  13.525  23.734  0.00  0.00    +0.000 C 
ATOM     16  C   UNL     1      -5.695  13.059  23.084  0.00  0.00    +0.000 A 
ATOM     17  N   UNL     1      -5.533  13.034  21.757  0.00  0.00    +0.000 NA
ATOM     18  O   UNL     1      -4.199  12.662  21.609  0.00  0.00    +0.000 OA
ATOM     19  C   UNL     1      -3.705  12.490  22.871  0.00  0.00    +0.000 A 
ATOM     20  N   UNL     1      -4.597  12.683  23.813  0.00  0.00    +0.000 NA
ENDBRANCH   7  19
ENDBRANCH   1  12
BRANCH   6  21
ATOM     21  O   UNL     1       0.470  10.573  18.966  0.00  0.00    +0.000 OA
BRANCH  21  22
ATOM     22  C   UNL     1       1.478   9.977  18.120  0.00  0.00    +0.000 C 
BRANCH  22  23
ATOM     23  C   UNL     1       2.017   8.653  18.616  0.00  0.00    +0.000 A 
ATOM     24  C   UNL     1       1.646   8.127  19.858  0.00  0.00    +0.000 A 
ATOM     25  C   UNL     1       2.072   6.851  20.242  0.00  0.00    +0.000 A 
ATOM     26  C   UNL     1       2.856   6.096  19.376  0.00  0.00    +0.000 A 
ATOM     27  F   UNL     1       3.252   4.870  19.743  0.00  0.00    +0.000 F 
ATOM     28  C   UNL     1       3.223   6.590  18.131  0.00  0.00    +0.000 A 
ATOM     29  C   UNL     1       2.795   7.863  17.747  0.00  0.00    +0.000 A 
ENDBRANCH  22  23
ENDBRANCH  21  22
ENDBRANCH   6  21
TORSDOF 5
ENDMDL
MODEL 8
REMARK VINA RESULT:      -7.1      2.080      3.328
REMARK  Name = 
REMARK  6 active torsions:
REMARK  status: ('A' for Active; 'I' for Inactive)
REMARK    1  A    between atoms: C_1  and  C_2
REMARK    2  A    between atoms: C_5  and  C_6
REMARK    3  A    between atoms: C_11  and  C_13
REMARK    4  A    between atoms: C_18  and  O_19
REMARK    5  A    between atoms: O_19  and  C_20
REMARK    6  A    between atoms: C_20  and  C_21
REMARK                            x       y       z     vdW  Elec       q    Type
REMARK                         _______ _______ _______ _____ _____    ______ ____
ROOT
ATOM      1  C   UNL     1       2.703   3.978  18.698  0.00  0.00    +0.000 A 
ATOM      2  C   UNL     1       2.599   2.827  19.501  0.00  0.00    +0.000 A 
ATOM      3  C   UNL     1       2.464   2.911  20.887  0.00  0.00    +0.000 A 
ATOM      4  C   UNL     1       2.300   4.148  21.481  0.00  0.00    +0.000 A 
ATOM      5  C   UNL     1       2.204   5.283  20.680  0.00  0.00    +0.000 A 
ATOM      6  C   UNL     1       2.351   5.213  19.277  0.00  0.00    +0.000 A 
ENDROOT
BRANCH   1  12
ATOM      7  C   UNL     1       6.963   4.557  17.644  0.00  0.00    +0.000 C 
ATOM      8  C   UNL     1       7.446   4.097  16.268  0.00  0.00    +0.000 C 
ATOM      9  C   UNL     1       6.345   4.274  15.220  0.00  0.00    +0.000 C 
ATOM     10  C   UNL     1       5.033   3.597  15.623  0.00  0.00    +0.000 C 
ATOM     11  N   UNL     1       4.597   3.900  16.993  0.00  0.00    +0.000 N 
ATOM     12  C   UNL     1       3.194   3.827  17.278  0.00  0.00    +0.000 C 
ATOM     13  O   UNL     1       2.364   3.642  16.389  0.00  0.00    +0.000 OA
ATOM     14  C   UNL     1       5.654   3.877  18.016  0.00  0.00    +0.000 C 
BRANCH   7  19
ATOM     15  C   UNL     1       7.902   9.377  17.770  0.00  0.00    +0.000 C 
ATOM     16  C   UNL     1       7.177   8.096  17.742  0.00  0.00    +0.000 A 
ATOM     17  N   UNL     1       5.881   7.998  17.427  0.00  0.00    +0.000 NA
ATOM     18  O   UNL     1       5.667   6.623  17.397  0.00  0.00    +0.000 OA
ATOM     19  C   UNL     1       6.863   6.040  17.712  0.00  0.00    +0.000 A 
ATOM     20  N   UNL     1       7.814   6.905  17.972  0.00  0.00    +0.000 NA
ENDBRANCH   7  19
ENDBRANCH   1  12
BRANCH   6  21
ATOM     21  O   UNL     1       2.137   6.327  18.488  0.00  0.00    +0.000 OA
BRANCH  21  22
ATOM     22  C   UNL     1       2.619   7.550  19.085  0.00  0.00    +0.000 C 
BRANCH  22  23
ATOM     23  C   UNL     1       1.569   8.625  19.260  0.00  0.00    +0.000 A 
ATOM     24  C   UNL     1       1.036   9.317  18.167  0.00  0.00    +0.000 A 
ATOM     25  C   UNL     1      -0.012  10.226  18.348  0.00  0.00    +0.000 A 
ATOM     26  C   UNL     1      -0.536  10.431  19.621  0.00  0.00    +0.000 A 
ATOM     27  F   UNL     1      -1.547  11.293  19.787  0.00  0.00    +0.000 F 
ATOM     28  C   UNL     1      -0.035   9.743  20.718  0.00  0.00    +0.000 A 
ATOM     29  C   UNL     1       1.010   8.832  20.537  0.00  0.00    +0.000 A 
ENDBRANCH  22  23
ENDBRANCH  21  22
ENDBRANCH   6  21
TORSDOF 5
ENDMDL
MODEL 9
REMARK VINA RESULT:      -7.0      7.396      9.702
REMARK  Name = 
REMARK  6 active torsions:
REMARK  status: ('A' for Active; 'I' for Inactive)
REMARK    1  A    between atoms: C_1  and  C_2
REMARK    2  A    between atoms: C_5  and  C_6
REMARK    3  A    between atoms: C_11  and  C_13
REMARK    4  A    between atoms: C_18  and  O_19
REMARK    5  A    between atoms: O_19  and  C_20
REMARK    6  A    between atoms: C_20  and  C_21
REMARK                            x       y       z     vdW  Elec       q    Type
REMARK                         _______ _______ _______ _____ _____    ______ ____
ROOT
ATOM      1  C   UNL     1       0.182  11.084  20.647  0.00  0.00    +0.000 A 
ATOM      2  C   UNL     1       0.590  10.078  21.543  0.00  0.00    +0.000 A 
ATOM      3  C   UNL     1       0.005   9.937  22.802  0.00  0.00    +0.000 A 
ATOM      4  C   UNL     1      -1.085  10.718  23.138  0.00  0.00    +0.000 A 
ATOM      5  C   UNL     1      -1.624  11.582  22.188  0.00  0.00    +0.000 A 
ATOM      6  C   UNL     1      -1.035  11.743  20.914  0.00  0.00    +0.000 A 
ENDROOT
BRANCH   1  12
ATOM      7  C   UNL     1       2.305  14.955  20.336  0.00  0.00    +0.000 C 
ATOM      8  C   UNL     1       3.412  15.102  19.293  0.00  0.00    +0.000 C 
ATOM      9  C   UNL     1       3.092  14.277  18.043  0.00  0.00    +0.000 C 
ATOM     10  C   UNL     1       2.797  12.810  18.365  0.00  0.00    +0.000 C 
ATOM     11  N   UNL     1       1.837  12.617  19.461  0.00  0.00    +0.000 N 
ATOM     12  C   UNL     1       1.070  11.407  19.470  0.00  0.00    +0.000 C 
ATOM     13  O   UNL     1       1.112  10.610  18.533  0.00  0.00    +0.000 OA
ATOM     14  C   UNL     1       2.024  13.490  20.630  0.00  0.00    +0.000 C 
BRANCH   7  19
ATOM     15  C   UNL     1      -0.996  17.764  18.025  0.00  0.00    +0.000 C 
ATOM     16  C   UNL     1      -0.385  16.835  18.988  0.00  0.00    +0.000 A 
ATOM     17  N   UNL     1      -1.101  16.030  19.781  0.00  0.00    +0.000 NA
ATOM     18  O   UNL     1      -0.127  15.255  20.405  0.00  0.00    +0.000 OA
ATOM     19  C   UNL     1       1.077  15.689  19.925  0.00  0.00    +0.000 A 
ATOM     20  N   UNL     1       0.975  16.687  19.081  0.00  0.00    +0.000 NA
ENDBRANCH   7  19
ENDBRANCH   1  12
BRANCH   6  21
ATOM     21  O   UNL     1      -1.647  12.514  19.945  0.00  0.00    +0.000 OA
BRANCH  21  22
ATOM     22  C   UNL     1      -2.997  12.094  19.651  0.00  0.00    +0.000 C 
BRANCH  22  23
ATOM     23  C   UNL     1      -3.167  11.400  18.317  0.00  0.00    +0.000 A 
ATOM     24  C   UNL     1      -4.211  11.727  17.446  0.00  0.00    +0.000 A 
ATOM     25  C   UNL     1      -4.279  11.149  16.174  0.00  0.00    +0.000 A 
ATOM     26  C   UNL     1      -3.292  10.255  15.769  0.00  0.00    +0.000 A 
ATOM     27  F   UNL     1      -3.355   9.713  14.545  0.00  0.00    +0.000 F 
ATOM     28  C   UNL     1      -2.237   9.928  16.609  0.00  0.00    +0.000 A 
ATOM     29  C   UNL     1      -2.167  10.508  17.879  0.00  0.00    +0.000 A 
ENDBRANCH  22  23
ENDBRANCH  21  22
ENDBRANCH   6  21
TORSDOF 5
ENDMDL
