MODEL 1
REMARK VINA RESULT:      -9.2      0.000      0.000
REMARK  Name = 
REMARK  6 active torsions:
REMARK  status: ('A' for Active; 'I' for Inactive)
REMARK    1  A    between atoms: C_1  and  C_2
REMARK    2  A    between atoms: C_5  and  C_6
REMARK    3  A    between atoms: C_12  and  C_13
REMARK    4  A    between atoms: N_15  and  C_16
REMARK    5  A    between atoms: C_20  and  S_21
REMARK    6  A    between atoms: S_21  and  N_24
REMARK                            x       y       z     vdW  Elec       q    Type
REMARK                         _______ _______ _______ _____ _____    ______ ____
ROOT
ATOM      1  C   UNL     1       2.471   5.233  19.365  0.00  0.00    +0.000 C 
ATOM      2  O   UNL     1       1.628   5.042  18.494  0.00  0.00    +0.000 OA
ATOM      3  N   UNL     1       2.789   6.492  19.864  0.00  0.00    +0.000 N 
ATOM      4  H   UNL     1       3.621   6.590  20.431  0.00  0.00    +0.000 HD
ENDROOT
BRANCH   1  10
ATOM      5  C   UNL     1       1.675   2.757  21.523  0.00  0.00    +0.000 C 
ATOM      6  C   UNL     1       2.862   3.085  20.715  0.00  0.00    +0.000 A 
ATOM      7  O   UNL     1       3.850   2.155  20.765  0.00  0.00    +0.000 OA
ATOM      8  N   UNL     1       4.896   2.536  19.967  0.00  0.00    +0.000 NA
ATOM      9  C   UNL     1       4.552   3.713  19.421  0.00  0.00    +0.000 A 
ATOM     10  C   UNL     1       3.231   4.096  19.852  0.00  0.00    +0.000 A 
BRANCH   9  11
ATOM     11  C   UNL     1       5.494   4.425  18.550  0.00  0.00    +0.000 A 
ATOM     12  C   UNL     1       6.431   5.315  19.094  0.00  0.00    +0.000 A 
ATOM     13  C   UNL     1       7.314   6.013  18.266  0.00  0.00    +0.000 A 
ATOM     14  C   UNL     1       7.277   5.823  16.885  0.00  0.00    +0.000 A 
ATOM     15  C   UNL     1       6.355   4.944  16.330  0.00  0.00    +0.000 A 
ATOM     16  C   UNL     1       5.460   4.265  17.157  0.00  0.00    +0.000 A 
ENDBRANCH   9  11
ENDBRANCH   1  10
BRANCH   3  17
ATOM     17  C   UNL     1       2.161   7.694  19.422  0.00  0.00    +0.000 A 
ATOM     18  C   UNL     1       2.219   8.130  18.092  0.00  0.00    +0.000 A 
ATOM     19  C   UNL     1       1.667   9.348  17.692  0.00  0.00    +0.000 A 
ATOM     20  C   UNL     1       1.024  10.161  18.619  0.00  0.00    +0.000 A 
ATOM     21  C   UNL     1       0.931   9.734  19.945  0.00  0.00    +0.000 A 
ATOM     22  C   UNL     1       1.466   8.488  20.339  0.00  0.00    +0.000 A 
BRANCH  21  23
ATOM     23  S   UNL     1       0.004  10.683  21.132  0.00  0.00    +0.000 S 
ATOM     24  O   UNL     1      -0.793   9.750  21.921  0.00  0.00    +0.000 OA
ATOM     25  O   UNL     1       0.904  11.595  21.798  0.00  0.00    +0.000 OA
BRANCH  23  26
ATOM     26  N   UNL     1      -1.105  11.599  20.266  0.00  0.00    +0.000 N 
ATOM     27  C   UNL     1      -2.119  12.327  20.890  0.00  0.00    +0.000 C 
ATOM     28  N   UNL     1      -1.984  12.791  22.081  0.00  0.00    +0.000 NA
ATOM     29  C   UNL     1      -3.258  13.430  22.417  0.00  0.00    +0.000 C 
ATOM     30  C   UNL     1      -3.976  13.649  21.098  0.00  0.00    +0.000 C 
ATOM     31  C   UNL     1      -3.423  12.559  20.205  0.00  0.00    +0.000 C 
ATOM     32  H   UNL     1      -1.238  11.238  19.324  0.00  0.00    +0.000 HD
ENDBRANCH  23  26
ENDBRANCH  21  23
ENDBRANCH   3  17
TORSDOF 5
ENDMDL
MODEL 2
REMARK VINA RESULT:      -9.0      1.400      1.469
REMARK  Name = 
REMARK  6 active torsions:
REMARK  status: ('A' for Active; 'I' for Inactive)
REMARK    1  A    between atoms: C_1  and  C_2
REMARK    2  A    between atoms: C_5  and  C_6
REMARK    3  A    between atoms: C_12  and  C_13
REMARK    4  A    between atoms: N_15  and  C_16
REMARK    5  A    between atoms: C_20  and  S_21
REMARK    6  A    between atoms: S_21  and  N_24
REMARK                            x       y       z     vdW  Elec       q    Type
REMARK                         _______ _______ _______ _____ _____    ______ ____
ROOT
ATOM      1  C   UNL     1       2.505   5.255  19.283  0.00  0.00    +0.000 C 
ATOM      2  O   UNL     1       1.712   5.109  18.359  0.00  0.00    +0.000 OA
ATOM      3  N   UNL     1       2.783   6.485  19.870  0.00  0.00    +0.000 N 
ATOM      4  H   UNL     1       3.583   6.556  20.486  0.00  0.00    +0.000 HD
ENDROOT
BRANCH   1  10
ATOM      5  C   UNL     1       1.805   2.917  21.621  0.00  0.00    +0.000 C 
ATOM      6  C   UNL     1       2.919   3.144  20.685  0.00  0.00    +0.000 A 
ATOM      7  O   UNL     1       3.857   2.163  20.679  0.00  0.00    +0.000 OA
ATOM      8  N   UNL     1       4.835   2.451  19.764  0.00  0.00    +0.000 NA
ATOM      9  C   UNL     1       4.499   3.623  19.202  0.00  0.00    +0.000 A 
ATOM     10  C   UNL     1       3.251   4.097  19.744  0.00  0.00    +0.000 A 
BRANCH   9  11
ATOM     11  C   UNL     1       5.384   4.245  18.209  0.00  0.00    +0.000 A 
ATOM     12  C   UNL     1       6.415   5.105  18.617  0.00  0.00    +0.000 A 
ATOM     13  C   UNL     1       7.243   5.717  17.673  0.00  0.00    +0.000 A 
ATOM     14  C   UNL     1       7.058   5.472  16.314  0.00  0.00    +0.000 A 
ATOM     15  C   UNL     1       6.042   4.623  15.894  0.00  0.00    +0.000 A 
ATOM     16  C   UNL     1       5.201   4.030  16.836  0.00  0.00    +0.000 A 
ENDBRANCH   9  11
ENDBRANCH   1  10
BRANCH   3  17
ATOM     17  C   UNL     1       2.167   7.706  19.466  0.00  0.00    +0.000 A 
ATOM     18  C   UNL     1       2.192   8.160  18.141  0.00  0.00    +0.000 A 
ATOM     19  C   UNL     1       1.653   9.395  17.776  0.00  0.00    +0.000 A 
ATOM     20  C   UNL     1       1.057  10.207  18.734  0.00  0.00    +0.000 A 
ATOM     21  C   UNL     1       0.996   9.762  20.057  0.00  0.00    +0.000 A 
ATOM     22  C   UNL     1       1.518   8.500  20.415  0.00  0.00    +0.000 A 
BRANCH  21  23
ATOM     23  S   UNL     1       0.127  10.712  21.285  0.00  0.00    +0.000 S 
ATOM     24  O   UNL     1      -1.286  10.717  20.924  0.00  0.00    +0.000 OA
ATOM     25  O   UNL     1       0.528  10.252  22.594  0.00  0.00    +0.000 OA
BRANCH  23  26
ATOM     26  N   UNL     1       0.636  12.304  21.124  0.00  0.00    +0.000 N 
ATOM     27  C   UNL     1       0.062  13.347  21.851  0.00  0.00    +0.000 C 
ATOM     28  N   UNL     1      -0.461  13.158  23.010  0.00  0.00    +0.000 NA
ATOM     29  C   UNL     1      -1.012  14.449  23.425  0.00  0.00    +0.000 C 
ATOM     30  C   UNL     1      -0.345  15.491  22.545  0.00  0.00    +0.000 C 
ATOM     31  C   UNL     1      -0.002  14.726  21.284  0.00  0.00    +0.000 C 
ATOM     32  H   UNL     1       1.040  12.479  20.207  0.00  0.00    +0.000 HD
ENDBRANCH  23  26
ENDBRANCH  21  23
ENDBRANCH   3  17
TORSDOF 5
ENDMDL
MODEL 3
REMARK VINA RESULT:      -8.8      1.459      1.726
REMARK  Name = 
REMARK  6 active torsions:
REMARK  status: ('A' for Active; 'I' for Inactive)
REMARK    1  A    between atoms: C_1  and  C_2
REMARK    2  A    between atoms: C_5  and  C_6
REMARK    3  A    between atoms: C_12  and  C_13
REMARK    4  A    between atoms: N_15  and  C_16
REMARK    5  A    between atoms: C_20  and  S_21
REMARK    6  A    between atoms: S_21  and  N_24
REMARK                            x       y       z     vdW  Elec       q    Type
REMARK                         _______ _______ _______ _____ _____    ______ ____
ROOT
ATOM      1  C   UNL     1       2.412   5.549  19.349  0.00  0.00    +0.000 C 
ATOM      2  O   UNL     1       1.624   5.407  18.421  0.00  0.00    +0.000 OA
ATOM      3  N   UNL     1       2.640   6.765  19.985  0.00  0.00    +0.000 N 
ATOM      4  H   UNL     1       3.437   6.845  20.602  0.00  0.00    +0.000 HD
ENDROOT
BRANCH   1  10
ATOM      5  C   UNL     1       1.624   2.794  21.140  0.00  0.00    +0.000 C 
ATOM      6  C   UNL     1       2.842   3.280  20.472  0.00  0.00    +0.000 A 
ATOM      7  O   UNL     1       3.882   2.408  20.493  0.00  0.00    +0.000 OA
ATOM      8  N   UNL     1       4.957   2.938  19.830  0.00  0.00    +0.000 NA
ATOM      9  C   UNL     1       4.577   4.151  19.397  0.00  0.00    +0.000 A 
ATOM     10  C   UNL     1       3.207   4.406  19.762  0.00  0.00    +0.000 A 
BRANCH   9  11
ATOM     11  C   UNL     1       5.533   5.013  18.690  0.00  0.00    +0.000 A 
ATOM     12  C   UNL     1       5.276   5.430  17.376  0.00  0.00    +0.000 A 
ATOM     13  C   UNL     1       6.194   6.230  16.691  0.00  0.00    +0.000 A 
ATOM     14  C   UNL     1       7.375   6.630  17.314  0.00  0.00    +0.000 A 
ATOM     15  C   UNL     1       7.645   6.225  18.616  0.00  0.00    +0.000 A 
ATOM     16  C   UNL     1       6.737   5.408  19.290  0.00  0.00    +0.000 A 
ENDBRANCH   9  11
ENDBRANCH   1  10
BRANCH   3  17
ATOM     17  C   UNL     1       1.971   7.974  19.631  0.00  0.00    +0.000 A 
ATOM     18  C   UNL     1       1.935   8.458  18.317  0.00  0.00    +0.000 A 
ATOM     19  C   UNL     1       1.345   9.683  17.999  0.00  0.00    +0.000 A 
ATOM     20  C   UNL     1       0.758  10.454  18.996  0.00  0.00    +0.000 A 
ATOM     21  C   UNL     1       0.759   9.978  20.309  0.00  0.00    +0.000 A 
ATOM     22  C   UNL     1       1.332   8.726  20.620  0.00  0.00    +0.000 A 
BRANCH  21  23
ATOM     23  S   UNL     1      -0.096  10.872  21.589  0.00  0.00    +0.000 S 
ATOM     24  O   UNL     1      -1.523  10.816  21.293  0.00  0.00    +0.000 OA
ATOM     25  O   UNL     1       0.386  10.416  22.872  0.00  0.00    +0.000 OA
BRANCH  23  26
ATOM     26  N   UNL     1       0.332  12.487  21.427  0.00  0.00    +0.000 N 
ATOM     27  C   UNL     1      -0.243  13.493  22.205  0.00  0.00    +0.000 C 
ATOM     28  N   UNL     1      -0.687  13.262  23.389  0.00  0.00    +0.000 NA
ATOM     29  C   UNL     1      -1.269  14.521  23.860  0.00  0.00    +0.000 C 
ATOM     30  C   UNL     1      -0.703  15.605  22.960  0.00  0.00    +0.000 C 
ATOM     31  C   UNL     1      -0.402  14.876  21.668  0.00  0.00    +0.000 C 
ATOM     32  H   UNL     1       0.672  12.695  20.490  0.00  0.00    +0.000 HD
ENDBRANCH  23  26
ENDBRANCH  21  23
ENDBRANCH   3  17
TORSDOF 5
ENDMDL
MODEL 4
REMARK VINA RESULT:      -8.8      1.415      1.802
REMARK  Name = 
REMARK  6 active torsions:
REMARK  status: ('A' for Active; 'I' for Inactive)
REMARK    1  A    between atoms: C_1  and  C_2
REMARK    2  A    between atoms: C_5  and  C_6
REMARK    3  A    between atoms: C_12  and  C_13
REMARK    4  A    between atoms: N_15  and  C_16
REMARK    5  A    between atoms: C_20  and  S_21
REMARK    6  A    between atoms: S_21  and  N_24
REMARK                            x       y       z     vdW  Elec       q    Type
REMARK                         _______ _______ _______ _____ _____    ______ ____
ROOT
ATOM      1  C   UNL     1       2.440   5.143  19.517  0.00  0.00    +0.000 C 
ATOM      2  O   UNL     1       1.360   4.962  18.965  0.00  0.00    +0.000 OA
ATOM      3  N   UNL     1       3.018   6.397  19.682  0.00  0.00    +0.000 N 
ATOM      4  H   UNL     1       3.988   6.449  19.966  0.00  0.00    +0.000 HD
ENDROOT
BRANCH   1  10
ATOM      5  C   UNL     1       1.655   2.622  21.626  0.00  0.00    +0.000 C 
ATOM      6  C   UNL     1       2.829   2.954  20.801  0.00  0.00    +0.000 A 
ATOM      7  O   UNL     1       3.805   2.010  20.805  0.00  0.00    +0.000 OA
ATOM      8  N   UNL     1       4.839   2.398  19.995  0.00  0.00    +0.000 NA
ATOM      9  C   UNL     1       4.500   3.593  19.488  0.00  0.00    +0.000 A 
ATOM     10  C   UNL     1       3.195   3.983  19.957  0.00  0.00    +0.000 A 
BRANCH   9  11
ATOM     11  C   UNL     1       5.434   4.315  18.616  0.00  0.00    +0.000 A 
ATOM     12  C   UNL     1       6.434   5.131  19.166  0.00  0.00    +0.000 A 
ATOM     13  C   UNL     1       7.310   5.838  18.338  0.00  0.00    +0.000 A 
ATOM     14  C   UNL     1       7.202   5.733  16.953  0.00  0.00    +0.000 A 
ATOM     15  C   UNL     1       6.217   4.930  16.392  0.00  0.00    +0.000 A 
ATOM     16  C   UNL     1       5.330   4.242  17.219  0.00  0.00    +0.000 A 
ENDBRANCH   9  11
ENDBRANCH   1  10
BRANCH   3  17
ATOM     17  C   UNL     1       2.410   7.608  19.236  0.00  0.00    +0.000 A 
ATOM     18  C   UNL     1       2.557   8.088  17.928  0.00  0.00    +0.000 A 
ATOM     19  C   UNL     1       2.021   9.313  17.529  0.00  0.00    +0.000 A 
ATOM     20  C   UNL     1       1.306  10.090  18.434  0.00  0.00    +0.000 A 
ATOM     21  C   UNL     1       1.123   9.618  19.736  0.00  0.00    +0.000 A 
ATOM     22  C   UNL     1       1.643   8.365  20.126  0.00  0.00    +0.000 A 
BRANCH  21  23
ATOM     23  S   UNL     1       0.104  10.520  20.883  0.00  0.00    +0.000 S 
ATOM     24  O   UNL     1      -0.805   9.568  21.512  0.00  0.00    +0.000 OA
ATOM     25  O   UNL     1       0.956  11.346  21.707  0.00  0.00    +0.000 OA
BRANCH  23  26
ATOM     26  N   UNL     1      -0.873  11.538  19.974  0.00  0.00    +0.000 N 
ATOM     27  C   UNL     1      -1.610  11.083  18.880  0.00  0.00    +0.000 C 
ATOM     28  N   UNL     1      -2.031   9.871  18.804  0.00  0.00    +0.000 NA
ATOM     29  C   UNL     1      -2.696   9.750  17.506  0.00  0.00    +0.000 C 
ATOM     30  C   UNL     1      -2.980  11.169  17.048  0.00  0.00    +0.000 C 
ATOM     31  C   UNL     1      -1.904  11.987  17.730  0.00  0.00    +0.000 C 
ATOM     32  H   UNL     1      -0.547  12.501  20.008  0.00  0.00    +0.000 HD
ENDBRANCH  23  26
ENDBRANCH  21  23
ENDBRANCH   3  17
TORSDOF 5
ENDMDL
MODEL 5
REMARK VINA RESULT:      -8.7      1.759      2.116
REMARK  Name = 
REMARK  6 active torsions:
REMARK  status: ('A' for Active; 'I' for Inactive)
REMARK    1  A    between atoms: C_1  and  C_2
REMARK    2  A    between atoms: C_5  and  C_6
REMARK    3  A    between atoms: C_12  and  C_13
REMARK    4  A    between atoms: N_15  and  C_16
REMARK    5  A    between atoms: C_20  and  S_21
REMARK    6  A    between atoms: S_21  and  N_24
REMARK                            x       y       z     vdW  Elec       q    Type
REMARK                         _______ _______ _______ _____ _____    ______ ____
ROOT
ATOM      1  C   UNL     1       2.473   5.197  19.389  0.00  0.00    +0.000 C 
ATOM      2  O   UNL     1       1.583   4.980  18.573  0.00  0.00    +0.000 OA
ATOM      3  N   UNL     1       2.834   6.471  19.813  0.00  0.00    +0.000 N 
ATOM      4  H   UNL     1       3.696   6.582  20.331  0.00  0.00    +0.000 HD
ENDROOT
BRANCH   1  10
ATOM      5  C   UNL     1       1.689   2.723  21.555  0.00  0.00    +0.000 C 
ATOM      6  C   UNL     1       2.878   3.060  20.754  0.00  0.00    +0.000 A 
ATOM      7  O   UNL     1       3.876   2.141  20.816  0.00  0.00    +0.000 OA
ATOM      8  N   UNL     1       4.924   2.530  20.023  0.00  0.00    +0.000 NA
ATOM      9  C   UNL     1       4.571   3.700  19.469  0.00  0.00    +0.000 A 
ATOM     10  C   UNL     1       3.243   4.071  19.888  0.00  0.00    +0.000 A 
BRANCH   9  11
ATOM     11  C   UNL     1       5.512   4.418  18.600  0.00  0.00    +0.000 A 
ATOM     12  C   UNL     1       6.467   5.284  19.152  0.00  0.00    +0.000 A 
ATOM     13  C   UNL     1       7.348   5.988  18.327  0.00  0.00    +0.000 A 
ATOM     14  C   UNL     1       7.291   5.828  16.943  0.00  0.00    +0.000 A 
ATOM     15  C   UNL     1       6.351   4.973  16.382  0.00  0.00    +0.000 A 
ATOM     16  C   UNL     1       5.457   4.289  17.205  0.00  0.00    +0.000 A 
ENDBRANCH   9  11
ENDBRANCH   1  10
BRANCH   3  17
ATOM     17  C   UNL     1       2.201   7.662  19.349  0.00  0.00    +0.000 A 
ATOM     18  C   UNL     1       2.361   8.142  18.044  0.00  0.00    +0.000 A 
ATOM     19  C   UNL     1       1.798   9.351  17.629  0.00  0.00    +0.000 A 
ATOM     20  C   UNL     1       1.041  10.108  18.515  0.00  0.00    +0.000 A 
ATOM     21  C   UNL     1       0.845   9.635  19.815  0.00  0.00    +0.000 A 
ATOM     22  C   UNL     1       1.393   8.398  20.220  0.00  0.00    +0.000 A 
BRANCH  21  23
ATOM     23  S   UNL     1      -0.225  10.509  20.937  0.00  0.00    +0.000 S 
ATOM     24  O   UNL     1      -1.346  11.032  20.165  0.00  0.00    +0.000 OA
ATOM     25  O   UNL     1      -0.478   9.668  22.083  0.00  0.00    +0.000 OA
BRANCH  23  26
ATOM     26  N   UNL     1       0.621  11.858  21.468  0.00  0.00    +0.000 N 
ATOM     27  C   UNL     1       0.910  12.935  20.629  0.00  0.00    +0.000 C 
ATOM     28  N   UNL     1       0.154  13.241  19.636  0.00  0.00    +0.000 NA
ATOM     29  C   UNL     1       0.803  14.366  18.959  0.00  0.00    +0.000 C 
ATOM     30  C   UNL     1       1.796  14.936  19.956  0.00  0.00    +0.000 C 
ATOM     31  C   UNL     1       2.141  13.752  20.834  0.00  0.00    +0.000 C 
ATOM     32  H   UNL     1       1.238  11.634  22.245  0.00  0.00    +0.000 HD
ENDBRANCH  23  26
ENDBRANCH  21  23
ENDBRANCH   3  17
TORSDOF 5
ENDMDL
MODEL 6
REMARK VINA RESULT:      -8.7      1.249      1.534
REMARK  Name = 
REMARK  6 active torsions:
REMARK  status: ('A' for Active; 'I' for Inactive)
REMARK    1  A    between atoms: C_1  and  C_2
REMARK    2  A    between atoms: C_5  and  C_6
REMARK    3  A    between atoms: C_12  and  C_13
REMARK    4  A    between atoms: N_15  and  C_16
REMARK    5  A    between atoms: C_20  and  S_21
REMARK    6  A    between atoms: S_21  and  N_24
REMARK                            x       y       z     vdW  Elec       q    Type
REMARK                         _______ _______ _______ _____ _____    ______ ____
ROOT
ATOM      1  C   UNL     1       2.465   5.100  19.432  0.00  0.00    +0.000 C 
ATOM      2  O   UNL     1       1.506   4.878  18.700  0.00  0.00    +0.000 OA
ATOM      3  N   UNL     1       2.878   6.379  19.791  0.00  0.00    +0.000 N 
ATOM      4  H   UNL     1       3.782   6.488  20.232  0.00  0.00    +0.000 HD
ENDROOT
BRANCH   1  10
ATOM      5  C   UNL     1       1.772   2.596  21.593  0.00  0.00    +0.000 C 
ATOM      6  C   UNL     1       2.931   2.951  20.757  0.00  0.00    +0.000 A 
ATOM      7  O   UNL     1       3.937   2.039  20.775  0.00  0.00    +0.000 OA
ATOM      8  N   UNL     1       4.955   2.445  19.952  0.00  0.00    +0.000 NA
ATOM      9  C   UNL     1       4.575   3.619  19.424  0.00  0.00    +0.000 A 
ATOM     10  C   UNL     1       3.259   3.974  19.891  0.00  0.00    +0.000 A 
BRANCH   9  11
ATOM     11  C   UNL     1       5.481   4.354  18.533  0.00  0.00    +0.000 A 
ATOM     12  C   UNL     1       6.441   5.229  19.061  0.00  0.00    +0.000 A 
ATOM     13  C   UNL     1       7.289   5.948  18.215  0.00  0.00    +0.000 A 
ATOM     14  C   UNL     1       7.194   5.796  16.833  0.00  0.00    +0.000 A 
ATOM     15  C   UNL     1       6.248   4.933  16.294  0.00  0.00    +0.000 A 
ATOM     16  C   UNL     1       5.387   4.232  17.139  0.00  0.00    +0.000 A 
ENDBRANCH   9  11
ENDBRANCH   1  10
BRANCH   3  17
ATOM     17  C   UNL     1       2.223   7.568  19.354  0.00  0.00    +0.000 A 
ATOM     18  C   UNL     1       2.248   7.995  18.020  0.00  0.00    +0.000 A 
ATOM     19  C   UNL     1       1.669   9.202  17.623  0.00  0.00    +0.000 A 
ATOM     20  C   UNL     1       1.033  10.012  18.557  0.00  0.00    +0.000 A 
ATOM     21  C   UNL     1       0.973   9.593  19.888  0.00  0.00    +0.000 A 
ATOM     22  C   UNL     1       1.535   8.358  20.279  0.00  0.00    +0.000 A 
BRANCH  21  23
ATOM     23  S   UNL     1       0.056  10.537  21.086  0.00  0.00    +0.000 S 
ATOM     24  O   UNL     1      -0.927   9.647  21.694  0.00  0.00    +0.000 OA
ATOM     25  O   UNL     1       0.990  11.248  21.926  0.00  0.00    +0.000 OA
BRANCH  23  26
ATOM     26  N   UNL     1      -0.836  11.675  20.234  0.00  0.00    +0.000 N 
ATOM     27  C   UNL     1      -0.365  12.967  19.999  0.00  0.00    +0.000 C 
ATOM     28  N   UNL     1       0.891  13.225  19.915  0.00  0.00    +0.000 NA
ATOM     29  C   UNL     1       0.999  14.674  19.734  0.00  0.00    +0.000 C 
ATOM     30  C   UNL     1      -0.374  15.143  19.287  0.00  0.00    +0.000 C 
ATOM     31  C   UNL     1      -1.313  14.113  19.878  0.00  0.00    +0.000 C 
ATOM     32  H   UNL     1      -1.835  11.497  20.301  0.00  0.00    +0.000 HD
ENDBRANCH  23  26
ENDBRANCH  21  23
ENDBRANCH   3  17
TORSDOF 5
ENDMDL
MODEL 7
REMARK VINA RESULT:      -8.5      2.022      2.708
REMARK  Name = 
REMARK  6 active torsions:
REMARK  status: ('A' for Active; 'I' for Inactive)
REMARK    1  A    between atoms: C_1  and  C_2
REMARK    2  A    between atoms: C_5  and  C_6
REMARK    3  A    between atoms: C_12  and  C_13
REMARK    4  A    between atoms: N_15  and  C_16
REMARK    5  A    between atoms: C_20  and  S_21
REMARK    6  A    between atoms: S_21  and  N_24
REMARK                            x       y       z     vdW  Elec       q    Type
REMARK                         _______ _______ _______ _____ _____    ______ ____
ROOT
ATOM      1  C   UNL     1       2.415   5.958  19.795  0.00  0.00    +0.000 C 
ATOM      2  O   UNL     1       2.183   6.401  18.675  0.00  0.00    +0.000 OA
ATOM      3  N   UNL     1       2.113   6.640  20.969  0.00  0.00    +0.000 N 
ATOM      4  H   UNL     1       2.507   6.304  21.838  0.00  0.00    +0.000 HD
ENDROOT
BRANCH   1  10
ATOM      5  C   UNL     1       1.467   2.986  21.094  0.00  0.00    +0.000 C 
ATOM      6  C   UNL     1       2.678   3.482  20.419  0.00  0.00    +0.000 A 
ATOM      7  O   UNL     1       3.616   2.530  20.176  0.00  0.00    +0.000 OA
ATOM      8  N   UNL     1       4.689   3.081  19.527  0.00  0.00    +0.000 NA
ATOM      9  C   UNL     1       4.413   4.385  19.371  0.00  0.00    +0.000 A 
ATOM     10  C   UNL     1       3.110   4.688  19.906  0.00  0.00    +0.000 A 
BRANCH   9  11
ATOM     11  C   UNL     1       5.401   5.279  18.754  0.00  0.00    +0.000 A 
ATOM     12  C   UNL     1       5.097   5.963  17.568  0.00  0.00    +0.000 A 
ATOM     13  C   UNL     1       6.044   6.795  16.965  0.00  0.00    +0.000 A 
ATOM     14  C   UNL     1       7.301   6.960  17.544  0.00  0.00    +0.000 A 
ATOM     15  C   UNL     1       7.618   6.289  18.719  0.00  0.00    +0.000 A 
ATOM     16  C   UNL     1       6.680   5.442  19.307  0.00  0.00    +0.000 A 
ENDBRANCH   9  11
ENDBRANCH   1  10
BRANCH   3  17
ATOM     17  C   UNL     1       1.490   7.923  20.994  0.00  0.00    +0.000 A 
ATOM     18  C   UNL     1       0.929   8.465  22.157  0.00  0.00    +0.000 A 
ATOM     19  C   UNL     1       0.254   9.688  22.148  0.00  0.00    +0.000 A 
ATOM     20  C   UNL     1       0.136  10.410  20.967  0.00  0.00    +0.000 A 
ATOM     21  C   UNL     1       0.712   9.902  19.800  0.00  0.00    +0.000 A 
ATOM     22  C   UNL     1       1.418   8.679  19.821  0.00  0.00    +0.000 A 
BRANCH  21  23
ATOM     23  S   UNL     1       0.695  10.858  18.299  0.00  0.00    +0.000 S 
ATOM     24  O   UNL     1       0.433  12.247  18.661  0.00  0.00    +0.000 OA
ATOM     25  O   UNL     1       1.873  10.531  17.530  0.00  0.00    +0.000 OA
BRANCH  23  26
ATOM     26  N   UNL     1      -0.645  10.363  17.419  0.00  0.00    +0.000 N 
ATOM     27  C   UNL     1      -1.948  10.698  17.792  0.00  0.00    +0.000 C 
ATOM     28  N   UNL     1      -2.209  11.776  18.442  0.00  0.00    +0.000 NA
ATOM     29  C   UNL     1      -3.649  11.753  18.708  0.00  0.00    +0.000 C 
ATOM     30  C   UNL     1      -4.236  10.739  17.743  0.00  0.00    +0.000 C 
ATOM     31  C   UNL     1      -3.088   9.788  17.481  0.00  0.00    +0.000 C 
ATOM     32  H   UNL     1      -0.464   9.502  16.908  0.00  0.00    +0.000 HD
ENDBRANCH  23  26
ENDBRANCH  21  23
ENDBRANCH   3  17
TORSDOF 5
ENDMDL
MODEL 8
REMARK VINA RESULT:      -8.5      0.929      1.235
REMARK  Name = 
REMARK  6 active torsions:
REMARK  status: ('A' for Active; 'I' for Inactive)
REMARK    1  A    between atoms: C_1  and  C_2
REMARK    2  A    between atoms: C_5  and  C_6
REMARK    3  A    between atoms: C_12  and  C_13
REMARK    4  A    between atoms: N_15  and  C_16
REMARK    5  A    between atoms: C_20  and  S_21
REMARK    6  A    between atoms: S_21  and  N_24
REMARK                            x       y       z     vdW  Elec       q    Type
REMARK                         _______ _______ _______ _____ _____    ______ ____
ROOT
ATOM      1  C   UNL     1       2.401   5.763  19.182  0.00  0.00    +0.000 C 
ATOM      2  O   UNL     1       1.778   5.689  18.129  0.00  0.00    +0.000 OA
ATOM      3  N   UNL     1       2.480   6.920  19.949  0.00  0.00    +0.000 N 
ATOM      4  H   UNL     1       3.165   6.961  20.693  0.00  0.00    +0.000 HD
ENDROOT
BRANCH   1  10
ATOM      5  C   UNL     1       1.491   3.009  20.917  0.00  0.00    +0.000 C 
ATOM      6  C   UNL     1       2.745   3.479  20.305  0.00  0.00    +0.000 A 
ATOM      7  O   UNL     1       3.768   2.589  20.365  0.00  0.00    +0.000 OA
ATOM      8  N   UNL     1       4.879   3.106  19.752  0.00  0.00    +0.000 NA
ATOM      9  C   UNL     1       4.539   4.328  19.312  0.00  0.00    +0.000 A 
ATOM     10  C   UNL     1       3.159   4.604  19.620  0.00  0.00    +0.000 A 
BRANCH   9  11
ATOM     11  C   UNL     1       5.538   5.178  18.654  0.00  0.00    +0.000 A 
ATOM     12  C   UNL     1       5.273   5.743  17.397  0.00  0.00    +0.000 A 
ATOM     13  C   UNL     1       6.231   6.533  16.757  0.00  0.00    +0.000 A 
ATOM     14  C   UNL     1       7.460   6.775  17.367  0.00  0.00    +0.000 A 
ATOM     15  C   UNL     1       7.738   6.223  18.611  0.00  0.00    +0.000 A 
ATOM     16  C   UNL     1       6.790   5.416  19.239  0.00  0.00    +0.000 A 
ENDBRANCH   9  11
ENDBRANCH   1  10
BRANCH   3  17
ATOM     17  C   UNL     1       1.836   8.143  19.595  0.00  0.00    +0.000 A 
ATOM     18  C   UNL     1       1.653   8.541  18.265  0.00  0.00    +0.000 A 
ATOM     19  C   UNL     1       1.092   9.776  17.937  0.00  0.00    +0.000 A 
ATOM     20  C   UNL     1       0.683  10.646  18.941  0.00  0.00    +0.000 A 
ATOM     21  C   UNL     1       0.832  10.259  20.275  0.00  0.00    +0.000 A 
ATOM     22  C   UNL     1       1.373   8.996  20.601  0.00  0.00    +0.000 A 
BRANCH  21  23
ATOM     23  S   UNL     1       0.202  11.287  21.584  0.00  0.00    +0.000 S 
ATOM     24  O   UNL     1       0.067  10.455  22.775  0.00  0.00    +0.000 OA
ATOM     25  O   UNL     1       0.991  12.495  21.642  0.00  0.00    +0.000 OA
BRANCH  23  26
ATOM     26  N   UNL     1      -1.364  11.717  21.158  0.00  0.00    +0.000 N 
ATOM     27  C   UNL     1      -2.136  12.583  21.934  0.00  0.00    +0.000 C 
ATOM     28  N   UNL     1      -1.601  13.495  22.666  0.00  0.00    +0.000 NA
ATOM     29  C   UNL     1      -2.704  14.150  23.373  0.00  0.00    +0.000 C 
ATOM     30  C   UNL     1      -3.965  13.780  22.613  0.00  0.00    +0.000 C 
ATOM     31  C   UNL     1      -3.621  12.452  21.973  0.00  0.00    +0.000 C 
ATOM     32  H   UNL     1      -1.810  11.001  20.591  0.00  0.00    +0.000 HD
ENDBRANCH  23  26
ENDBRANCH  21  23
ENDBRANCH   3  17
TORSDOF 5
ENDMDL
MODEL 9
REMARK VINA RESULT:      -8.2      1.966      2.481
REMARK  Name = 
REMARK  6 active torsions:
REMARK  status: ('A' for Active; 'I' for Inactive)
REMARK    1  A    between atoms: C_1  and  C_2
REMARK    2  A    between atoms: C_5  and  C_6
REMARK    3  A    between atoms: C_12  and  C_13
REMARK    4  A    between atoms: N_15  and  C_16
REMARK    5  A    between atoms: C_20  and  S_21
REMARK    6  A    between atoms: S_21  and  N_24
REMARK                            x       y       z     vdW  Elec       q    Type
REMARK                         _______ _______ _______ _____ _____    ______ ____
ROOT
ATOM      1  C   UNL     1       2.492   5.470  19.676  0.00  0.00    +0.000 C 
ATOM      2  O   UNL     1       2.351   5.250  20.874  0.00  0.00    +0.000 OA
ATOM      3  N   UNL     1       2.227   6.701  19.084  0.00  0.00    +0.000 N 
ATOM      4  H   UNL     1       2.178   6.751  18.075  0.00  0.00    +0.000 HD
ENDROOT
BRANCH   1  10
ATOM      5  C   UNL     1       0.884   2.641  18.765  0.00  0.00    +0.000 C 
ATOM      6  C   UNL     1       2.188   3.241  18.439  0.00  0.00    +0.000 A 
ATOM      7  O   UNL     1       2.897   2.568  17.497  0.00  0.00    +0.000 OA
ATOM      8  N   UNL     1       4.079   3.213  17.246  0.00  0.00    +0.000 NA
ATOM      9  C   UNL     1       4.101   4.293  18.042  0.00  0.00    +0.000 A 
ATOM     10  C   UNL     1       2.886   4.371  18.812  0.00  0.00    +0.000 A 
BRANCH   9  11
ATOM     11  C   UNL     1       5.275   5.175  18.055  0.00  0.00    +0.000 A 
ATOM     12  C   UNL     1       6.303   4.975  18.988  0.00  0.00    +0.000 A 
ATOM     13  C   UNL     1       7.410   5.826  19.020  0.00  0.00    +0.000 A 
ATOM     14  C   UNL     1       7.508   6.881  18.114  0.00  0.00    +0.000 A 
ATOM     15  C   UNL     1       6.499   7.093  17.183  0.00  0.00    +0.000 A 
ATOM     16  C   UNL     1       5.383   6.256  17.168  0.00  0.00    +0.000 A 
ENDBRANCH   9  11
ENDBRANCH   1  10
BRANCH   3  17
ATOM     17  C   UNL     1       1.772   7.841  19.812  0.00  0.00    +0.000 A 
ATOM     18  C   UNL     1       1.454   7.788  21.175  0.00  0.00    +0.000 A 
ATOM     19  C   UNL     1       0.936   8.892  21.853  0.00  0.00    +0.000 A 
ATOM     20  C   UNL     1       0.733  10.092  21.181  0.00  0.00    +0.000 A 
ATOM     21  C   UNL     1       1.068  10.176  19.828  0.00  0.00    +0.000 A 
ATOM     22  C   UNL     1       1.619   9.064  19.154  0.00  0.00    +0.000 A 
BRANCH  21  23
ATOM     23  S   UNL     1       0.947  11.728  18.967  0.00  0.00    +0.000 S 
ATOM     24  O   UNL     1       0.562  12.746  19.938  0.00  0.00    +0.000 OA
ATOM     25  O   UNL     1       2.141  11.912  18.176  0.00  0.00    +0.000 OA
BRANCH  23  26
ATOM     26  N   UNL     1      -0.352  11.602  17.911  0.00  0.00    +0.000 N 
ATOM     27  C   UNL     1      -1.676  11.684  18.345  0.00  0.00    +0.000 C 
ATOM     28  N   UNL     1      -2.007  12.362  19.386  0.00  0.00    +0.000 NA
ATOM     29  C   UNL     1      -3.446  12.160  19.564  0.00  0.00    +0.000 C 
ATOM     30  C   UNL     1      -3.962  11.638  18.236  0.00  0.00    +0.000 C 
ATOM     31  C   UNL     1      -2.759  10.946  17.632  0.00  0.00    +0.000 C 
ATOM     32  H   UNL     1      -0.116  11.056  17.087  0.00  0.00    +0.000 HD
ENDBRANCH  23  26
ENDBRANCH  21  23
ENDBRANCH   3  17
TORSDOF 5
ENDMDL
