MODEL 1
REMARK VINA RESULT:      -8.4      0.000      0.000
REMARK  Name = 
REMARK  6 active torsions:
REMARK  status: ('A' for Active; 'I' for Inactive)
REMARK    1  A    between atoms: C_7  and  S_8
REMARK    2  A    between atoms: S_8  and  N_11
REMARK    3  A    between atoms: N_11  and  C_12
REMARK    4  A    between atoms: C_12  and  C_13
REMARK    5  A    between atoms: C_16  and  C_17
REMARK    6  A    between atoms: C_17  and  N_18
REMARK                            x       y       z     vdW  Elec       q    Type
REMARK                         _______ _______ _______ _____ _____    ______ ____
ROOT
ATOM      1  N   UNL     1       3.066   3.363  20.601  0.00  0.00    +0.000 NA
ATOM      2  H   UNL     1       3.660   4.019  21.098  0.00  0.00    +0.000 HD
ENDROOT
BRANCH   1   3
ATOM      3  S   UNL     1       3.971   2.383  19.582  0.00  0.00    +0.000 S 
ATOM      4  O   UNL     1       3.059   1.607  18.770  0.00  0.00    +0.000 OA
ATOM      5  O   UNL     1       5.009   1.777  20.381  0.00  0.00    +0.000 OA
BRANCH   3  12
ATOM      6  O   UNL     1       8.015   8.120  17.094  0.00  0.00    +0.000 OA
ATOM      7  C   UNL     1       7.308   7.141  17.255  0.00  0.00    +0.000 A 
ATOM      8  N   UNL     1       6.631   6.432  16.257  0.00  0.00    +0.000 N 
ATOM      9  C   UNL     1       5.925   5.389  16.848  0.00  0.00    +0.000 A 
ATOM     10  C   UNL     1       5.111   4.445  16.272  0.00  0.00    +0.000 A 
ATOM     11  C   UNL     1       4.512   3.527  17.138  0.00  0.00    +0.000 A 
ATOM     12  C   UNL     1       4.764   3.580  18.535  0.00  0.00    +0.000 A 
ATOM     13  C   UNL     1       5.602   4.547  19.101  0.00  0.00    +0.000 A 
ATOM     14  C   UNL     1       6.163   5.440  18.222  0.00  0.00    +0.000 A 
ATOM     15  N   UNL     1       7.013   6.510  18.471  0.00  0.00    +0.000 N 
ATOM     16  H   UNL     1       6.656   6.675  15.280  0.00  0.00    +0.000 HD
ATOM     17  H   UNL     1       7.361   6.824  19.363  0.00  0.00    +0.000 HD
ENDBRANCH   3  12
ENDBRANCH   1   3
BRANCH   1  18
ATOM     18  C   UNL     1       1.793   3.884  20.092  0.00  0.00    +0.000 C 
BRANCH  18  19
ATOM     19  C   UNL     1       1.863   5.327  19.638  0.00  0.00    +0.000 A 
ATOM     20  C   UNL     1       1.794   6.403  20.535  0.00  0.00    +0.000 A 
ATOM     21  C   UNL     1       1.896   7.718  20.084  0.00  0.00    +0.000 A 
ATOM     22  C   UNL     1       2.092   7.993  18.730  0.00  0.00    +0.000 A 
ATOM     23  C   UNL     1       2.192   6.925  17.829  0.00  0.00    +0.000 A 
ATOM     24  C   UNL     1       2.083   5.607  18.280  0.00  0.00    +0.000 A 
BRANCH  22  25
ATOM     25  C   UNL     1       2.154   9.426  18.251  0.00  0.00    +0.000 C 
BRANCH  25  26
ATOM     26  N   UNL     1       1.146  10.323  18.862  0.00  0.00    +0.000 NA
ATOM     27  C   UNL     1       1.578  11.727  18.759  0.00  0.00    +0.000 C 
ATOM     28  C   UNL     1       0.492  12.737  19.134  0.00  0.00    +0.000 C 
ATOM     29  C   UNL     1      -0.777  12.491  18.334  0.00  0.00    +0.000 C 
ATOM     30  C   UNL     1      -1.246  11.066  18.576  0.00  0.00    +0.000 C 
ATOM     31  C   UNL     1      -0.151  10.066  18.212  0.00  0.00    +0.000 C 
ENDBRANCH  25  26
ENDBRANCH  22  25
ENDBRANCH  18  19
ENDBRANCH   1  18
TORSDOF 6
ENDMDL
MODEL 2
REMARK VINA RESULT:      -8.3      1.824      2.563
REMARK  Name = 
REMARK  6 active torsions:
REMARK  status: ('A' for Active; 'I' for Inactive)
REMARK    1  A    between atoms: C_7  and  S_8
REMARK    2  A    between atoms: S_8  and  N_11
REMARK    3  A    between atoms: N_11  and  C_12
REMARK    4  A    between atoms: C_12  and  C_13
REMARK    5  A    between atoms: C_16  and  C_17
REMARK    6  A    between atoms: C_17  and  N_18
REMARK                            x       y       z     vdW  Elec       q    Type
REMARK                         _______ _______ _______ _____ _____    ______ ____
ROOT
ATOM      1  N   UNL     1       2.344   4.607  19.818  0.00  0.00    +0.000 NA
ATOM      2  H   UNL     1       2.288   4.137  20.715  0.00  0.00    +0.000 HD
ENDROOT
BRANCH   1   3
ATOM      3  S   UNL     1       2.485   3.500  18.564  0.00  0.00    +0.000 S 
ATOM      4  O   UNL     1       1.444   3.774  17.596  0.00  0.00    +0.000 OA
ATOM      5  O   UNL     1       2.668   2.198  19.161  0.00  0.00    +0.000 OA
BRANCH   3  12
ATOM      6  O   UNL     1       7.847   5.374  13.748  0.00  0.00    +0.000 OA
ATOM      7  C   UNL     1       7.152   5.095  14.709  0.00  0.00    +0.000 A 
ATOM      8  N   UNL     1       7.577   4.988  16.037  0.00  0.00    +0.000 N 
ATOM      9  C   UNL     1       6.488   4.642  16.830  0.00  0.00    +0.000 A 
ATOM     10  C   UNL     1       6.425   4.414  18.183  0.00  0.00    +0.000 A 
ATOM     11  C   UNL     1       5.177   4.056  18.697  0.00  0.00    +0.000 A 
ATOM     12  C   UNL     1       4.045   3.959  17.846  0.00  0.00    +0.000 A 
ATOM     13  C   UNL     1       4.128   4.201  16.471  0.00  0.00    +0.000 A 
ATOM     14  C   UNL     1       5.373   4.538  15.998  0.00  0.00    +0.000 A 
ATOM     15  N   UNL     1       5.778   4.820  14.700  0.00  0.00    +0.000 N 
ATOM     16  H   UNL     1       8.530   5.124  16.335  0.00  0.00    +0.000 HD
ATOM     17  H   UNL     1       5.215   4.814  13.864  0.00  0.00    +0.000 HD
ENDBRANCH   3  12
ENDBRANCH   1   3
BRANCH   1  18
ATOM     18  C   UNL     1       3.179   5.813  19.758  0.00  0.00    +0.000 C 
BRANCH  18  19
ATOM     19  C   UNL     1       2.400   7.078  19.468  0.00  0.00    +0.000 A 
ATOM     20  C   UNL     1       1.711   7.786  20.464  0.00  0.00    +0.000 A 
ATOM     21  C   UNL     1       1.032   8.966  20.165  0.00  0.00    +0.000 A 
ATOM     22  C   UNL     1       1.041   9.483  18.868  0.00  0.00    +0.000 A 
ATOM     23  C   UNL     1       1.750   8.800  17.871  0.00  0.00    +0.000 A 
ATOM     24  C   UNL     1       2.424   7.614  18.170  0.00  0.00    +0.000 A 
BRANCH  22  25
ATOM     25  C   UNL     1       0.262  10.739  18.550  0.00  0.00    +0.000 C 
BRANCH  25  26
ATOM     26  N   UNL     1      -1.208  10.598  18.676  0.00  0.00    +0.000 NA
ATOM     27  C   UNL     1      -1.825  11.903  18.973  0.00  0.00    +0.000 C 
ATOM     28  C   UNL     1      -3.351  11.902  18.870  0.00  0.00    +0.000 C 
ATOM     29  C   UNL     1      -3.804  11.374  17.519  0.00  0.00    +0.000 C 
ATOM     30  C   UNL     1      -3.241   9.976  17.321  0.00  0.00    +0.000 C 
ATOM     31  C   UNL     1      -1.718   9.984  17.437  0.00  0.00    +0.000 C 
ENDBRANCH  25  26
ENDBRANCH  22  25
ENDBRANCH  18  19
ENDBRANCH   1  18
TORSDOF 6
ENDMDL
MODEL 3
REMARK VINA RESULT:      -8.3      1.632      2.200
REMARK  Name = 
REMARK  6 active torsions:
REMARK  status: ('A' for Active; 'I' for Inactive)
REMARK    1  A    between atoms: C_7  and  S_8
REMARK    2  A    between atoms: S_8  and  N_11
REMARK    3  A    between atoms: N_11  and  C_12
REMARK    4  A    between atoms: C_12  and  C_13
REMARK    5  A    between atoms: C_16  and  C_17
REMARK    6  A    between atoms: C_17  and  N_18
REMARK                            x       y       z     vdW  Elec       q    Type
REMARK                         _______ _______ _______ _____ _____    ______ ____
ROOT
ATOM      1  N   UNL     1       2.571   3.924  19.221  0.00  0.00    +0.000 NA
ATOM      2  H   UNL     1       1.641   3.520  19.272  0.00  0.00    +0.000 HD
ENDROOT
BRANCH   1   3
ATOM      3  S   UNL     1       3.729   2.738  18.951  0.00  0.00    +0.000 S 
ATOM      4  O   UNL     1       3.130   1.693  18.149  0.00  0.00    +0.000 OA
ATOM      5  O   UNL     1       4.375   2.476  20.214  0.00  0.00    +0.000 OA
BRANCH   3  12
ATOM      6  O   UNL     1       7.590   5.364  13.149  0.00  0.00    +0.000 OA
ATOM      7  C   UNL     1       7.115   5.080  14.235  0.00  0.00    +0.000 A 
ATOM      8  N   UNL     1       7.578   5.509  15.482  0.00  0.00    +0.000 N 
ATOM      9  C   UNL     1       6.773   4.958  16.474  0.00  0.00    +0.000 A 
ATOM     10  C   UNL     1       6.854   5.084  17.839  0.00  0.00    +0.000 A 
ATOM     11  C   UNL     1       5.904   4.384  18.586  0.00  0.00    +0.000 A 
ATOM     12  C   UNL     1       4.908   3.604  17.942  0.00  0.00    +0.000 A 
ATOM     13  C   UNL     1       4.839   3.494  16.549  0.00  0.00    +0.000 A 
ATOM     14  C   UNL     1       5.796   4.185  15.847  0.00  0.00    +0.000 A 
ATOM     15  N   UNL     1       6.001   4.263  14.475  0.00  0.00    +0.000 N 
ATOM     16  H   UNL     1       8.382   6.104  15.609  0.00  0.00    +0.000 HD
ATOM     17  H   UNL     1       5.476   3.806  13.748  0.00  0.00    +0.000 HD
ENDBRANCH   3  12
ENDBRANCH   1   3
BRANCH   1  18
ATOM     18  C   UNL     1       2.886   4.974  20.196  0.00  0.00    +0.000 C 
BRANCH  18  19
ATOM     19  C   UNL     1       2.338   6.335  19.822  0.00  0.00    +0.000 A 
ATOM     20  C   UNL     1       1.656   7.151  20.737  0.00  0.00    +0.000 A 
ATOM     21  C   UNL     1       1.195   8.413  20.366  0.00  0.00    +0.000 A 
ATOM     22  C   UNL     1       1.422   8.904  19.078  0.00  0.00    +0.000 A 
ATOM     23  C   UNL     1       2.128   8.109  18.165  0.00  0.00    +0.000 A 
ATOM     24  C   UNL     1       2.583   6.842  18.536  0.00  0.00    +0.000 A 
BRANCH  22  25
ATOM     25  C   UNL     1       0.875  10.255  18.677  0.00  0.00    +0.000 C 
BRANCH  25  26
ATOM     26  N   UNL     1      -0.588  10.405  18.861  0.00  0.00    +0.000 NA
ATOM     27  C   UNL     1      -0.921  11.799  19.201  0.00  0.00    +0.000 C 
ATOM     28  C   UNL     1      -2.420  12.103  19.161  0.00  0.00    +0.000 C 
ATOM     29  C   UNL     1      -3.019  11.704  17.822  0.00  0.00    +0.000 C 
ATOM     30  C   UNL     1      -2.752  10.227  17.581  0.00  0.00    +0.000 C 
ATOM     31  C   UNL     1      -1.254   9.931  17.636  0.00  0.00    +0.000 C 
ENDBRANCH  25  26
ENDBRANCH  22  25
ENDBRANCH  18  19
ENDBRANCH   1  18
TORSDOF 6
ENDMDL
MODEL 4
REMARK VINA RESULT:      -8.2      1.364      2.062
REMARK  Name = 
REMARK  6 active torsions:
REMARK  status: ('A' for Active; 'I' for Inactive)
REMARK    1  A    between atoms: C_7  and  S_8
REMARK    2  A    between atoms: S_8  and  N_11
REMARK    3  A    between atoms: N_11  and  C_12
REMARK    4  A    between atoms: C_12  and  C_13
REMARK    5  A    between atoms: C_16  and  C_17
REMARK    6  A    between atoms: C_17  and  N_18
REMARK                            x       y       z     vdW  Elec       q    Type
REMARK                         _______ _______ _______ _____ _____    ______ ____
ROOT
ATOM      1  N   UNL     1       2.012   3.821  19.613  0.00  0.00    +0.000 NA
ATOM      2  H   UNL     1       1.095   3.390  19.653  0.00  0.00    +0.000 HD
ENDROOT
BRANCH   1   3
ATOM      3  S   UNL     1       3.217   2.662  19.461  0.00  0.00    +0.000 S 
ATOM      4  O   UNL     1       2.705   1.577  18.652  0.00  0.00    +0.000 OA
ATOM      5  O   UNL     1       3.778   2.454  20.775  0.00  0.00    +0.000 OA
BRANCH   3  12
ATOM      6  O   UNL     1       7.358   5.294  13.859  0.00  0.00    +0.000 OA
ATOM      7  C   UNL     1       6.829   5.010  14.920  0.00  0.00    +0.000 A 
ATOM      8  N   UNL     1       7.225   5.444  16.188  0.00  0.00    +0.000 N 
ATOM      9  C   UNL     1       6.373   4.892  17.139  0.00  0.00    +0.000 A 
ATOM     10  C   UNL     1       6.383   5.022  18.506  0.00  0.00    +0.000 A 
ATOM     11  C   UNL     1       5.400   4.319  19.205  0.00  0.00    +0.000 A 
ATOM     12  C   UNL     1       4.442   3.532  18.512  0.00  0.00    +0.000 A 
ATOM     13  C   UNL     1       4.446   3.417  17.118  0.00  0.00    +0.000 A 
ATOM     14  C   UNL     1       5.434   4.112  16.464  0.00  0.00    +0.000 A 
ATOM     15  N   UNL     1       5.709   4.188  15.105  0.00  0.00    +0.000 N 
ATOM     16  H   UNL     1       8.018   6.044  16.354  0.00  0.00    +0.000 HD
ATOM     17  H   UNL     1       5.224   3.725  14.352  0.00  0.00    +0.000 HD
ENDBRANCH   3  12
ENDBRANCH   1   3
BRANCH   1  18
ATOM     18  C   UNL     1       2.255   4.938  20.534  0.00  0.00    +0.000 C 
BRANCH  18  19
ATOM     19  C   UNL     1       2.136   6.300  19.882  0.00  0.00    +0.000 A 
ATOM     20  C   UNL     1       2.448   6.520  18.532  0.00  0.00    +0.000 A 
ATOM     21  C   UNL     1       2.295   7.780  17.957  0.00  0.00    +0.000 A 
ATOM     22  C   UNL     1       1.806   8.851  18.709  0.00  0.00    +0.000 A 
ATOM     23  C   UNL     1       1.464   8.636  20.051  0.00  0.00    +0.000 A 
ATOM     24  C   UNL     1       1.624   7.374  20.628  0.00  0.00    +0.000 A 
BRANCH  22  25
ATOM     25  C   UNL     1       1.690  10.222  18.085  0.00  0.00    +0.000 C 
BRANCH  25  26
ATOM     26  N   UNL     1       1.034  11.236  18.944  0.00  0.00    +0.000 NA
ATOM     27  C   UNL     1       1.735  12.528  18.841  0.00  0.00    +0.000 C 
ATOM     28  C   UNL     1       0.985  13.691  19.492  0.00  0.00    +0.000 C 
ATOM     29  C   UNL     1      -0.435  13.790  18.957  0.00  0.00    +0.000 C 
ATOM     30  C   UNL     1      -1.148  12.471  19.202  0.00  0.00    +0.000 C 
ATOM     31  C   UNL     1      -0.386  11.314  18.560  0.00  0.00    +0.000 C 
ENDBRANCH  25  26
ENDBRANCH  22  25
ENDBRANCH  18  19
ENDBRANCH   1  18
TORSDOF 6
ENDMDL
MODEL 5
REMARK VINA RESULT:      -8.1      1.334      1.802
REMARK  Name = 
REMARK  6 active torsions:
REMARK  status: ('A' for Active; 'I' for Inactive)
REMARK    1  A    between atoms: C_7  and  S_8
REMARK    2  A    between atoms: S_8  and  N_11
REMARK    3  A    between atoms: N_11  and  C_12
REMARK    4  A    between atoms: C_12  and  C_13
REMARK    5  A    between atoms: C_16  and  C_17
REMARK    6  A    between atoms: C_17  and  N_18
REMARK                            x       y       z     vdW  Elec       q    Type
REMARK                         _______ _______ _______ _____ _____    ______ ____
ROOT
ATOM      1  N   UNL     1       2.317   3.535  19.195  0.00  0.00    +0.000 NA
ATOM      2  H   UNL     1       1.472   3.004  19.013  0.00  0.00    +0.000 HD
ENDROOT
BRANCH   1   3
ATOM      3  S   UNL     1       3.672   2.544  19.158  0.00  0.00    +0.000 S 
ATOM      4  O   UNL     1       3.340   1.350  18.410  0.00  0.00    +0.000 OA
ATOM      5  O   UNL     1       4.206   2.500  20.498  0.00  0.00    +0.000 OA
BRANCH   3  12
ATOM      6  O   UNL     1       7.585   5.391  13.497  0.00  0.00    +0.000 OA
ATOM      7  C   UNL     1       7.071   5.095  14.562  0.00  0.00    +0.000 A 
ATOM      8  N   UNL     1       7.386   5.633  15.814  0.00  0.00    +0.000 N 
ATOM      9  C   UNL     1       6.587   5.027  16.777  0.00  0.00    +0.000 A 
ATOM     10  C   UNL     1       6.552   5.221  18.136  0.00  0.00    +0.000 A 
ATOM     11  C   UNL     1       5.646   4.437  18.854  0.00  0.00    +0.000 A 
ATOM     12  C   UNL     1       4.803   3.510  18.186  0.00  0.00    +0.000 A 
ATOM     13  C   UNL     1       4.850   3.331  16.799  0.00  0.00    +0.000 A 
ATOM     14  C   UNL     1       5.761   4.109  16.127  0.00  0.00    +0.000 A 
ATOM     15  N   UNL     1       6.054   4.154  14.770  0.00  0.00    +0.000 N 
ATOM     16  H   UNL     1       8.098   6.331  15.962  0.00  0.00    +0.000 HD
ATOM     17  H   UNL     1       5.644   3.601  14.034  0.00  0.00    +0.000 HD
ENDBRANCH   3  12
ENDBRANCH   1   3
BRANCH   1  18
ATOM     18  C   UNL     1       2.243   4.548  20.255  0.00  0.00    +0.000 C 
BRANCH  18  19
ATOM     19  C   UNL     1       2.106   5.963  19.736  0.00  0.00    +0.000 A 
ATOM     20  C   UNL     1       1.735   7.036  20.559  0.00  0.00    +0.000 A 
ATOM     21  C   UNL     1       1.651   8.332  20.053  0.00  0.00    +0.000 A 
ATOM     22  C   UNL     1       1.957   8.596  18.717  0.00  0.00    +0.000 A 
ATOM     23  C   UNL     1       2.357   7.536  17.892  0.00  0.00    +0.000 A 
ATOM     24  C   UNL     1       2.434   6.236  18.398  0.00  0.00    +0.000 A 
BRANCH  22  25
ATOM     25  C   UNL     1       1.817   9.999  18.171  0.00  0.00    +0.000 C 
BRANCH  25  26
ATOM     26  N   UNL     1       0.963  10.893  18.989  0.00  0.00    +0.000 NA
ATOM     27  C   UNL     1       1.490  12.269  18.963  0.00  0.00    +0.000 C 
ATOM     28  C   UNL     1       0.540  13.305  19.567  0.00  0.00    +0.000 C 
ATOM     29  C   UNL     1      -0.832  13.228  18.916  0.00  0.00    +0.000 C 
ATOM     30  C   UNL     1      -1.379  11.819  19.082  0.00  0.00    +0.000 C 
ATOM     31  C   UNL     1      -0.418  10.791  18.488  0.00  0.00    +0.000 C 
ENDBRANCH  25  26
ENDBRANCH  22  25
ENDBRANCH  18  19
ENDBRANCH   1  18
TORSDOF 6
ENDMDL
MODEL 6
REMARK VINA RESULT:      -8.1      2.290      3.111
REMARK  Name = 
REMARK  6 active torsions:
REMARK  status: ('A' for Active; 'I' for Inactive)
REMARK    1  A    between atoms: C_7  and  S_8
REMARK    2  A    between atoms: S_8  and  N_11
REMARK    3  A    between atoms: N_11  and  C_12
REMARK    4  A    between atoms: C_12  and  C_13
REMARK    5  A    between atoms: C_16  and  C_17
REMARK    6  A    between atoms: C_17  and  N_18
REMARK                            x       y       z     vdW  Elec       q    Type
REMARK                         _______ _______ _______ _____ _____    ______ ____
ROOT
ATOM      1  N   UNL     1       3.314   4.821  18.580  0.00  0.00    +0.000 NA
ATOM      2  H   UNL     1       2.443   4.451  18.214  0.00  0.00    +0.000 HD
ENDROOT
BRANCH   1   3
ATOM      3  S   UNL     1       4.524   3.657  18.549  0.00  0.00    +0.000 S 
ATOM      4  O   UNL     1       3.918   2.381  18.230  0.00  0.00    +0.000 OA
ATOM      5  O   UNL     1       5.342   3.858  19.721  0.00  0.00    +0.000 OA
BRANCH   3  12
ATOM      6  O   UNL     1       7.410   4.308  11.715  0.00  0.00    +0.000 OA
ATOM      7  C   UNL     1       7.096   4.391  12.889  0.00  0.00    +0.000 A 
ATOM      8  N   UNL     1       7.669   5.236  13.844  0.00  0.00    +0.000 N 
ATOM      9  C   UNL     1       7.042   5.024  15.067  0.00  0.00    +0.000 A 
ATOM     10  C   UNL     1       7.276   5.609  16.287  0.00  0.00    +0.000 A 
ATOM     11  C   UNL     1       6.489   5.167  17.352  0.00  0.00    +0.000 A 
ATOM     12  C   UNL     1       5.492   4.175  17.152  0.00  0.00    +0.000 A 
ATOM     13  C   UNL     1       5.264   3.595  15.899  0.00  0.00    +0.000 A 
ATOM     14  C   UNL     1       6.066   4.045  14.878  0.00  0.00    +0.000 A 
ATOM     15  N   UNL     1       6.095   3.660  13.544  0.00  0.00    +0.000 N 
ATOM     16  H   UNL     1       8.428   5.871  13.650  0.00  0.00    +0.000 HD
ATOM     17  H   UNL     1       5.527   2.962  13.092  0.00  0.00    +0.000 HD
ENDBRANCH   3  12
ENDBRANCH   1   3
BRANCH   1  18
ATOM     18  C   UNL     1       3.219   5.671  19.772  0.00  0.00    +0.000 C 
BRANCH  18  19
ATOM     19  C   UNL     1       2.499   6.981  19.529  0.00  0.00    +0.000 A 
ATOM     20  C   UNL     1       2.512   7.629  18.285  0.00  0.00    +0.000 A 
ATOM     21  C   UNL     1       1.809   8.817  18.089  0.00  0.00    +0.000 A 
ATOM     22  C   UNL     1       1.057   9.378  19.123  0.00  0.00    +0.000 A 
ATOM     23  C   UNL     1       1.013   8.723  20.361  0.00  0.00    +0.000 A 
ATOM     24  C   UNL     1       1.723   7.537  20.559  0.00  0.00    +0.000 A 
BRANCH  22  25
ATOM     25  C   UNL     1       0.338  10.690  18.909  0.00  0.00    +0.000 C 
BRANCH  25  26
ATOM     26  N   UNL     1      -1.139  10.582  18.858  0.00  0.00    +0.000 NA
ATOM     27  C   UNL     1      -1.758  11.903  19.064  0.00  0.00    +0.000 C 
ATOM     28  C   UNL     1      -3.261  11.931  18.778  0.00  0.00    +0.000 C 
ATOM     29  C   UNL     1      -3.559  11.393  17.388  0.00  0.00    +0.000 C 
ATOM     30  C   UNL     1      -3.007   9.982  17.275  0.00  0.00    +0.000 C 
ATOM     31  C   UNL     1      -1.509   9.961  17.574  0.00  0.00    +0.000 C 
ENDBRANCH  25  26
ENDBRANCH  22  25
ENDBRANCH  18  19
ENDBRANCH   1  18
TORSDOF 6
ENDMDL
MODEL 7
REMARK VINA RESULT:      -8.0      1.803      2.779
REMARK  Name = 
REMARK  6 active torsions:
REMARK  status: ('A' for Active; 'I' for Inactive)
REMARK    1  A    between atoms: C_7  and  S_8
REMARK    2  A    between atoms: S_8  and  N_11
REMARK    3  A    between atoms: N_11  and  C_12
REMARK    4  A    between atoms: C_12  and  C_13
REMARK    5  A    between atoms: C_16  and  C_17
REMARK    6  A    between atoms: C_17  and  N_18
REMARK                            x       y       z     vdW  Elec       q    Type
REMARK                         _______ _______ _______ _____ _____    ______ ____
ROOT
ATOM      1  N   UNL     1       2.100   4.752  19.172  0.00  0.00    +0.000 NA
ATOM      2  H   UNL     1       1.121   4.556  19.354  0.00  0.00    +0.000 HD
ENDROOT
BRANCH   1   3
ATOM      3  S   UNL     1       2.973   3.331  18.985  0.00  0.00    +0.000 S 
ATOM      4  O   UNL     1       2.206   2.432  18.149  0.00  0.00    +0.000 OA
ATOM      5  O   UNL     1       3.460   2.953  20.290  0.00  0.00    +0.000 OA
BRANCH   3  12
ATOM      6  O   UNL     1       7.554   5.235  13.432  0.00  0.00    +0.000 OA
ATOM      7  C   UNL     1       6.997   4.996  14.489  0.00  0.00    +0.000 A 
ATOM      8  N   UNL     1       7.553   5.116  15.766  0.00  0.00    +0.000 N 
ATOM      9  C   UNL     1       6.600   4.740  16.707  0.00  0.00    +0.000 A 
ATOM     10  C   UNL     1       6.695   4.682  18.076  0.00  0.00    +0.000 A 
ATOM     11  C   UNL     1       5.562   4.238  18.760  0.00  0.00    +0.000 A 
ATOM     12  C   UNL     1       4.381   3.888  18.054  0.00  0.00    +0.000 A 
ATOM     13  C   UNL     1       4.302   3.960  16.659  0.00  0.00    +0.000 A 
ATOM     14  C   UNL     1       5.439   4.388  16.018  0.00  0.00    +0.000 A 
ATOM     15  N   UNL     1       5.680   4.550  14.660  0.00  0.00    +0.000 N 
ATOM     16  H   UNL     1       8.501   5.410  15.941  0.00  0.00    +0.000 HD
ATOM     17  H   UNL     1       5.048   4.364  13.897  0.00  0.00    +0.000 HD
ENDBRANCH   3  12
ENDBRANCH   1   3
BRANCH   1  18
ATOM     18  C   UNL     1       2.712   5.829  19.959  0.00  0.00    +0.000 C 
BRANCH  18  19
ATOM     19  C   UNL     1       2.198   7.208  19.604  0.00  0.00    +0.000 A 
ATOM     20  C   UNL     1       2.303   7.743  18.311  0.00  0.00    +0.000 A 
ATOM     21  C   UNL     1       1.788   9.004  18.014  0.00  0.00    +0.000 A 
ATOM     22  C   UNL     1       1.136   9.756  18.994  0.00  0.00    +0.000 A 
ATOM     23  C   UNL     1       1.000   9.219  20.281  0.00  0.00    +0.000 A 
ATOM     24  C   UNL     1       1.522   7.959  20.580  0.00  0.00    +0.000 A 
BRANCH  22  25
ATOM     25  C   UNL     1       0.625  11.141  18.668  0.00  0.00    +0.000 C 
BRANCH  25  26
ATOM     26  N   UNL     1       1.488  12.244  19.152  0.00  0.00    +0.000 NA
ATOM     27  C   UNL     1       2.452  12.637  18.109  0.00  0.00    +0.000 C 
ATOM     28  C   UNL     1       3.210  13.928  18.424  0.00  0.00    +0.000 C 
ATOM     29  C   UNL     1       2.246  15.061  18.738  0.00  0.00    +0.000 C 
ATOM     30  C   UNL     1       1.359  14.647  19.901  0.00  0.00    +0.000 C 
ATOM     31  C   UNL     1       0.616  13.351  19.583  0.00  0.00    +0.000 C 
ENDBRANCH  25  26
ENDBRANCH  22  25
ENDBRANCH  18  19
ENDBRANCH   1  18
TORSDOF 6
ENDMDL
MODEL 8
REMARK VINA RESULT:      -7.9      2.847      3.427
REMARK  Name = 
REMARK  6 active torsions:
REMARK  status: ('A' for Active; 'I' for Inactive)
REMARK    1  A    between atoms: C_7  and  S_8
REMARK    2  A    between atoms: S_8  and  N_11
REMARK    3  A    between atoms: N_11  and  C_12
REMARK    4  A    between atoms: C_12  and  C_13
REMARK    5  A    between atoms: C_16  and  C_17
REMARK    6  A    between atoms: C_17  and  N_18
REMARK                            x       y       z     vdW  Elec       q    Type
REMARK                         _______ _______ _______ _____ _____    ______ ____
ROOT
ATOM      1  N   UNL     1       1.991   5.638  21.227  0.00  0.00    +0.000 NA
ATOM      2  H   UNL     1       2.559   5.765  22.058  0.00  0.00    +0.000 HD
ENDROOT
BRANCH   1   3
ATOM      3  S   UNL     1       1.913   4.019  20.791  0.00  0.00    +0.000 S 
ATOM      4  O   UNL     1       0.581   3.746  20.294  0.00  0.00    +0.000 OA
ATOM      5  O   UNL     1       2.514   3.259  21.860  0.00  0.00    +0.000 OA
BRANCH   3  12
ATOM      6  O   UNL     1       8.028   4.400  16.558  0.00  0.00    +0.000 OA
ATOM      7  C   UNL     1       6.916   4.258  17.037  0.00  0.00    +0.000 A 
ATOM      8  N   UNL     1       5.756   3.891  16.349  0.00  0.00    +0.000 N 
ATOM      9  C   UNL     1       4.695   3.849  17.247  0.00  0.00    +0.000 A 
ATOM     10  C   UNL     1       3.372   3.554  17.028  0.00  0.00    +0.000 A 
ATOM     11  C   UNL     1       2.528   3.618  18.139  0.00  0.00    +0.000 A 
ATOM     12  C   UNL     1       3.041   3.956  19.419  0.00  0.00    +0.000 A 
ATOM     13  C   UNL     1       4.394   4.247  19.623  0.00  0.00    +0.000 A 
ATOM     14  C   UNL     1       5.192   4.187  18.506  0.00  0.00    +0.000 A 
ATOM     15  N   UNL     1       6.553   4.433  18.379  0.00  0.00    +0.000 N 
ATOM     16  H   UNL     1       5.724   3.711  15.358  0.00  0.00    +0.000 HD
ATOM     17  H   UNL     1       7.197   4.715  19.101  0.00  0.00    +0.000 HD
ENDBRANCH   3  12
ENDBRANCH   1   3
BRANCH   1  18
ATOM     18  C   UNL     1       2.167   6.624  20.154  0.00  0.00    +0.000 C 
BRANCH  18  19
ATOM     19  C   UNL     1       1.546   7.971  20.459  0.00  0.00    +0.000 A 
ATOM     20  C   UNL     1       1.127   8.335  21.747  0.00  0.00    +0.000 A 
ATOM     21  C   UNL     1       0.590   9.597  21.996  0.00  0.00    +0.000 A 
ATOM     22  C   UNL     1       0.477  10.538  20.970  0.00  0.00    +0.000 A 
ATOM     23  C   UNL     1       0.918  10.195  19.685  0.00  0.00    +0.000 A 
ATOM     24  C   UNL     1       1.450   8.928  19.435  0.00  0.00    +0.000 A 
BRANCH  22  25
ATOM     25  C   UNL     1      -0.150  11.885  21.246  0.00  0.00    +0.000 C 
BRANCH  25  26
ATOM     26  N   UNL     1      -1.594  11.835  21.579  0.00  0.00    +0.000 NA
ATOM     27  C   UNL     1      -1.803  12.146  23.004  0.00  0.00    +0.000 C 
ATOM     28  C   UNL     1      -3.270  12.365  23.379  0.00  0.00    +0.000 C 
ATOM     29  C   UNL     1      -3.908  13.417  22.485  0.00  0.00    +0.000 C 
ATOM     30  C   UNL     1      -3.771  12.982  21.035  0.00  0.00    +0.000 C 
ATOM     31  C   UNL     1      -2.305  12.753  20.673  0.00  0.00    +0.000 C 
ENDBRANCH  25  26
ENDBRANCH  22  25
ENDBRANCH  18  19
ENDBRANCH   1  18
TORSDOF 6
ENDMDL
MODEL 9
REMARK VINA RESULT:      -7.8      1.790      2.646
REMARK  Name = 
REMARK  6 active torsions:
REMARK  status: ('A' for Active; 'I' for Inactive)
REMARK    1  A    between atoms: C_7  and  S_8
REMARK    2  A    between atoms: S_8  and  N_11
REMARK    3  A    between atoms: N_11  and  C_12
REMARK    4  A    between atoms: C_12  and  C_13
REMARK    5  A    between atoms: C_16  and  C_17
REMARK    6  A    between atoms: C_17  and  N_18
REMARK                            x       y       z     vdW  Elec       q    Type
REMARK                         _______ _______ _______ _____ _____    ______ ____
ROOT
ATOM      1  N   UNL     1       1.996   4.973  19.822  0.00  0.00    +0.000 NA
ATOM      2  H   UNL     1       1.764   4.687  20.767  0.00  0.00    +0.000 HD
ENDROOT
BRANCH   1   3
ATOM      3  S   UNL     1       2.288   3.639  18.844  0.00  0.00    +0.000 S 
ATOM      4  O   UNL     1       1.308   3.634  17.778  0.00  0.00    +0.000 OA
ATOM      5  O   UNL     1       2.494   2.507  19.715  0.00  0.00    +0.000 OA
BRANCH   3  12
ATOM      6  O   UNL     1       7.759   5.323  14.082  0.00  0.00    +0.000 OA
ATOM      7  C   UNL     1       7.046   5.068  15.037  0.00  0.00    +0.000 A 
ATOM      8  N   UNL     1       7.454   4.942  16.368  0.00  0.00    +0.000 N 
ATOM      9  C   UNL     1       6.346   4.636  17.150  0.00  0.00    +0.000 A 
ATOM     10  C   UNL     1       6.262   4.406  18.502  0.00  0.00    +0.000 A 
ATOM     11  C   UNL     1       4.997   4.095  19.003  0.00  0.00    +0.000 A 
ATOM     12  C   UNL     1       3.870   4.041  18.142  0.00  0.00    +0.000 A 
ATOM     13  C   UNL     1       3.974   4.284  16.768  0.00  0.00    +0.000 A 
ATOM     14  C   UNL     1       5.235   4.575  16.307  0.00  0.00    +0.000 A 
ATOM     15  N   UNL     1       5.663   4.845  15.014  0.00  0.00    +0.000 N 
ATOM     16  H   UNL     1       8.409   5.042  16.675  0.00  0.00    +0.000 HD
ATOM     17  H   UNL     1       5.107   4.862  14.173  0.00  0.00    +0.000 HD
ENDBRANCH   3  12
ENDBRANCH   1   3
BRANCH   1  18
ATOM     18  C   UNL     1       2.892   6.127  19.684  0.00  0.00    +0.000 C 
BRANCH  18  19
ATOM     19  C   UNL     1       2.167   7.433  19.436  0.00  0.00    +0.000 A 
ATOM     20  C   UNL     1       1.531   8.149  20.461  0.00  0.00    +0.000 A 
ATOM     21  C   UNL     1       0.902   9.365  20.201  0.00  0.00    +0.000 A 
ATOM     22  C   UNL     1       0.911   9.911  18.916  0.00  0.00    +0.000 A 
ATOM     23  C   UNL     1       1.568   9.218  17.891  0.00  0.00    +0.000 A 
ATOM     24  C   UNL     1       2.192   7.996  18.150  0.00  0.00    +0.000 A 
BRANCH  22  25
ATOM     25  C   UNL     1       0.184  11.208  18.640  0.00  0.00    +0.000 C 
BRANCH  25  26
ATOM     26  N   UNL     1       0.838  12.411  19.208  0.00  0.00    +0.000 NA
ATOM     27  C   UNL     1       2.194  12.568  18.655  0.00  0.00    +0.000 C 
ATOM     28  C   UNL     1       2.845  13.911  18.988  0.00  0.00    +0.000 C 
ATOM     29  C   UNL     1       1.946  15.067  18.579  0.00  0.00    +0.000 C 
ATOM     30  C   UNL     1       0.604  14.919  19.277  0.00  0.00    +0.000 C 
ATOM     31  C   UNL     1      -0.033  13.571  18.949  0.00  0.00    +0.000 C 
ENDBRANCH  25  26
ENDBRANCH  22  25
ENDBRANCH  18  19
ENDBRANCH   1  18
TORSDOF 6
ENDMDL
