MODEL 1
REMARK VINA RESULT:      -8.9      0.000      0.000
REMARK  Name = 
REMARK  7 active torsions:
REMARK  status: ('A' for Active; 'I' for Inactive)
REMARK    1  A    between atoms: C_1  and  C_2
REMARK    2  A    between atoms: C_2  and  C_3
REMARK    3  A    between atoms: C_2  and  C_4
REMARK    4  A    between atoms: C_4  and  C_5
REMARK    5  A    between atoms: C_4  and  N_21
REMARK    6  A    between atoms: C_13  and  S_14
REMARK    7  A    between atoms: S_14  and  C_15
REMARK                            x       y       z     vdW  Elec       q    Type
REMARK                         _______ _______ _______ _____ _____    ______ ____
ROOT
ATOM      1  C   UNL     1       2.211   5.167  20.006  0.00  0.00    +0.000 C 
ATOM      2  O   UNL     1       1.578   5.215  21.062  0.00  0.00    +0.000 OA
ATOM      3  N   UNL     1       2.501   6.247  19.202  0.00  0.00    +0.000 N 
ATOM      4  C   UNL     1       2.050   7.495  19.498  0.00  0.00    +0.000 A 
ATOM      5  N   UNL     1       1.644   7.963  20.646  0.00  0.00    +0.000 NA
ATOM      6  C   UNL     1       1.170   9.244  20.479  0.00  0.00    +0.000 A 
ATOM      7  C   UNL     1       0.638  10.056  21.497  0.00  0.00    +0.000 A 
ATOM      8  C   UNL     1       0.154  11.330  21.189  0.00  0.00    +0.000 A 
ATOM      9  C   UNL     1       0.171  11.774  19.866  0.00  0.00    +0.000 A 
ATOM     10  C   UNL     1       0.720  11.001  18.834  0.00  0.00    +0.000 A 
ATOM     11  C   UNL     1       1.225   9.737  19.172  0.00  0.00    +0.000 A 
ATOM     12  S   UNL     1       1.983   8.557  18.167  0.00  0.00    +0.000 S 
ATOM     13  H   UNL     1       2.874   6.118  18.264  0.00  0.00    +0.000 HD
ENDROOT
BRANCH   9  14
ATOM     14  S   UNL     1      -0.477  13.384  19.472  0.00  0.00    +0.000 S 
ATOM     15  C   UNL     1      -2.077  13.384  20.236  0.00  0.00    +0.000 C 
ATOM     16  O   UNL     1       0.353  14.365  20.159  0.00  0.00    +0.000 OA
ATOM     17  O   UNL     1      -0.649  13.445  18.032  0.00  0.00    +0.000 OA
ENDBRANCH   9  14
BRANCH   1  18
ATOM     18  C   UNL     1       2.824   3.822  19.553  0.00  0.00    +0.000 C 
BRANCH  18  19
ATOM     19  N   UNL     1       3.829   4.057  18.481  0.00  0.00    +0.000 N 
ATOM     20  C   UNL     1       4.990   4.740  18.642  0.00  0.00    +0.000 C 
ATOM     21  O   UNL     1       5.347   5.424  19.584  0.00  0.00    +0.000 OA
ATOM     22  C   UNL     1       5.709   4.680  17.382  0.00  0.00    +0.000 A 
ATOM     23  C   UNL     1       7.007   5.056  17.079  0.00  0.00    +0.000 A 
ATOM     24  C   UNL     1       7.435   4.848  15.770  0.00  0.00    +0.000 A 
ATOM     25  C   UNL     1       6.561   4.297  14.805  0.00  0.00    +0.000 A 
ATOM     26  C   UNL     1       5.241   3.955  15.134  0.00  0.00    +0.000 A 
ATOM     27  C   UNL     1       4.850   4.157  16.438  0.00  0.00    +0.000 A 
ATOM     28  C   UNL     1       3.575   3.899  17.141  0.00  0.00    +0.000 C 
ATOM     29  O   UNL     1       2.526   3.671  16.571  0.00  0.00    +0.000 OA
ENDBRANCH  18  19
BRANCH  18  31
ATOM     30  C   UNL     1       2.273   2.319  21.586  0.00  0.00    +0.000 C 
ATOM     31  C   UNL     1       3.379   3.009  20.771  0.00  0.00    +0.000 C 
ATOM     32  C   UNL     1       4.401   1.929  20.379  0.00  0.00    +0.000 C 
ENDBRANCH  18  31
ENDBRANCH   1  18
TORSDOF 4
ENDMDL
MODEL 2
REMARK VINA RESULT:      -8.7      0.783      1.759
REMARK  Name = 
REMARK  7 active torsions:
REMARK  status: ('A' for Active; 'I' for Inactive)
REMARK    1  A    between atoms: C_1  and  C_2
REMARK    2  A    between atoms: C_2  and  C_3
REMARK    3  A    between atoms: C_2  and  C_4
REMARK    4  A    between atoms: C_4  and  C_5
REMARK    5  A    between atoms: C_4  and  N_21
REMARK    6  A    between atoms: C_13  and  S_14
REMARK    7  A    between atoms: S_14  and  C_15
REMARK                            x       y       z     vdW  Elec       q    Type
REMARK                         _______ _______ _______ _____ _____    ______ ____
ROOT
ATOM      1  C   UNL     1       2.120   5.393  19.970  0.00  0.00    +0.000 C 
ATOM      2  O   UNL     1       1.504   5.423  21.037  0.00  0.00    +0.000 OA
ATOM      3  N   UNL     1       2.395   6.486  19.177  0.00  0.00    +0.000 N 
ATOM      4  C   UNL     1       1.946   7.728  19.499  0.00  0.00    +0.000 A 
ATOM      5  N   UNL     1       1.557   8.178  20.661  0.00  0.00    +0.000 NA
ATOM      6  C   UNL     1       1.078   9.460  20.520  0.00  0.00    +0.000 A 
ATOM      7  C   UNL     1       0.560  10.255  21.558  0.00  0.00    +0.000 A 
ATOM      8  C   UNL     1       0.069  11.532  21.277  0.00  0.00    +0.000 A 
ATOM      9  C   UNL     1       0.064  11.997  19.961  0.00  0.00    +0.000 A 
ATOM     10  C   UNL     1       0.597  11.240  18.908  0.00  0.00    +0.000 A 
ATOM     11  C   UNL     1       1.110   9.972  19.220  0.00  0.00    +0.000 A 
ATOM     12  S   UNL     1       1.856   8.809  18.185  0.00  0.00    +0.000 S 
ATOM     13  H   UNL     1       2.753   6.371  18.232  0.00  0.00    +0.000 HD
ENDROOT
BRANCH   9  14
ATOM     14  S   UNL     1      -0.595  13.611  19.601  0.00  0.00    +0.000 S 
ATOM     15  C   UNL     1       0.433  14.698  20.553  0.00  0.00    +0.000 C 
ATOM     16  O   UNL     1      -0.349  13.874  18.190  0.00  0.00    +0.000 OA
ATOM     17  O   UNL     1      -1.943  13.660  20.135  0.00  0.00    +0.000 OA
ENDBRANCH   9  14
BRANCH   1  18
ATOM     18  C   UNL     1       2.729   4.056  19.487  0.00  0.00    +0.000 C 
BRANCH  18  19
ATOM     19  N   UNL     1       3.771   4.315  18.457  0.00  0.00    +0.000 N 
ATOM     20  C   UNL     1       3.839   3.698  17.251  0.00  0.00    +0.000 C 
ATOM     21  O   UNL     1       3.218   2.729  16.855  0.00  0.00    +0.000 OA
ATOM     22  C   UNL     1       4.954   4.282  16.526  0.00  0.00    +0.000 A 
ATOM     23  C   UNL     1       5.329   4.135  15.201  0.00  0.00    +0.000 A 
ATOM     24  C   UNL     1       6.442   4.855  14.776  0.00  0.00    +0.000 A 
ATOM     25  C   UNL     1       7.156   5.678  15.679  0.00  0.00    +0.000 A 
ATOM     26  C   UNL     1       6.771   5.782  17.024  0.00  0.00    +0.000 A 
ATOM     27  C   UNL     1       5.658   5.072  17.412  0.00  0.00    +0.000 A 
ATOM     28  C   UNL     1       4.958   4.958  18.709  0.00  0.00    +0.000 C 
ATOM     29  O   UNL     1       5.436   5.320  19.766  0.00  0.00    +0.000 OA
ENDBRANCH  18  19
BRANCH  18  31
ATOM     30  C   UNL     1       2.092   2.503  21.457  0.00  0.00    +0.000 C 
ATOM     31  C   UNL     1       3.234   3.192  20.692  0.00  0.00    +0.000 C 
ATOM     32  C   UNL     1       4.239   2.099  20.290  0.00  0.00    +0.000 C 
ENDBRANCH  18  31
ENDBRANCH   1  18
TORSDOF 4
ENDMDL
MODEL 3
REMARK VINA RESULT:      -8.6      3.471      9.240
REMARK  Name = 
REMARK  7 active torsions:
REMARK  status: ('A' for Active; 'I' for Inactive)
REMARK    1  A    between atoms: C_1  and  C_2
REMARK    2  A    between atoms: C_2  and  C_3
REMARK    3  A    between atoms: C_2  and  C_4
REMARK    4  A    between atoms: C_4  and  C_5
REMARK    5  A    between atoms: C_4  and  N_21
REMARK    6  A    between atoms: C_13  and  S_14
REMARK    7  A    between atoms: S_14  and  C_15
REMARK                            x       y       z     vdW  Elec       q    Type
REMARK                         _______ _______ _______ _____ _____    ______ ____
ROOT
ATOM      1  C   UNL     1       1.068  11.187  20.433  0.00  0.00    +0.000 C 
ATOM      2  O   UNL     1       1.151  10.739  21.578  0.00  0.00    +0.000 OA
ATOM      3  N   UNL     1       1.223  10.453  19.277  0.00  0.00    +0.000 N 
ATOM      4  C   UNL     1       1.543   9.132  19.312  0.00  0.00    +0.000 A 
ATOM      5  N   UNL     1       1.400   8.285  20.294  0.00  0.00    +0.000 NA
ATOM      6  C   UNL     1       1.952   7.076  19.942  0.00  0.00    +0.000 A 
ATOM      7  C   UNL     1       1.996   5.931  20.758  0.00  0.00    +0.000 A 
ATOM      8  C   UNL     1       2.621   4.770  20.295  0.00  0.00    +0.000 A 
ATOM      9  C   UNL     1       3.228   4.766  19.038  0.00  0.00    +0.000 A 
ATOM     10  C   UNL     1       3.178   5.881  18.190  0.00  0.00    +0.000 A 
ATOM     11  C   UNL     1       2.521   7.026  18.666  0.00  0.00    +0.000 A 
ATOM     12  S   UNL     1       2.255   8.539  17.882  0.00  0.00    +0.000 S 
ATOM     13  H   UNL     1       1.314  10.912  18.374  0.00  0.00    +0.000 HD
ENDROOT
BRANCH   9  14
ATOM     14  S   UNL     1       4.053   3.297  18.466  0.00  0.00    +0.000 S 
ATOM     15  C   UNL     1       2.719   2.179  18.127  0.00  0.00    +0.000 C 
ATOM     16  O   UNL     1       4.699   3.628  17.203  0.00  0.00    +0.000 OA
ATOM     17  O   UNL     1       4.829   2.772  19.575  0.00  0.00    +0.000 OA
ENDBRANCH   9  14
BRANCH   1  18
ATOM     18  C   UNL     1       0.672  12.668  20.228  0.00  0.00    +0.000 C 
BRANCH  18  19
ATOM     19  N   UNL     1       1.887  13.489  19.977  0.00  0.00    +0.000 N 
ATOM     20  C   UNL     1       2.696  13.368  18.894  0.00  0.00    +0.000 C 
ATOM     21  O   UNL     1       2.708  12.494  18.047  0.00  0.00    +0.000 OA
ATOM     22  C   UNL     1       3.719  14.393  18.998  0.00  0.00    +0.000 A 
ATOM     23  C   UNL     1       4.661  14.808  18.072  0.00  0.00    +0.000 A 
ATOM     24  C   UNL     1       5.503  15.851  18.450  0.00  0.00    +0.000 A 
ATOM     25  C   UNL     1       5.397  16.432  19.735  0.00  0.00    +0.000 A 
ATOM     26  C   UNL     1       4.453  15.969  20.664  0.00  0.00    +0.000 A 
ATOM     27  C   UNL     1       3.625  14.948  20.258  0.00  0.00    +0.000 A 
ATOM     28  C   UNL     1       2.522  14.238  20.938  0.00  0.00    +0.000 C 
ATOM     29  O   UNL     1       2.321  14.294  22.135  0.00  0.00    +0.000 OA
ENDBRANCH  18  19
BRANCH  18  31
ATOM     30  C   UNL     1      -1.817  12.357  19.596  0.00  0.00    +0.000 C 
ATOM     31  C   UNL     1      -0.428  12.816  19.124  0.00  0.00    +0.000 C 
ATOM     32  C   UNL     1      -0.577  14.250  18.588  0.00  0.00    +0.000 C 
ENDBRANCH  18  31
ENDBRANCH   1  18
TORSDOF 4
ENDMDL
MODEL 4
REMARK VINA RESULT:      -8.5      2.854     10.171
REMARK  Name = 
REMARK  7 active torsions:
REMARK  status: ('A' for Active; 'I' for Inactive)
REMARK    1  A    between atoms: C_1  and  C_2
REMARK    2  A    between atoms: C_2  and  C_3
REMARK    3  A    between atoms: C_2  and  C_4
REMARK    4  A    between atoms: C_4  and  C_5
REMARK    5  A    between atoms: C_4  and  N_21
REMARK    6  A    between atoms: C_13  and  S_14
REMARK    7  A    between atoms: S_14  and  C_15
REMARK                            x       y       z     vdW  Elec       q    Type
REMARK                         _______ _______ _______ _____ _____    ______ ____
ROOT
ATOM      1  C   UNL     1       0.686  11.255  20.640  0.00  0.00    +0.000 C 
ATOM      2  O   UNL     1       0.875  10.757  21.751  0.00  0.00    +0.000 OA
ATOM      3  N   UNL     1       0.865  10.610  19.436  0.00  0.00    +0.000 N 
ATOM      4  C   UNL     1       1.333   9.334  19.377  0.00  0.00    +0.000 A 
ATOM      5  N   UNL     1       1.335   8.423  20.311  0.00  0.00    +0.000 NA
ATOM      6  C   UNL     1       2.002   7.307  19.863  0.00  0.00    +0.000 A 
ATOM      7  C   UNL     1       2.215   6.131  20.605  0.00  0.00    +0.000 A 
ATOM      8  C   UNL     1       2.944   5.078  20.046  0.00  0.00    +0.000 A 
ATOM      9  C   UNL     1       3.485   5.214  18.767  0.00  0.00    +0.000 A 
ATOM     10  C   UNL     1       3.268   6.362  17.991  0.00  0.00    +0.000 A 
ATOM     11  C   UNL     1       2.510   7.394  18.563  0.00  0.00    +0.000 A 
ATOM     12  S   UNL     1       2.036   8.908  17.884  0.00  0.00    +0.000 S 
ATOM     13  H   UNL     1       0.859  11.125  18.559  0.00  0.00    +0.000 HD
ENDROOT
BRANCH   9  14
ATOM     14  S   UNL     1       4.441   3.884  18.072  0.00  0.00    +0.000 S 
ATOM     15  C   UNL     1       3.377   2.476  18.242  0.00  0.00    +0.000 C 
ATOM     16  O   UNL     1       4.601   4.163  16.651  0.00  0.00    +0.000 OA
ATOM     17  O   UNL     1       5.604   3.693  18.920  0.00  0.00    +0.000 OA
ENDBRANCH   9  14
BRANCH   1  18
ATOM     18  C   UNL     1       0.116  12.689  20.543  0.00  0.00    +0.000 C 
BRANCH  18  19
ATOM     19  N   UNL     1      -1.293  12.709  21.020  0.00  0.00    +0.000 N 
ATOM     20  C   UNL     1      -1.672  12.693  22.323  0.00  0.00    +0.000 C 
ATOM     21  O   UNL     1      -0.993  12.480  23.310  0.00  0.00    +0.000 OA
ATOM     22  C   UNL     1      -3.120  12.792  22.356  0.00  0.00    +0.000 A 
ATOM     23  C   UNL     1      -3.975  12.998  23.427  0.00  0.00    +0.000 A 
ATOM     24  C   UNL     1      -5.335  13.081  23.143  0.00  0.00    +0.000 A 
ATOM     25  C   UNL     1      -5.805  12.935  21.817  0.00  0.00    +0.000 A 
ATOM     26  C   UNL     1      -4.918  12.696  20.757  0.00  0.00    +0.000 A 
ATOM     27  C   UNL     1      -3.578  12.635  21.064  0.00  0.00    +0.000 A 
ATOM     28  C   UNL     1      -2.379  12.428  20.226  0.00  0.00    +0.000 C 
ATOM     29  O   UNL     1      -2.418  12.013  19.084  0.00  0.00    +0.000 OA
ENDBRANCH  18  19
BRANCH  18  31
ATOM     30  C   UNL     1       2.506  13.644  20.807  0.00  0.00    +0.000 C 
ATOM     31  C   UNL     1       1.042  13.722  21.269  0.00  0.00    +0.000 C 
ATOM     32  C   UNL     1       0.587  15.182  21.106  0.00  0.00    +0.000 C 
ENDBRANCH  18  31
ENDBRANCH   1  18
TORSDOF 4
ENDMDL
MODEL 5
REMARK VINA RESULT:      -8.4      3.016      9.950
REMARK  Name = 
REMARK  7 active torsions:
REMARK  status: ('A' for Active; 'I' for Inactive)
REMARK    1  A    between atoms: C_1  and  C_2
REMARK    2  A    between atoms: C_2  and  C_3
REMARK    3  A    between atoms: C_2  and  C_4
REMARK    4  A    between atoms: C_4  and  C_5
REMARK    5  A    between atoms: C_4  and  N_21
REMARK    6  A    between atoms: C_13  and  S_14
REMARK    7  A    between atoms: S_14  and  C_15
REMARK                            x       y       z     vdW  Elec       q    Type
REMARK                         _______ _______ _______ _____ _____    ______ ____
ROOT
ATOM      1  C   UNL     1       0.634  10.976  18.793  0.00  0.00    +0.000 C 
ATOM      2  O   UNL     1       0.641  10.552  17.637  0.00  0.00    +0.000 OA
ATOM      3  N   UNL     1       1.060  10.277  19.901  0.00  0.00    +0.000 N 
ATOM      4  C   UNL     1       1.492   8.991  19.807  0.00  0.00    +0.000 A 
ATOM      5  N   UNL     1       1.923   8.352  18.754  0.00  0.00    +0.000 NA
ATOM      6  C   UNL     1       2.157   7.036  19.080  0.00  0.00    +0.000 A 
ATOM      7  C   UNL     1       2.614   6.045  18.192  0.00  0.00    +0.000 A 
ATOM      8  C   UNL     1       2.776   4.732  18.640  0.00  0.00    +0.000 A 
ATOM      9  C   UNL     1       2.451   4.405  19.957  0.00  0.00    +0.000 A 
ATOM     10  C   UNL     1       2.019   5.374  20.873  0.00  0.00    +0.000 A 
ATOM     11  C   UNL     1       1.890   6.691  20.408  0.00  0.00    +0.000 A 
ATOM     12  S   UNL     1       1.418   8.112  21.265  0.00  0.00    +0.000 S 
ATOM     13  H   UNL     1       0.869  10.617  20.841  0.00  0.00    +0.000 HD
ENDROOT
BRANCH   9  14
ATOM     14  S   UNL     1       2.627   2.724  20.514  0.00  0.00    +0.000 S 
ATOM     15  C   UNL     1       4.252   2.274  19.966  0.00  0.00    +0.000 C 
ATOM     16  O   UNL     1       2.630   2.749  21.970  0.00  0.00    +0.000 OA
ATOM     17  O   UNL     1       1.655   1.922  19.793  0.00  0.00    +0.000 OA
ENDBRANCH   9  14
BRANCH   1  18
ATOM     18  C   UNL     1       0.205  12.438  19.058  0.00  0.00    +0.000 C 
BRANCH  18  19
ATOM     19  N   UNL     1      -0.937  12.467  20.012  0.00  0.00    +0.000 N 
ATOM     20  C   UNL     1      -0.829  12.324  21.357  0.00  0.00    +0.000 C 
ATOM     21  O   UNL     1       0.137  11.974  22.010  0.00  0.00    +0.000 OA
ATOM     22  C   UNL     1      -2.158  12.483  21.919  0.00  0.00    +0.000 A 
ATOM     23  C   UNL     1      -2.557  12.607  23.240  0.00  0.00    +0.000 A 
ATOM     24  C   UNL     1      -3.919  12.780  23.475  0.00  0.00    +0.000 A 
ATOM     25  C   UNL     1      -4.838  12.802  22.400  0.00  0.00    +0.000 A 
ATOM     26  C   UNL     1      -4.408  12.642  21.075  0.00  0.00    +0.000 A 
ATOM     27  C   UNL     1      -3.055  12.489  20.871  0.00  0.00    +0.000 A 
ATOM     28  C   UNL     1      -2.252  12.323  19.642  0.00  0.00    +0.000 C 
ATOM     29  O   UNL     1      -2.726  12.039  18.560  0.00  0.00    +0.000 OA
ENDBRANCH  18  19
BRANCH  18  31
ATOM     30  C   UNL     1       2.611  13.233  18.533  0.00  0.00    +0.000 C 
ATOM     31  C   UNL     1       1.422  13.318  19.504  0.00  0.00    +0.000 C 
ATOM     32  C   UNL     1       1.078  14.806  19.679  0.00  0.00    +0.000 C 
ENDBRANCH  18  31
ENDBRANCH   1  18
TORSDOF 4
ENDMDL
MODEL 6
REMARK VINA RESULT:      -8.2      3.327      9.102
REMARK  Name = 
REMARK  7 active torsions:
REMARK  status: ('A' for Active; 'I' for Inactive)
REMARK    1  A    between atoms: C_1  and  C_2
REMARK    2  A    between atoms: C_2  and  C_3
REMARK    3  A    between atoms: C_2  and  C_4
REMARK    4  A    between atoms: C_4  and  C_5
REMARK    5  A    between atoms: C_4  and  N_21
REMARK    6  A    between atoms: C_13  and  S_14
REMARK    7  A    between atoms: S_14  and  C_15
REMARK                            x       y       z     vdW  Elec       q    Type
REMARK                         _______ _______ _______ _____ _____    ______ ____
ROOT
ATOM      1  C   UNL     1       1.008  11.041  20.875  0.00  0.00    +0.000 C 
ATOM      2  O   UNL     1       1.058  10.482  21.972  0.00  0.00    +0.000 OA
ATOM      3  N   UNL     1       1.189  10.425  19.657  0.00  0.00    +0.000 N 
ATOM      4  C   UNL     1       1.500   9.103  19.569  0.00  0.00    +0.000 A 
ATOM      5  N   UNL     1       1.325   8.165  20.458  0.00  0.00    +0.000 NA
ATOM      6  C   UNL     1       1.879   6.992  20.002  0.00  0.00    +0.000 A 
ATOM      7  C   UNL     1       1.894   5.771  20.702  0.00  0.00    +0.000 A 
ATOM      8  C   UNL     1       2.524   4.656  20.143  0.00  0.00    +0.000 A 
ATOM      9  C   UNL     1       3.164   4.771  18.908  0.00  0.00    +0.000 A 
ATOM     10  C   UNL     1       3.144   5.965  18.174  0.00  0.00    +0.000 A 
ATOM     11  C   UNL     1       2.481   7.062  18.743  0.00  0.00    +0.000 A 
ATOM     12  S   UNL     1       2.246   8.649  18.106  0.00  0.00    +0.000 S 
ATOM     13  H   UNL     1       1.307  10.969  18.806  0.00  0.00    +0.000 HD
ENDROOT
BRANCH   9  14
ATOM     14  S   UNL     1       3.995   3.358  18.215  0.00  0.00    +0.000 S 
ATOM     15  C   UNL     1       2.680   2.203  17.932  0.00  0.00    +0.000 C 
ATOM     16  O   UNL     1       4.529   3.762  16.921  0.00  0.00    +0.000 OA
ATOM     17  O   UNL     1       4.872   2.822  19.239  0.00  0.00    +0.000 OA
ENDBRANCH   9  14
BRANCH   1  18
ATOM     18  C   UNL     1       0.627  12.539  20.808  0.00  0.00    +0.000 C 
BRANCH  18  19
ATOM     19  N   UNL     1       1.809  13.346  20.403  0.00  0.00    +0.000 N 
ATOM     20  C   UNL     1       2.416  14.278  21.180  0.00  0.00    +0.000 C 
ATOM     21  O   UNL     1       2.034  14.758  22.232  0.00  0.00    +0.000 OA
ATOM     22  C   UNL     1       3.562  14.781  20.444  0.00  0.00    +0.000 A 
ATOM     23  C   UNL     1       4.600  15.599  20.860  0.00  0.00    +0.000 A 
ATOM     24  C   UNL     1       5.588  15.891  19.924  0.00  0.00    +0.000 A 
ATOM     25  C   UNL     1       5.506  15.383  18.607  0.00  0.00    +0.000 A 
ATOM     26  C   UNL     1       4.426  14.583  18.204  0.00  0.00    +0.000 A 
ATOM     27  C   UNL     1       3.472  14.297  19.154  0.00  0.00    +0.000 A 
ATOM     28  C   UNL     1       2.237  13.487  19.105  0.00  0.00    +0.000 C 
ATOM     29  O   UNL     1       1.716  13.115  18.072  0.00  0.00    +0.000 OA
ENDBRANCH  18  19
BRANCH  18  31
ATOM     30  C   UNL     1      -1.830  11.897  20.315  0.00  0.00    +0.000 C 
ATOM     31  C   UNL     1      -0.631  12.767  19.904  0.00  0.00    +0.000 C 
ATOM     32  C   UNL     1      -1.114  14.227  19.873  0.00  0.00    +0.000 C 
ENDBRANCH  18  31
ENDBRANCH   1  18
TORSDOF 4
ENDMDL
MODEL 7
REMARK VINA RESULT:      -8.2      2.863     10.433
REMARK  Name = 
REMARK  7 active torsions:
REMARK  status: ('A' for Active; 'I' for Inactive)
REMARK    1  A    between atoms: C_1  and  C_2
REMARK    2  A    between atoms: C_2  and  C_3
REMARK    3  A    between atoms: C_2  and  C_4
REMARK    4  A    between atoms: C_4  and  C_5
REMARK    5  A    between atoms: C_4  and  N_21
REMARK    6  A    between atoms: C_13  and  S_14
REMARK    7  A    between atoms: S_14  and  C_15
REMARK                            x       y       z     vdW  Elec       q    Type
REMARK                         _______ _______ _______ _____ _____    ______ ____
ROOT
ATOM      1  C   UNL     1       0.465  11.222  20.797  0.00  0.00    +0.000 C 
ATOM      2  O   UNL     1       0.588  10.692  21.902  0.00  0.00    +0.000 OA
ATOM      3  N   UNL     1       0.722  10.614  19.587  0.00  0.00    +0.000 N 
ATOM      4  C   UNL     1       1.199   9.342  19.520  0.00  0.00    +0.000 A 
ATOM      5  N   UNL     1       1.148   8.404  20.425  0.00  0.00    +0.000 NA
ATOM      6  C   UNL     1       1.847   7.304  19.985  0.00  0.00    +0.000 A 
ATOM      7  C   UNL     1       2.020   6.107  20.704  0.00  0.00    +0.000 A 
ATOM      8  C   UNL     1       2.787   5.073  20.161  0.00  0.00    +0.000 A 
ATOM      9  C   UNL     1       3.405   5.249  18.922  0.00  0.00    +0.000 A 
ATOM     10  C   UNL     1       3.230   6.418  18.168  0.00  0.00    +0.000 A 
ATOM     11  C   UNL     1       2.433   7.431  18.723  0.00  0.00    +0.000 A 
ATOM     12  S   UNL     1       1.994   8.963  18.061  0.00  0.00    +0.000 S 
ATOM     13  H   UNL     1       0.767  11.155  18.727  0.00  0.00    +0.000 HD
ENDROOT
BRANCH   9  14
ATOM     14  S   UNL     1       4.408   3.943  18.248  0.00  0.00    +0.000 S 
ATOM     15  C   UNL     1       3.327   2.538  18.268  0.00  0.00    +0.000 C 
ATOM     16  O   UNL     1       4.685   4.283  16.858  0.00  0.00    +0.000 OA
ATOM     17  O   UNL     1       5.497   3.706  19.178  0.00  0.00    +0.000 OA
ENDBRANCH   9  14
BRANCH   1  18
ATOM     18  C   UNL     1      -0.105  12.657  20.707  0.00  0.00    +0.000 C 
BRANCH  18  19
ATOM     19  N   UNL     1      -1.410  12.731  21.417  0.00  0.00    +0.000 N 
ATOM     20  C   UNL     1      -2.618  12.854  20.811  0.00  0.00    +0.000 C 
ATOM     21  O   UNL     1      -2.862  13.106  19.645  0.00  0.00    +0.000 OA
ATOM     22  C   UNL     1      -3.632  12.820  21.849  0.00  0.00    +0.000 A 
ATOM     23  C   UNL     1      -5.010  12.725  21.746  0.00  0.00    +0.000 A 
ATOM     24  C   UNL     1      -5.731  12.682  22.936  0.00  0.00    +0.000 A 
ATOM     25  C   UNL     1      -5.069  12.755  24.183  0.00  0.00    +0.000 A 
ATOM     26  C   UNL     1      -3.673  12.882  24.257  0.00  0.00    +0.000 A 
ATOM     27  C   UNL     1      -2.985  12.906  23.065  0.00  0.00    +0.000 A 
ATOM     28  C   UNL     1      -1.543  13.003  22.757  0.00  0.00    +0.000 C 
ATOM     29  O   UNL     1      -0.702  13.338  23.567  0.00  0.00    +0.000 OA
ENDBRANCH  18  19
BRANCH  18  31
ATOM     30  C   UNL     1       2.362  13.437  20.684  0.00  0.00    +0.000 C 
ATOM     31  C   UNL     1       0.939  13.718  21.195  0.00  0.00    +0.000 C 
ATOM     32  C   UNL     1       0.586  15.161  20.798  0.00  0.00    +0.000 C 
ENDBRANCH  18  31
ENDBRANCH   1  18
TORSDOF 4
ENDMDL
MODEL 8
REMARK VINA RESULT:      -8.2      3.071     10.218
REMARK  Name = 
REMARK  7 active torsions:
REMARK  status: ('A' for Active; 'I' for Inactive)
REMARK    1  A    between atoms: C_1  and  C_2
REMARK    2  A    between atoms: C_2  and  C_3
REMARK    3  A    between atoms: C_2  and  C_4
REMARK    4  A    between atoms: C_4  and  C_5
REMARK    5  A    between atoms: C_4  and  N_21
REMARK    6  A    between atoms: C_13  and  S_14
REMARK    7  A    between atoms: S_14  and  C_15
REMARK                            x       y       z     vdW  Elec       q    Type
REMARK                         _______ _______ _______ _____ _____    ______ ____
ROOT
ATOM      1  C   UNL     1       0.355  11.582  19.654  0.00  0.00    +0.000 C 
ATOM      2  O   UNL     1       0.353  11.369  18.441  0.00  0.00    +0.000 OA
ATOM      3  N   UNL     1       0.797  10.702  20.617  0.00  0.00    +0.000 N 
ATOM      4  C   UNL     1       1.238   9.457  20.294  0.00  0.00    +0.000 A 
ATOM      5  N   UNL     1       1.663   9.018  19.141  0.00  0.00    +0.000 NA
ATOM      6  C   UNL     1       1.910   7.668  19.227  0.00  0.00    +0.000 A 
ATOM      7  C   UNL     1       2.365   6.853  18.174  0.00  0.00    +0.000 A 
ATOM      8  C   UNL     1       2.542   5.483  18.381  0.00  0.00    +0.000 A 
ATOM      9  C   UNL     1       2.232   4.926  19.622  0.00  0.00    +0.000 A 
ATOM     10  C   UNL     1       1.803   5.713  20.699  0.00  0.00    +0.000 A 
ATOM     11  C   UNL     1       1.660   7.090  20.475  0.00  0.00    +0.000 A 
ATOM     12  S   UNL     1       1.185   8.334  21.574  0.00  0.00    +0.000 S 
ATOM     13  H   UNL     1       0.613  10.869  21.604  0.00  0.00    +0.000 HD
ENDROOT
BRANCH   9  14
ATOM     14  S   UNL     1       2.427   3.174  19.872  0.00  0.00    +0.000 S 
ATOM     15  C   UNL     1       1.876   2.930  21.539  0.00  0.00    +0.000 C 
ATOM     16  O   UNL     1       1.489   2.503  18.981  0.00  0.00    +0.000 OA
ATOM     17  O   UNL     1       3.846   2.879  19.803  0.00  0.00    +0.000 OA
ENDBRANCH   9  14
BRANCH   1  18
ATOM     18  C   UNL     1      -0.083  12.970  20.177  0.00  0.00    +0.000 C 
BRANCH  18  19
ATOM     19  N   UNL     1      -1.329  12.841  20.980  0.00  0.00    +0.000 N 
ATOM     20  C   UNL     1      -1.376  12.481  22.287  0.00  0.00    +0.000 C 
ATOM     21  O   UNL     1      -0.486  12.032  22.986  0.00  0.00    +0.000 OA
ATOM     22  C   UNL     1      -2.765  12.542  22.706  0.00  0.00    +0.000 A 
ATOM     23  C   UNL     1      -3.318  12.450  23.973  0.00  0.00    +0.000 A 
ATOM     24  C   UNL     1      -4.702  12.578  24.068  0.00  0.00    +0.000 A 
ATOM     25  C   UNL     1      -5.489  12.772  22.910  0.00  0.00    +0.000 A 
ATOM     26  C   UNL     1      -4.903  12.831  21.636  0.00  0.00    +0.000 A 
ATOM     27  C   UNL     1      -3.533  12.717  21.573  0.00  0.00    +0.000 A 
ATOM     28  C   UNL     1      -2.588  12.754  20.438  0.00  0.00    +0.000 C 
ATOM     29  O   UNL     1      -2.926  12.649  19.276  0.00  0.00    +0.000 OA
ENDBRANCH  18  19
BRANCH  18  31
ATOM     30  C   UNL     1       2.404  13.683  20.147  0.00  0.00    +0.000 C 
ATOM     31  C   UNL     1       1.085  13.687  20.936  0.00  0.00    +0.000 C 
ATOM     32  C   UNL     1       0.777  15.148  21.305  0.00  0.00    +0.000 C 
ENDBRANCH  18  31
ENDBRANCH   1  18
TORSDOF 4
ENDMDL
MODEL 9
REMARK VINA RESULT:      -8.1      3.463     10.850
REMARK  Name = 
REMARK  7 active torsions:
REMARK  status: ('A' for Active; 'I' for Inactive)
REMARK    1  A    between atoms: C_1  and  C_2
REMARK    2  A    between atoms: C_2  and  C_3
REMARK    3  A    between atoms: C_2  and  C_4
REMARK    4  A    between atoms: C_4  and  C_5
REMARK    5  A    between atoms: C_4  and  N_21
REMARK    6  A    between atoms: C_13  and  S_14
REMARK    7  A    between atoms: S_14  and  C_15
REMARK                            x       y       z     vdW  Elec       q    Type
REMARK                         _______ _______ _______ _____ _____    ______ ____
ROOT
ATOM      1  C   UNL     1      -1.055  12.857  19.753  0.00  0.00    +0.000 C 
ATOM      2  O   UNL     1      -1.127  12.679  18.537  0.00  0.00    +0.000 OA
ATOM      3  N   UNL     1      -0.314  12.093  20.628  0.00  0.00    +0.000 N 
ATOM      4  C   UNL     1       0.385  11.006  20.206  0.00  0.00    +0.000 A 
ATOM      5  N   UNL     1       0.786  10.714  18.999  0.00  0.00    +0.000 NA
ATOM      6  C   UNL     1       1.365   9.466  18.997  0.00  0.00    +0.000 A 
ATOM      7  C   UNL     1       1.898   8.817  17.868  0.00  0.00    +0.000 A 
ATOM      8  C   UNL     1       2.427   7.530  17.992  0.00  0.00    +0.000 A 
ATOM      9  C   UNL     1       2.391   6.883  19.228  0.00  0.00    +0.000 A 
ATOM     10  C   UNL     1       1.892   7.513  20.377  0.00  0.00    +0.000 A 
ATOM     11  C   UNL     1       1.392   8.816  20.234  0.00  0.00    +0.000 A 
ATOM     12  S   UNL     1       0.740   9.874  21.430  0.00  0.00    +0.000 S 
ATOM     13  H   UNL     1      -0.433  12.185  21.635  0.00  0.00    +0.000 HD
ENDROOT
BRANCH   9  14
ATOM     14  S   UNL     1       3.035   5.231  19.374  0.00  0.00    +0.000 S 
ATOM     15  C   UNL     1       2.292   4.627  20.867  0.00  0.00    +0.000 C 
ATOM     16  O   UNL     1       2.503   4.459  18.259  0.00  0.00    +0.000 OA
ATOM     17  O   UNL     1       4.468   5.337  19.579  0.00  0.00    +0.000 OA
ENDBRANCH   9  14
BRANCH   1  18
ATOM     18  C   UNL     1      -1.765  14.079  20.381  0.00  0.00    +0.000 C 
BRANCH  18  19
ATOM     19  N   UNL     1      -2.812  13.623  21.335  0.00  0.00    +0.000 N 
ATOM     20  C   UNL     1      -2.570  13.128  22.575  0.00  0.00    +0.000 C 
ATOM     21  O   UNL     1      -1.508  12.795  23.067  0.00  0.00    +0.000 OA
ATOM     22  C   UNL     1      -3.856  12.870  23.198  0.00  0.00    +0.000 A 
ATOM     23  C   UNL     1      -4.159  12.539  24.509  0.00  0.00    +0.000 A 
ATOM     24  C   UNL     1      -5.506  12.380  24.825  0.00  0.00    +0.000 A 
ATOM     25  C   UNL     1      -6.502  12.533  23.832  0.00  0.00    +0.000 A 
ATOM     26  C   UNL     1      -6.162  12.838  22.506  0.00  0.00    +0.000 A 
ATOM     27  C   UNL     1      -4.825  13.004  22.225  0.00  0.00    +0.000 A 
ATOM     28  C   UNL     1      -4.110  13.346  20.978  0.00  0.00    +0.000 C 
ATOM     29  O   UNL     1      -4.617  13.296  19.875  0.00  0.00    +0.000 OA
ENDBRANCH  18  19
BRANCH  18  31
ATOM     30  C   UNL     1       0.343  15.531  20.008  0.00  0.00    +0.000 C 
ATOM     31  C   UNL     1      -0.735  15.079  21.006  0.00  0.00    +0.000 C 
ATOM     32  C   UNL     1      -1.380  16.347  21.590  0.00  0.00    +0.000 C 
ENDBRANCH  18  31
ENDBRANCH   1  18
TORSDOF 4
ENDMDL
