MODEL 1
REMARK VINA RESULT:      -9.2      0.000      0.000
REMARK  Name = 
REMARK  7 active torsions:
REMARK  status: ('A' for Active; 'I' for Inactive)
REMARK    1  A    between atoms: C_1  and  C_2
REMARK    2  A    between atoms: C_4  and  C_5
REMARK    3  A    between atoms: N_6  and  C_7
REMARK    4  A    between atoms: C_10  and  C_11
REMARK    5  A    between atoms: N_13  and  C_14
REMARK    6  A    between atoms: C_16  and  C_17
REMARK    7  A    between atoms: C_22  and  N_23
REMARK                            x       y       z     vdW  Elec       q    Type
REMARK                         _______ _______ _______ _____ _____    ______ ____
ROOT
ATOM      1  C   UNL     1       2.854   7.597  17.890  0.00  0.00    +0.000 C 
ATOM      2  O   UNL     1       3.203   8.022  16.797  0.00  0.00    +0.000 OA
ATOM      3  N   UNL     1       3.119   6.351  18.408  0.00  0.00    +0.000 N 
ATOM      4  H   UNL     1       2.416   6.019  19.035  0.00  0.00    +0.000 HD
ENDROOT
BRANCH   1   8
ATOM      5  C   UNL     1       0.328   9.949  20.454  0.00  0.00    +0.000 A 
ATOM      6  C   UNL     1       0.566  10.345  19.130  0.00  0.00    +0.000 A 
ATOM      7  C   UNL     1       1.391   9.578  18.296  0.00  0.00    +0.000 A 
ATOM      8  C   UNL     1       1.975   8.408  18.780  0.00  0.00    +0.000 A 
ATOM      9  C   UNL     1       1.739   8.006  20.103  0.00  0.00    +0.000 A 
ATOM     10  C   UNL     1       0.932   8.779  20.939  0.00  0.00    +0.000 A 
BRANCH   5  16
ATOM     11  C   UNL     1      -2.793  13.410  21.666  0.00  0.00    +0.000 C 
ATOM     12  C   UNL     1      -1.877  12.261  21.861  0.00  0.00    +0.000 A 
ATOM     13  C   UNL     1      -1.698  11.488  23.020  0.00  0.00    +0.000 A 
ATOM     14  C   UNL     1      -0.748  10.543  22.691  0.00  0.00    +0.000 A 
ATOM     15  C   UNL     1      -0.070   9.574  23.587  0.00  0.00    +0.000 C 
ATOM     16  N   UNL     1      -0.463  10.733  21.344  0.00  0.00    +0.000 N 
ATOM     17  N   UNL     1      -1.072  11.859  20.875  0.00  0.00    +0.000 NA
ENDBRANCH   5  16
ENDBRANCH   1   8
BRANCH   3  18
ATOM     18  C   UNL     1       3.851   5.338  17.776  0.00  0.00    +0.000 A 
ATOM     19  C   UNL     1       4.750   5.688  16.762  0.00  0.00    +0.000 A 
ATOM     20  C   UNL     1       5.530   4.706  16.157  0.00  0.00    +0.000 A 
ATOM     21  C   UNL     1       5.400   3.380  16.564  0.00  0.00    +0.000 A 
ATOM     22  C   UNL     1       4.472   3.032  17.559  0.00  0.00    +0.000 A 
ATOM     23  C   UNL     1       3.680   3.996  18.205  0.00  0.00    +0.000 A 
BRANCH  20  24
ATOM     24  C   UNL     1       6.540   5.053  15.122  0.00  0.00    +0.000 C 
ATOM     25  N   UNL     1       6.437   4.435  13.904  0.00  0.00    +0.000 N 
ATOM     26  O   UNL     1       7.434   5.858  15.344  0.00  0.00    +0.000 OA
ATOM     27  H   UNL     1       5.859   3.620  13.753  0.00  0.00    +0.000 HD
ATOM     28  H   UNL     1       7.165   4.632  13.227  0.00  0.00    +0.000 HD
ENDBRANCH  20  24
BRANCH  23  29
ATOM     29  N   UNL     1       2.668   3.639  19.087  0.00  0.00    +0.000 N 
ATOM     30  C   UNL     1       1.394   3.133  18.581  0.00  0.00    +0.000 C 
ATOM     31  C   UNL     1       0.518   3.258  19.818  0.00  0.00    +0.000 C 
ATOM     32  C   UNL     1       1.446   2.818  20.944  0.00  0.00    +0.000 C 
ATOM     33  C   UNL     1       2.867   3.125  20.445  0.00  0.00    +0.000 C 
ENDBRANCH  23  29
ENDBRANCH   3  18
TORSDOF 5
ENDMDL
MODEL 2
REMARK VINA RESULT:      -9.1      0.591      1.063
REMARK  Name = 
REMARK  7 active torsions:
REMARK  status: ('A' for Active; 'I' for Inactive)
REMARK    1  A    between atoms: C_1  and  C_2
REMARK    2  A    between atoms: C_4  and  C_5
REMARK    3  A    between atoms: N_6  and  C_7
REMARK    4  A    between atoms: C_10  and  C_11
REMARK    5  A    between atoms: N_13  and  C_14
REMARK    6  A    between atoms: C_16  and  C_17
REMARK    7  A    between atoms: C_22  and  N_23
REMARK                            x       y       z     vdW  Elec       q    Type
REMARK                         _______ _______ _______ _____ _____    ______ ____
ROOT
ATOM      1  C   UNL     1       2.914   7.579  17.885  0.00  0.00    +0.000 C 
ATOM      2  O   UNL     1       3.243   7.997  16.783  0.00  0.00    +0.000 OA
ATOM      3  N   UNL     1       3.165   6.329  18.398  0.00  0.00    +0.000 N 
ATOM      4  H   UNL     1       2.472   6.012  19.044  0.00  0.00    +0.000 HD
ENDROOT
BRANCH   1   8
ATOM      5  C   UNL     1       0.488   9.961  20.518  0.00  0.00    +0.000 A 
ATOM      6  C   UNL     1       1.036   8.747  20.957  0.00  0.00    +0.000 A 
ATOM      7  C   UNL     1       1.825   7.971  20.097  0.00  0.00    +0.000 A 
ATOM      8  C   UNL     1       2.076   8.410  18.797  0.00  0.00    +0.000 A 
ATOM      9  C   UNL     1       1.531   9.623  18.353  0.00  0.00    +0.000 A 
ATOM     10  C   UNL     1       0.730  10.387  19.204  0.00  0.00    +0.000 A 
BRANCH   5  16
ATOM     11  C   UNL     1      -2.726  13.410  21.500  0.00  0.00    +0.000 C 
ATOM     12  C   UNL     1      -1.816  12.269  21.763  0.00  0.00    +0.000 A 
ATOM     13  C   UNL     1      -1.704  11.508  22.938  0.00  0.00    +0.000 A 
ATOM     14  C   UNL     1      -0.729  10.568  22.678  0.00  0.00    +0.000 A 
ATOM     15  C   UNL     1      -0.101   9.612  23.623  0.00  0.00    +0.000 C 
ATOM     16  N   UNL     1      -0.363  10.748  21.349  0.00  0.00    +0.000 N 
ATOM     17  N   UNL     1      -0.949  11.865  20.833  0.00  0.00    +0.000 NA
ENDBRANCH   5  16
ENDBRANCH   1   8
BRANCH   3  18
ATOM     18  C   UNL     1       3.858   5.299  17.748  0.00  0.00    +0.000 A 
ATOM     19  C   UNL     1       4.726   5.628  16.700  0.00  0.00    +0.000 A 
ATOM     20  C   UNL     1       5.469   4.629  16.076  0.00  0.00    +0.000 A 
ATOM     21  C   UNL     1       5.333   3.309  16.497  0.00  0.00    +0.000 A 
ATOM     22  C   UNL     1       4.435   2.983  17.527  0.00  0.00    +0.000 A 
ATOM     23  C   UNL     1       3.682   3.964  18.194  0.00  0.00    +0.000 A 
BRANCH  20  24
ATOM     24  C   UNL     1       6.446   4.953  15.003  0.00  0.00    +0.000 C 
ATOM     25  N   UNL     1       7.509   5.751  15.333  0.00  0.00    +0.000 N 
ATOM     26  O   UNL     1       6.312   4.527  13.863  0.00  0.00    +0.000 OA
ATOM     27  H   UNL     1       7.542   6.290  16.187  0.00  0.00    +0.000 HD
ATOM     28  H   UNL     1       8.135   6.015  14.582  0.00  0.00    +0.000 HD
ENDBRANCH  20  24
BRANCH  23  29
ATOM     29  N   UNL     1       2.697   3.629  19.113  0.00  0.00    +0.000 N 
ATOM     30  C   UNL     1       1.381   3.188  18.656  0.00  0.00    +0.000 C 
ATOM     31  C   UNL     1       0.568   3.321  19.934  0.00  0.00    +0.000 C 
ATOM     32  C   UNL     1       1.526   2.817  21.008  0.00  0.00    +0.000 C 
ATOM     33  C   UNL     1       2.935   3.077  20.450  0.00  0.00    +0.000 C 
ENDBRANCH  23  29
ENDBRANCH   3  18
TORSDOF 5
ENDMDL
MODEL 3
REMARK VINA RESULT:      -9.0      2.444      4.061
REMARK  Name = 
REMARK  7 active torsions:
REMARK  status: ('A' for Active; 'I' for Inactive)
REMARK    1  A    between atoms: C_1  and  C_2
REMARK    2  A    between atoms: C_4  and  C_5
REMARK    3  A    between atoms: N_6  and  C_7
REMARK    4  A    between atoms: C_10  and  C_11
REMARK    5  A    between atoms: N_13  and  C_14
REMARK    6  A    between atoms: C_16  and  C_17
REMARK    7  A    between atoms: C_22  and  N_23
REMARK                            x       y       z     vdW  Elec       q    Type
REMARK                         _______ _______ _______ _____ _____    ______ ____
ROOT
ATOM      1  C   UNL     1       3.837   5.621  17.573  0.00  0.00    +0.000 C 
ATOM      2  O   UNL     1       3.944   4.501  18.053  0.00  0.00    +0.000 OA
ATOM      3  N   UNL     1       4.464   6.095  16.446  0.00  0.00    +0.000 N 
ATOM      4  H   UNL     1       4.641   7.078  16.467  0.00  0.00    +0.000 HD
ENDROOT
BRANCH   1   8
ATOM      5  C   UNL     1       1.542   8.666  19.561  0.00  0.00    +0.000 A 
ATOM      6  C   UNL     1       1.971   8.846  18.238  0.00  0.00    +0.000 A 
ATOM      7  C   UNL     1       2.721   7.854  17.592  0.00  0.00    +0.000 A 
ATOM      8  C   UNL     1       3.037   6.673  18.264  0.00  0.00    +0.000 A 
ATOM      9  C   UNL     1       2.609   6.487  19.587  0.00  0.00    +0.000 A 
ATOM     10  C   UNL     1       1.879   7.483  20.236  0.00  0.00    +0.000 A 
BRANCH   5  16
ATOM     11  C   UNL     1      -1.084  10.490  23.162  0.00  0.00    +0.000 C 
ATOM     12  C   UNL     1      -0.320  10.479  21.892  0.00  0.00    +0.000 A 
ATOM     13  C   UNL     1       0.072  11.580  21.112  0.00  0.00    +0.000 A 
ATOM     14  C   UNL     1       0.761  11.048  20.041  0.00  0.00    +0.000 A 
ATOM     15  C   UNL     1       1.258  11.748  18.831  0.00  0.00    +0.000 C 
ATOM     16  N   UNL     1       0.824   9.678  20.265  0.00  0.00    +0.000 N 
ATOM     17  N   UNL     1       0.061   9.326  21.338  0.00  0.00    +0.000 NA
ENDBRANCH   5  16
ENDBRANCH   1   8
BRANCH   3  18
ATOM     18  C   UNL     1       5.340   5.371  15.628  0.00  0.00    +0.000 A 
ATOM     19  C   UNL     1       4.823   4.700  14.513  0.00  0.00    +0.000 A 
ATOM     20  C   UNL     1       5.681   4.020  13.653  0.00  0.00    +0.000 A 
ATOM     21  C   UNL     1       7.048   4.006  13.917  0.00  0.00    +0.000 A 
ATOM     22  C   UNL     1       7.556   4.654  15.056  0.00  0.00    +0.000 A 
ATOM     23  C   UNL     1       6.725   5.366  15.938  0.00  0.00    +0.000 A 
BRANCH  20  24
ATOM     24  C   UNL     1       5.171   3.351  12.426  0.00  0.00    +0.000 C 
ATOM     25  N   UNL     1       5.937   2.354  11.883  0.00  0.00    +0.000 N 
ATOM     26  O   UNL     1       4.109   3.676  11.914  0.00  0.00    +0.000 OA
ATOM     27  H   UNL     1       6.902   2.205  12.143  0.00  0.00    +0.000 HD
ATOM     28  H   UNL     1       5.612   1.947  11.014  0.00  0.00    +0.000 HD
ENDBRANCH  20  24
BRANCH  23  29
ATOM     29  N   UNL     1       7.203   5.886  17.132  0.00  0.00    +0.000 N 
ATOM     30  C   UNL     1       7.809   5.008  18.130  0.00  0.00    +0.000 C 
ATOM     31  C   UNL     1       7.807   5.909  19.355  0.00  0.00    +0.000 C 
ATOM     32  C   UNL     1       8.195   7.268  18.784  0.00  0.00    +0.000 C 
ATOM     33  C   UNL     1       7.741   7.238  17.315  0.00  0.00    +0.000 C 
ENDBRANCH  23  29
ENDBRANCH   3  18
TORSDOF 5
ENDMDL
MODEL 4
REMARK VINA RESULT:      -9.0      3.145      9.954
REMARK  Name = 
REMARK  7 active torsions:
REMARK  status: ('A' for Active; 'I' for Inactive)
REMARK    1  A    between atoms: C_1  and  C_2
REMARK    2  A    between atoms: C_4  and  C_5
REMARK    3  A    between atoms: N_6  and  C_7
REMARK    4  A    between atoms: C_10  and  C_11
REMARK    5  A    between atoms: N_13  and  C_14
REMARK    6  A    between atoms: C_16  and  C_17
REMARK    7  A    between atoms: C_22  and  N_23
REMARK                            x       y       z     vdW  Elec       q    Type
REMARK                         _______ _______ _______ _____ _____    ______ ____
ROOT
ATOM      1  C   UNL     1       0.162  10.406  19.727  0.00  0.00    +0.000 C 
ATOM      2  O   UNL     1      -0.765  10.761  19.010  0.00  0.00    +0.000 OA
ATOM      3  N   UNL     1       0.560  10.993  20.904  0.00  0.00    +0.000 N 
ATOM      4  H   UNL     1       1.537  10.897  21.090  0.00  0.00    +0.000 HD
ENDROOT
BRANCH   1   8
ATOM      5  C   UNL     1       2.739   7.178  18.531  0.00  0.00    +0.000 A 
ATOM      6  C   UNL     1       2.404   8.196  17.626  0.00  0.00    +0.000 A 
ATOM      7  C   UNL     1       1.562   9.246  18.017  0.00  0.00    +0.000 A 
ATOM      8  C   UNL     1       1.059   9.288  19.317  0.00  0.00    +0.000 A 
ATOM      9  C   UNL     1       1.391   8.273  20.226  0.00  0.00    +0.000 A 
ATOM     10  C   UNL     1       2.215   7.217  19.832  0.00  0.00    +0.000 A 
BRANCH   5  16
ATOM     11  C   UNL     1       6.858   4.809  17.754  0.00  0.00    +0.000 C 
ATOM     12  C   UNL     1       5.393   5.020  17.838  0.00  0.00    +0.000 A 
ATOM     13  C   UNL     1       4.376   4.056  17.741  0.00  0.00    +0.000 A 
ATOM     14  C   UNL     1       3.193   4.750  17.890  0.00  0.00    +0.000 A 
ATOM     15  C   UNL     1       1.808   4.249  17.714  0.00  0.00    +0.000 C 
ATOM     16  N   UNL     1       3.549   6.068  18.150  0.00  0.00    +0.000 N 
ATOM     17  N   UNL     1       4.892   6.246  18.001  0.00  0.00    +0.000 NA
ENDBRANCH   5  16
ENDBRANCH   1   8
BRANCH   3  18
ATOM     18  C   UNL     1      -0.033  12.110  21.507  0.00  0.00    +0.000 A 
ATOM     19  C   UNL     1      -1.183  11.925  22.284  0.00  0.00    +0.000 A 
ATOM     20  C   UNL     1      -1.759  13.010  22.938  0.00  0.00    +0.000 A 
ATOM     21  C   UNL     1      -1.188  14.273  22.806  0.00  0.00    +0.000 A 
ATOM     22  C   UNL     1      -0.053  14.457  21.998  0.00  0.00    +0.000 A 
ATOM     23  C   UNL     1       0.567  13.384  21.335  0.00  0.00    +0.000 A 
BRANCH  20  24
ATOM     24  C   UNL     1      -2.942  12.837  23.823  0.00  0.00    +0.000 C 
ATOM     25  N   UNL     1      -3.375  13.931  24.523  0.00  0.00    +0.000 N 
ATOM     26  O   UNL     1      -3.512  11.759  23.927  0.00  0.00    +0.000 OA
ATOM     27  H   UNL     1      -2.816  14.765  24.632  0.00  0.00    +0.000 HD
ATOM     28  H   UNL     1      -4.143  13.788  25.169  0.00  0.00    +0.000 HD
ENDBRANCH  20  24
BRANCH  23  29
ATOM     29  N   UNL     1       1.600  13.584  20.430  0.00  0.00    +0.000 N 
ATOM     30  C   UNL     1       1.307  13.894  19.032  0.00  0.00    +0.000 C 
ATOM     31  C   UNL     1       2.658  13.637  18.385  0.00  0.00    +0.000 C 
ATOM     32  C   UNL     1       3.641  14.211  19.399  0.00  0.00    +0.000 C 
ATOM     33  C   UNL     1       2.925  14.121  20.757  0.00  0.00    +0.000 C 
ENDBRANCH  23  29
ENDBRANCH   3  18
TORSDOF 5
ENDMDL
MODEL 5
REMARK VINA RESULT:      -8.9      1.439      2.028
REMARK  Name = 
REMARK  7 active torsions:
REMARK  status: ('A' for Active; 'I' for Inactive)
REMARK    1  A    between atoms: C_1  and  C_2
REMARK    2  A    between atoms: C_4  and  C_5
REMARK    3  A    between atoms: N_6  and  C_7
REMARK    4  A    between atoms: C_10  and  C_11
REMARK    5  A    between atoms: N_13  and  C_14
REMARK    6  A    between atoms: C_16  and  C_17
REMARK    7  A    between atoms: C_22  and  N_23
REMARK                            x       y       z     vdW  Elec       q    Type
REMARK                         _______ _______ _______ _____ _____    ______ ____
ROOT
ATOM      1  C   UNL     1       3.201   6.581  18.933  0.00  0.00    +0.000 C 
ATOM      2  O   UNL     1       4.031   6.311  19.790  0.00  0.00    +0.000 OA
ATOM      3  N   UNL     1       3.066   5.982  17.703  0.00  0.00    +0.000 N 
ATOM      4  H   UNL     1       2.699   6.588  16.998  0.00  0.00    +0.000 HD
ENDROOT
BRANCH   1   8
ATOM      5  C   UNL     1       0.468   9.857  19.469  0.00  0.00    +0.000 A 
ATOM      6  C   UNL     1       0.760   8.991  20.532  0.00  0.00    +0.000 A 
ATOM      7  C   UNL     1       1.650   7.923  20.356  0.00  0.00    +0.000 A 
ATOM      8  C   UNL     1       2.257   7.721  19.116  0.00  0.00    +0.000 A 
ATOM      9  C   UNL     1       1.969   8.585  18.050  0.00  0.00    +0.000 A 
ATOM     10  C   UNL     1       1.069   9.638  18.221  0.00  0.00    +0.000 A 
BRANCH   5  16
ATOM     11  C   UNL     1      -1.146  14.129  20.996  0.00  0.00    +0.000 C 
ATOM     12  C   UNL     1      -1.163  12.839  20.266  0.00  0.00    +0.000 A 
ATOM     13  C   UNL     1      -2.091  12.404  19.306  0.00  0.00    +0.000 A 
ATOM     14  C   UNL     1      -1.666  11.147  18.925  0.00  0.00    +0.000 A 
ATOM     15  C   UNL     1      -2.364  10.169  18.055  0.00  0.00    +0.000 C 
ATOM     16  N   UNL     1      -0.473  10.921  19.600  0.00  0.00    +0.000 N 
ATOM     17  N   UNL     1      -0.234  11.912  20.505  0.00  0.00    +0.000 NA
ENDBRANCH   5  16
ENDBRANCH   1   8
BRANCH   3  18
ATOM     18  C   UNL     1       3.855   4.937  17.208  0.00  0.00    +0.000 A 
ATOM     19  C   UNL     1       4.744   5.202  16.159  0.00  0.00    +0.000 A 
ATOM     20  C   UNL     1       5.580   4.193  15.687  0.00  0.00    +0.000 A 
ATOM     21  C   UNL     1       5.516   2.926  16.258  0.00  0.00    +0.000 A 
ATOM     22  C   UNL     1       4.598   2.658  17.288  0.00  0.00    +0.000 A 
ATOM     23  C   UNL     1       3.751   3.653  17.804  0.00  0.00    +0.000 A 
BRANCH  20  24
ATOM     24  C   UNL     1       6.580   4.459  14.618  0.00  0.00    +0.000 C 
ATOM     25  N   UNL     1       6.496   3.713  13.472  0.00  0.00    +0.000 N 
ATOM     26  O   UNL     1       7.449   5.310  14.751  0.00  0.00    +0.000 OA
ATOM     27  H   UNL     1       5.943   2.870  13.409  0.00  0.00    +0.000 HD
ATOM     28  H   UNL     1       7.218   3.859  12.776  0.00  0.00    +0.000 HD
ENDBRANCH  20  24
BRANCH  23  29
ATOM     29  N   UNL     1       2.751   3.358  18.721  0.00  0.00    +0.000 N 
ATOM     30  C   UNL     1       1.515   2.715  18.283  0.00  0.00    +0.000 C 
ATOM     31  C   UNL     1       0.618   2.952  19.488  0.00  0.00    +0.000 C 
ATOM     32  C   UNL     1       1.557   2.722  20.668  0.00  0.00    +0.000 C 
ATOM     33  C   UNL     1       2.964   3.043  20.137  0.00  0.00    +0.000 C 
ENDBRANCH  23  29
ENDBRANCH   3  18
TORSDOF 5
ENDMDL
MODEL 6
REMARK VINA RESULT:      -8.9      2.432      3.983
REMARK  Name = 
REMARK  7 active torsions:
REMARK  status: ('A' for Active; 'I' for Inactive)
REMARK    1  A    between atoms: C_1  and  C_2
REMARK    2  A    between atoms: C_4  and  C_5
REMARK    3  A    between atoms: N_6  and  C_7
REMARK    4  A    between atoms: C_10  and  C_11
REMARK    5  A    between atoms: N_13  and  C_14
REMARK    6  A    between atoms: C_16  and  C_17
REMARK    7  A    between atoms: C_22  and  N_23
REMARK                            x       y       z     vdW  Elec       q    Type
REMARK                         _______ _______ _______ _____ _____    ______ ____
ROOT
ATOM      1  C   UNL     1       3.918   5.633  17.597  0.00  0.00    +0.000 C 
ATOM      2  O   UNL     1       4.131   4.557  18.139  0.00  0.00    +0.000 OA
ATOM      3  N   UNL     1       4.455   6.074  16.410  0.00  0.00    +0.000 N 
ATOM      4  H   UNL     1       4.561   7.066  16.361  0.00  0.00    +0.000 HD
ENDROOT
BRANCH   1   8
ATOM      5  C   UNL     1       1.482   8.612  19.514  0.00  0.00    +0.000 A 
ATOM      6  C   UNL     1       1.786   7.410  20.169  0.00  0.00    +0.000 A 
ATOM      7  C   UNL     1       2.579   6.439  19.542  0.00  0.00    +0.000 A 
ATOM      8  C   UNL     1       3.078   6.670  18.261  0.00  0.00    +0.000 A 
ATOM      9  C   UNL     1       2.778   7.871  17.601  0.00  0.00    +0.000 A 
ATOM     10  C   UNL     1       1.973   8.830  18.219  0.00  0.00    +0.000 A 
BRANCH   5  16
ATOM     11  C   UNL     1      -1.873  12.066  19.548  0.00  0.00    +0.000 C 
ATOM     12  C   UNL     1      -0.882  11.113  20.101  0.00  0.00    +0.000 A 
ATOM     13  C   UNL     1      -0.656  10.789  21.450  0.00  0.00    +0.000 A 
ATOM     14  C   UNL     1       0.357   9.853  21.440  0.00  0.00    +0.000 A 
ATOM     15  C   UNL     1       1.095   9.289  22.598  0.00  0.00    +0.000 C 
ATOM     16  N   UNL     1       0.635   9.597  20.103  0.00  0.00    +0.000 N 
ATOM     17  N   UNL     1      -0.046  10.456  19.294  0.00  0.00    +0.000 NA
ENDBRANCH   5  16
ENDBRANCH   1   8
BRANCH   3  18
ATOM     18  C   UNL     1       5.342   5.360  15.594  0.00  0.00    +0.000 A 
ATOM     19  C   UNL     1       4.835   4.679  14.481  0.00  0.00    +0.000 A 
ATOM     20  C   UNL     1       5.703   4.009  13.624  0.00  0.00    +0.000 A 
ATOM     21  C   UNL     1       7.070   4.016  13.888  0.00  0.00    +0.000 A 
ATOM     22  C   UNL     1       7.568   4.674  15.026  0.00  0.00    +0.000 A 
ATOM     23  C   UNL     1       6.726   5.376  15.905  0.00  0.00    +0.000 A 
BRANCH  20  24
ATOM     24  C   UNL     1       5.204   3.330  12.398  0.00  0.00    +0.000 C 
ATOM     25  N   UNL     1       5.967   2.319  11.878  0.00  0.00    +0.000 N 
ATOM     26  O   UNL     1       4.151   3.658  11.867  0.00  0.00    +0.000 OA
ATOM     27  H   UNL     1       6.927   2.164  12.152  0.00  0.00    +0.000 HD
ATOM     28  H   UNL     1       5.650   1.904  11.010  0.00  0.00    +0.000 HD
ENDBRANCH  20  24
BRANCH  23  29
ATOM     29  N   UNL     1       7.196   5.907  17.098  0.00  0.00    +0.000 N 
ATOM     30  C   UNL     1       7.799   5.037  18.106  0.00  0.00    +0.000 C 
ATOM     31  C   UNL     1       7.787   5.948  19.324  0.00  0.00    +0.000 C 
ATOM     32  C   UNL     1       8.176   7.304  18.745  0.00  0.00    +0.000 C 
ATOM     33  C   UNL     1       7.730   7.261  17.274  0.00  0.00    +0.000 C 
ENDBRANCH  23  29
ENDBRANCH   3  18
TORSDOF 5
ENDMDL
MODEL 7
REMARK VINA RESULT:      -8.9      3.263     10.123
REMARK  Name = 
REMARK  7 active torsions:
REMARK  status: ('A' for Active; 'I' for Inactive)
REMARK    1  A    between atoms: C_1  and  C_2
REMARK    2  A    between atoms: C_4  and  C_5
REMARK    3  A    between atoms: N_6  and  C_7
REMARK    4  A    between atoms: C_10  and  C_11
REMARK    5  A    between atoms: N_13  and  C_14
REMARK    6  A    between atoms: C_16  and  C_17
REMARK    7  A    between atoms: C_22  and  N_23
REMARK                            x       y       z     vdW  Elec       q    Type
REMARK                         _______ _______ _______ _____ _____    ______ ____
ROOT
ATOM      1  C   UNL     1      -0.100  10.770  19.871  0.00  0.00    +0.000 C 
ATOM      2  O   UNL     1      -0.953  11.246  19.133  0.00  0.00    +0.000 OA
ATOM      3  N   UNL     1       0.237  11.212  21.128  0.00  0.00    +0.000 N 
ATOM      4  H   UNL     1       1.192  11.046  21.370  0.00  0.00    +0.000 HD
ENDROOT
BRANCH   1   8
ATOM      5  C   UNL     1       2.428   7.554  18.546  0.00  0.00    +0.000 A 
ATOM      6  C   UNL     1       2.024   7.638  19.887  0.00  0.00    +0.000 A 
ATOM      7  C   UNL     1       1.202   8.688  20.318  0.00  0.00    +0.000 A 
ATOM      8  C   UNL     1       0.773   9.654  19.407  0.00  0.00    +0.000 A 
ATOM      9  C   UNL     1       1.172   9.574  18.065  0.00  0.00    +0.000 A 
ATOM     10  C   UNL     1       2.006   8.538  17.640  0.00  0.00    +0.000 A 
BRANCH   5  16
ATOM     11  C   UNL     1       6.670   5.622  17.339  0.00  0.00    +0.000 C 
ATOM     12  C   UNL     1       5.209   5.677  17.582  0.00  0.00    +0.000 A 
ATOM     13  C   UNL     1       4.297   4.608  17.605  0.00  0.00    +0.000 A 
ATOM     14  C   UNL     1       3.069   5.176  17.878  0.00  0.00    +0.000 A 
ATOM     15  C   UNL     1       1.735   4.527  17.860  0.00  0.00    +0.000 C 
ATOM     16  N   UNL     1       3.307   6.529  18.087  0.00  0.00    +0.000 N 
ATOM     17  N   UNL     1       4.599   6.846  17.790  0.00  0.00    +0.000 NA
ENDBRANCH   5  16
ENDBRANCH   1   8
BRANCH   3  18
ATOM     18  C   UNL     1      -0.348  12.291  21.803  0.00  0.00    +0.000 A 
ATOM     19  C   UNL     1      -1.522  12.073  22.534  0.00  0.00    +0.000 A 
ATOM     20  C   UNL     1      -2.090  13.116  23.259  0.00  0.00    +0.000 A 
ATOM     21  C   UNL     1      -1.489  14.372  23.242  0.00  0.00    +0.000 A 
ATOM     22  C   UNL     1      -0.330  14.592  22.479  0.00  0.00    +0.000 A 
ATOM     23  C   UNL     1       0.284  13.561  21.749  0.00  0.00    +0.000 A 
BRANCH  20  24
ATOM     24  C   UNL     1      -3.300  12.902  24.098  0.00  0.00    +0.000 C 
ATOM     25  N   UNL     1      -3.689  13.923  24.923  0.00  0.00    +0.000 N 
ATOM     26  O   UNL     1      -3.930  11.853  24.058  0.00  0.00    +0.000 OA
ATOM     27  H   UNL     1      -3.088  14.705  25.144  0.00  0.00    +0.000 HD
ATOM     28  H   UNL     1      -4.477  13.744  25.534  0.00  0.00    +0.000 HD
ENDBRANCH  20  24
BRANCH  23  29
ATOM     29  N   UNL     1       1.345  13.807  20.887  0.00  0.00    +0.000 N 
ATOM     30  C   UNL     1       1.097  14.300  19.534  0.00  0.00    +0.000 C 
ATOM     31  C   UNL     1       2.445  14.044  18.878  0.00  0.00    +0.000 C 
ATOM     32  C   UNL     1       3.439  14.432  19.968  0.00  0.00    +0.000 C 
ATOM     33  C   UNL     1       2.691  14.221  21.294  0.00  0.00    +0.000 C 
ENDBRANCH  23  29
ENDBRANCH   3  18
TORSDOF 5
ENDMDL
MODEL 8
REMARK VINA RESULT:      -8.9      1.449      1.651
REMARK  Name = 
REMARK  7 active torsions:
REMARK  status: ('A' for Active; 'I' for Inactive)
REMARK    1  A    between atoms: C_1  and  C_2
REMARK    2  A    between atoms: C_4  and  C_5
REMARK    3  A    between atoms: N_6  and  C_7
REMARK    4  A    between atoms: C_10  and  C_11
REMARK    5  A    between atoms: N_13  and  C_14
REMARK    6  A    between atoms: C_16  and  C_17
REMARK    7  A    between atoms: C_22  and  N_23
REMARK                            x       y       z     vdW  Elec       q    Type
REMARK                         _______ _______ _______ _____ _____    ______ ____
ROOT
ATOM      1  C   UNL     1       3.074   6.555  19.037  0.00  0.00    +0.000 C 
ATOM      2  O   UNL     1       3.771   6.153  19.959  0.00  0.00    +0.000 OA
ATOM      3  N   UNL     1       3.062   6.075  17.749  0.00  0.00    +0.000 N 
ATOM      4  H   UNL     1       2.825   6.765  17.065  0.00  0.00    +0.000 HD
ENDROOT
BRANCH   1   8
ATOM      5  C   UNL     1       0.523   9.981  19.534  0.00  0.00    +0.000 A 
ATOM      6  C   UNL     1       1.106   9.701  18.290  0.00  0.00    +0.000 A 
ATOM      7  C   UNL     1       1.939   8.585  18.130  0.00  0.00    +0.000 A 
ATOM      8  C   UNL     1       2.186   7.740  19.211  0.00  0.00    +0.000 A 
ATOM      9  C   UNL     1       1.604   8.014  20.458  0.00  0.00    +0.000 A 
ATOM     10  C   UNL     1       0.789   9.136  20.622  0.00  0.00    +0.000 A 
BRANCH   5  16
ATOM     11  C   UNL     1      -3.583  12.486  19.760  0.00  0.00    +0.000 C 
ATOM     12  C   UNL     1      -2.127  12.228  19.868  0.00  0.00    +0.000 A 
ATOM     13  C   UNL     1      -1.143  13.061  20.425  0.00  0.00    +0.000 A 
ATOM     14  C   UNL     1       0.044  12.370  20.291  0.00  0.00    +0.000 A 
ATOM     15  C   UNL     1       1.421  12.851  20.567  0.00  0.00    +0.000 C 
ATOM     16  N   UNL     1      -0.286  11.136  19.744  0.00  0.00    +0.000 N 
ATOM     17  N   UNL     1      -1.599  11.103  19.381  0.00  0.00    +0.000 NA
ENDBRANCH   5  16
ENDBRANCH   1   8
BRANCH   3  18
ATOM     18  C   UNL     1       3.843   5.022  17.257  0.00  0.00    +0.000 A 
ATOM     19  C   UNL     1       4.734   5.277  16.207  0.00  0.00    +0.000 A 
ATOM     20  C   UNL     1       5.562   4.261  15.738  0.00  0.00    +0.000 A 
ATOM     21  C   UNL     1       5.489   2.996  16.314  0.00  0.00    +0.000 A 
ATOM     22  C   UNL     1       4.569   2.739  17.345  0.00  0.00    +0.000 A 
ATOM     23  C   UNL     1       3.730   3.742  17.858  0.00  0.00    +0.000 A 
BRANCH  20  24
ATOM     24  C   UNL     1       6.563   4.516  14.668  0.00  0.00    +0.000 C 
ATOM     25  N   UNL     1       6.494   3.744  13.539  0.00  0.00    +0.000 N 
ATOM     26  O   UNL     1       7.421   5.380  14.786  0.00  0.00    +0.000 OA
ATOM     27  H   UNL     1       5.950   2.894  13.492  0.00  0.00    +0.000 HD
ATOM     28  H   UNL     1       7.217   3.883  12.843  0.00  0.00    +0.000 HD
ENDBRANCH  20  24
BRANCH  23  29
ATOM     29  N   UNL     1       2.729   3.458  18.777  0.00  0.00    +0.000 N 
ATOM     30  C   UNL     1       1.377   3.139  18.320  0.00  0.00    +0.000 C 
ATOM     31  C   UNL     1       0.588   3.295  19.610  0.00  0.00    +0.000 C 
ATOM     32  C   UNL     1       1.512   2.680  20.657  0.00  0.00    +0.000 C 
ATOM     33  C   UNL     1       2.932   2.844  20.092  0.00  0.00    +0.000 C 
ENDBRANCH  23  29
ENDBRANCH   3  18
TORSDOF 5
ENDMDL
MODEL 9
REMARK VINA RESULT:      -8.9      2.393      4.221
REMARK  Name = 
REMARK  7 active torsions:
REMARK  status: ('A' for Active; 'I' for Inactive)
REMARK    1  A    between atoms: C_1  and  C_2
REMARK    2  A    between atoms: C_4  and  C_5
REMARK    3  A    between atoms: N_6  and  C_7
REMARK    4  A    between atoms: C_10  and  C_11
REMARK    5  A    between atoms: N_13  and  C_14
REMARK    6  A    between atoms: C_16  and  C_17
REMARK    7  A    between atoms: C_22  and  N_23
REMARK                            x       y       z     vdW  Elec       q    Type
REMARK                         _______ _______ _______ _____ _____    ______ ____
ROOT
ATOM      1  C   UNL     1       4.018   5.494  17.675  0.00  0.00    +0.000 C 
ATOM      2  O   UNL     1       4.355   4.457  18.229  0.00  0.00    +0.000 OA
ATOM      3  N   UNL     1       4.449   5.949  16.451  0.00  0.00    +0.000 N 
ATOM      4  H   UNL     1       4.461   6.945  16.374  0.00  0.00    +0.000 HD
ENDROOT
BRANCH   1   8
ATOM      5  C   UNL     1       1.422   8.294  19.652  0.00  0.00    +0.000 A 
ATOM      6  C   UNL     1       1.744   7.070  20.258  0.00  0.00    +0.000 A 
ATOM      7  C   UNL     1       2.589   6.158  19.611  0.00  0.00    +0.000 A 
ATOM      8  C   UNL     1       3.121   6.469  18.360  0.00  0.00    +0.000 A 
ATOM      9  C   UNL     1       2.803   7.692  17.751  0.00  0.00    +0.000 A 
ATOM     10  C   UNL     1       1.947   8.592  18.387  0.00  0.00    +0.000 A 
BRANCH   5  16
ATOM     11  C   UNL     1      -0.768  10.537  23.308  0.00  0.00    +0.000 C 
ATOM     12  C   UNL     1      -0.419  10.229  21.900  0.00  0.00    +0.000 A 
ATOM     13  C   UNL     1      -0.768  10.952  20.747  0.00  0.00    +0.000 A 
ATOM     14  C   UNL     1      -0.201  10.264  19.694  0.00  0.00    +0.000 A 
ATOM     15  C   UNL     1      -0.386  10.497  18.241  0.00  0.00    +0.000 C 
ATOM     16  N   UNL     1       0.524   9.221  20.259  0.00  0.00    +0.000 N 
ATOM     17  N   UNL     1       0.289   9.139  21.599  0.00  0.00    +0.000 NA
ENDBRANCH   5  16
ENDBRANCH   1   8
BRANCH   3  18
ATOM     18  C   UNL     1       5.354   5.295  15.605  0.00  0.00    +0.000 A 
ATOM     19  C   UNL     1       4.858   4.604  14.493  0.00  0.00    +0.000 A 
ATOM     20  C   UNL     1       5.741   3.994  13.606  0.00  0.00    +0.000 A 
ATOM     21  C   UNL     1       7.111   4.071  13.840  0.00  0.00    +0.000 A 
ATOM     22  C   UNL     1       7.600   4.737  14.977  0.00  0.00    +0.000 A 
ATOM     23  C   UNL     1       6.742   5.381  15.885  0.00  0.00    +0.000 A 
BRANCH  20  24
ATOM     24  C   UNL     1       5.250   3.308  12.381  0.00  0.00    +0.000 C 
ATOM     25  N   UNL     1       6.012   2.286  11.879  0.00  0.00    +0.000 N 
ATOM     26  O   UNL     1       4.207   3.639  11.835  0.00  0.00    +0.000 OA
ATOM     27  H   UNL     1       6.967   2.126  12.166  0.00  0.00    +0.000 HD
ATOM     28  H   UNL     1       5.701   1.865  11.011  0.00  0.00    +0.000 HD
ENDBRANCH  20  24
BRANCH  23  29
ATOM     29  N   UNL     1       7.211   5.918  17.076  0.00  0.00    +0.000 N 
ATOM     30  C   UNL     1       7.831   5.057  18.081  0.00  0.00    +0.000 C 
ATOM     31  C   UNL     1       7.812   5.968  19.299  0.00  0.00    +0.000 C 
ATOM     32  C   UNL     1       8.178   7.329  18.718  0.00  0.00    +0.000 C 
ATOM     33  C   UNL     1       7.725   7.280  17.249  0.00  0.00    +0.000 C 
ENDBRANCH  23  29
ENDBRANCH   3  18
TORSDOF 5
ENDMDL
