MODEL 1
REMARK VINA RESULT:      -8.4      0.000      0.000
REMARK  Name = 
REMARK  6 active torsions:
REMARK  status: ('A' for Active; 'I' for Inactive)
REMARK    1  A    between atoms: C_2  and  C_3
REMARK    2  A    between atoms: C_3  and  C_4
REMARK    3  A    between atoms: C_7  and  N_8
REMARK    4  A    between atoms: N_8  and  S_9
REMARK    5  A    between atoms: S_9  and  C_12
REMARK    6  A    between atoms: N_21  and  C_22
REMARK                            x       y       z     vdW  Elec       q    Type
REMARK                         _______ _______ _______ _____ _____    ______ ____
ROOT
ATOM      1  C   UNL     1       1.805   8.555  19.174  0.00  0.00    +0.000 A 
ATOM      2  C   UNL     1       1.754   7.655  20.250  0.00  0.00    +0.000 A 
ATOM      3  C   UNL     1       2.271   6.363  20.116  0.00  0.00    +0.000 A 
ATOM      4  C   UNL     1       2.848   5.973  18.911  0.00  0.00    +0.000 A 
ATOM      5  C   UNL     1       2.924   6.866  17.846  0.00  0.00    +0.000 A 
ATOM      6  C   UNL     1       2.405   8.153  17.975  0.00  0.00    +0.000 A 
ENDROOT
BRANCH   4   7
ATOM      7  N   UNL     1       3.343   4.658  18.724  0.00  0.00    +0.000 N 
ATOM      8  H   UNL     1       2.950   4.088  17.977  0.00  0.00    +0.000 HD
BRANCH   7   9
ATOM      9  S   UNL     1       4.987   4.367  18.968  0.00  0.00    +0.000 S 
ATOM     10  O   UNL     1       5.491   5.520  19.688  0.00  0.00    +0.000 OA
ATOM     11  O   UNL     1       5.172   3.031  19.482  0.00  0.00    +0.000 OA
BRANCH   9  12
ATOM     12  C   UNL     1       5.652   4.440  17.318  0.00  0.00    +0.000 A 
ATOM     13  C   UNL     1       4.821   4.182  16.221  0.00  0.00    +0.000 A 
ATOM     14  C   UNL     1       5.343   4.275  14.929  0.00  0.00    +0.000 A 
ATOM     15  C   UNL     1       6.677   4.630  14.749  0.00  0.00    +0.000 A 
ATOM     16  F   UNL     1       7.171   4.723  13.507  0.00  0.00    +0.000 F 
ATOM     17  C   UNL     1       7.505   4.896  15.835  0.00  0.00    +0.000 A 
ATOM     18  C   UNL     1       6.991   4.809  17.130  0.00  0.00    +0.000 A 
ENDBRANCH   9  12
ENDBRANCH   7   9
ENDBRANCH   4   7
BRANCH   1  19
ATOM     19  C   UNL     1       1.236   9.947  19.306  0.00  0.00    +0.000 C 
BRANCH  19  21
ATOM     20  O   UNL     1      -0.776   9.857  20.561  0.00  0.00    +0.000 OA
ATOM     21  C   UNL     1      -0.273  10.080  19.459  0.00  0.00    +0.000 C 
ATOM     22  N   UNL     1      -0.984  10.435  18.330  0.00  0.00    +0.000 N 
ATOM     23  H   UNL     1      -0.507  10.404  17.434  0.00  0.00    +0.000 HD
BRANCH  22  24
ATOM     24  C   UNL     1      -2.370  10.694  18.255  0.00  0.00    +0.000 A 
ATOM     25  C   UNL     1      -3.284   9.858  17.611  0.00  0.00    +0.000 A 
ATOM     26  C   UNL     1      -4.641  10.200  17.564  0.00  0.00    +0.000 A 
ATOM     27  C   UNL     1      -5.087  11.376  18.165  0.00  0.00    +0.000 A 
ATOM     28 CL   UNL     1      -6.752  11.798  18.078  0.00  0.00    +0.000 Cl
ATOM     29  C   UNL     1      -4.195  12.206  18.833  0.00  0.00    +0.000 A 
ATOM     30  C   UNL     1      -2.850  11.854  18.880  0.00  0.00    +0.000 A 
ATOM     31  F   UNL     1      -1.990  12.662  19.519  0.00  0.00    +0.000 F 
ENDBRANCH  22  24
ENDBRANCH  19  21
ENDBRANCH   1  19
TORSDOF 6
ENDMDL
MODEL 2
REMARK VINA RESULT:      -8.4      2.423      2.885
REMARK  Name = 
REMARK  6 active torsions:
REMARK  status: ('A' for Active; 'I' for Inactive)
REMARK    1  A    between atoms: C_2  and  C_3
REMARK    2  A    between atoms: C_3  and  C_4
REMARK    3  A    between atoms: C_7  and  N_8
REMARK    4  A    between atoms: N_8  and  S_9
REMARK    5  A    between atoms: S_9  and  C_12
REMARK    6  A    between atoms: N_21  and  C_22
REMARK                            x       y       z     vdW  Elec       q    Type
REMARK                         _______ _______ _______ _____ _____    ______ ____
ROOT
ATOM      1  C   UNL     1       2.146   8.639  18.475  0.00  0.00    +0.000 A 
ATOM      2  C   UNL     1       2.864   8.043  17.426  0.00  0.00    +0.000 A 
ATOM      3  C   UNL     1       3.304   6.721  17.531  0.00  0.00    +0.000 A 
ATOM      4  C   UNL     1       3.019   5.989  18.681  0.00  0.00    +0.000 A 
ATOM      5  C   UNL     1       2.289   6.565  19.718  0.00  0.00    +0.000 A 
ATOM      6  C   UNL     1       1.853   7.884  19.617  0.00  0.00    +0.000 A 
ENDROOT
BRANCH   4   7
ATOM      7  N   UNL     1       3.487   4.661  18.843  0.00  0.00    +0.000 N 
ATOM      8  H   UNL     1       3.022   3.912  18.334  0.00  0.00    +0.000 HD
BRANCH   7   9
ATOM      9  S   UNL     1       5.146   4.401  19.012  0.00  0.00    +0.000 S 
ATOM     10  O   UNL     1       5.669   5.585  19.665  0.00  0.00    +0.000 OA
ATOM     11  O   UNL     1       5.377   3.086  19.562  0.00  0.00    +0.000 OA
BRANCH   9  12
ATOM     12  C   UNL     1       5.724   4.424  17.329  0.00  0.00    +0.000 A 
ATOM     13  C   UNL     1       4.919   3.906  16.308  0.00  0.00    +0.000 A 
ATOM     14  C   UNL     1       5.366   3.960  14.987  0.00  0.00    +0.000 A 
ATOM     15  C   UNL     1       6.601   4.534  14.700  0.00  0.00    +0.000 A 
ATOM     16  F   UNL     1       7.023   4.587  13.430  0.00  0.00    +0.000 F 
ATOM     17  C   UNL     1       7.403   5.058  15.710  0.00  0.00    +0.000 A 
ATOM     18  C   UNL     1       6.962   5.012  17.033  0.00  0.00    +0.000 A 
ENDBRANCH   9  12
ENDBRANCH   7   9
ENDBRANCH   4   7
BRANCH   1  19
ATOM     19  C   UNL     1       1.680  10.071  18.374  0.00  0.00    +0.000 C 
BRANCH  19  21
ATOM     20  O   UNL     1      -0.684  10.098  18.565  0.00  0.00    +0.000 OA
ATOM     21  C   UNL     1       0.383  10.441  19.077  0.00  0.00    +0.000 C 
ATOM     22  N   UNL     1       0.493  11.156  20.253  0.00  0.00    +0.000 N 
ATOM     23  H   UNL     1       1.397  11.556  20.487  0.00  0.00    +0.000 HD
BRANCH  22  24
ATOM     24  C   UNL     1      -0.563  11.534  21.111  0.00  0.00    +0.000 A 
ATOM     25  C   UNL     1      -1.515  12.505  20.794  0.00  0.00    +0.000 A 
ATOM     26  C   UNL     1      -2.518  12.836  21.712  0.00  0.00    +0.000 A 
ATOM     27  C   UNL     1      -2.575  12.194  22.947  0.00  0.00    +0.000 A 
ATOM     28 CL   UNL     1      -3.796  12.627  24.078  0.00  0.00    +0.000 Cl
ATOM     29  C   UNL     1      -1.651  11.206  23.270  0.00  0.00    +0.000 A 
ATOM     30  C   UNL     1      -0.662  10.880  22.347  0.00  0.00    +0.000 A 
ATOM     31  F   UNL     1       0.232   9.931  22.665  0.00  0.00    +0.000 F 
ENDBRANCH  22  24
ENDBRANCH  19  21
ENDBRANCH   1  19
TORSDOF 6
ENDMDL
MODEL 3
REMARK VINA RESULT:      -8.3      2.266      2.725
REMARK  Name = 
REMARK  6 active torsions:
REMARK  status: ('A' for Active; 'I' for Inactive)
REMARK    1  A    between atoms: C_2  and  C_3
REMARK    2  A    between atoms: C_3  and  C_4
REMARK    3  A    between atoms: C_7  and  N_8
REMARK    4  A    between atoms: N_8  and  S_9
REMARK    5  A    between atoms: S_9  and  C_12
REMARK    6  A    between atoms: N_21  and  C_22
REMARK                            x       y       z     vdW  Elec       q    Type
REMARK                         _______ _______ _______ _____ _____    ______ ____
ROOT
ATOM      1  C   UNL     1       2.042   8.686  18.562  0.00  0.00    +0.000 A 
ATOM      2  C   UNL     1       1.830   7.953  19.740  0.00  0.00    +0.000 A 
ATOM      3  C   UNL     1       2.302   6.642  19.852  0.00  0.00    +0.000 A 
ATOM      4  C   UNL     1       2.997   6.066  18.791  0.00  0.00    +0.000 A 
ATOM      5  C   UNL     1       3.232   6.794  17.628  0.00  0.00    +0.000 A 
ATOM      6  C   UNL     1       2.758   8.099  17.512  0.00  0.00    +0.000 A 
ENDROOT
BRANCH   4   7
ATOM      7  N   UNL     1       3.452   4.726  18.851  0.00  0.00    +0.000 N 
ATOM      8  H   UNL     1       2.986   4.024  18.280  0.00  0.00    +0.000 HD
BRANCH   7   9
ATOM      9  S   UNL     1       5.107   4.438  19.014  0.00  0.00    +0.000 S 
ATOM     10  O   UNL     1       5.645   5.594  19.703  0.00  0.00    +0.000 OA
ATOM     11  O   UNL     1       5.319   3.104  19.524  0.00  0.00    +0.000 OA
BRANCH   9  12
ATOM     12  C   UNL     1       5.688   4.503  17.333  0.00  0.00    +0.000 A 
ATOM     13  C   UNL     1       6.969   4.997  17.057  0.00  0.00    +0.000 A 
ATOM     14  C   UNL     1       7.429   5.012  15.739  0.00  0.00    +0.000 A 
ATOM     15  C   UNL     1       6.613   4.531  14.719  0.00  0.00    +0.000 A 
ATOM     16  F   UNL     1       7.061   4.544  13.456  0.00  0.00    +0.000 F 
ATOM     17  C   UNL     1       5.342   4.032  14.987  0.00  0.00    +0.000 A 
ATOM     18  C   UNL     1       4.875   4.009  16.303  0.00  0.00    +0.000 A 
ENDBRANCH   9  12
ENDBRANCH   7   9
ENDBRANCH   4   7
BRANCH   1  19
ATOM     19  C   UNL     1       1.522  10.097  18.428  0.00  0.00    +0.000 C 
BRANCH  19  21
ATOM     20  O   UNL     1      -0.828  10.079  18.753  0.00  0.00    +0.000 OA
ATOM     21  C   UNL     1       0.258  10.458  19.195  0.00  0.00    +0.000 C 
ATOM     22  N   UNL     1       0.418  11.205  20.344  0.00  0.00    +0.000 N 
ATOM     23  H   UNL     1       1.325  11.631  20.516  0.00  0.00    +0.000 HD
BRANCH  22  24
ATOM     24  C   UNL     1      -0.596  11.583  21.251  0.00  0.00    +0.000 A 
ATOM     25  C   UNL     1      -0.819  10.952  22.476  0.00  0.00    +0.000 A 
ATOM     26  C   UNL     1      -1.861  11.376  23.309  0.00  0.00    +0.000 A 
ATOM     27  C   UNL     1      -2.680  12.435  22.920  0.00  0.00    +0.000 A 
ATOM     28 CL   UNL     1      -3.974  12.930  23.939  0.00  0.00    +0.000 Cl
ATOM     29  C   UNL     1      -2.457  13.092  21.715  0.00  0.00    +0.000 A 
ATOM     30  C   UNL     1      -1.413  12.667  20.899  0.00  0.00    +0.000 A 
ATOM     31  F   UNL     1      -1.204  13.299  19.733  0.00  0.00    +0.000 F 
ENDBRANCH  22  24
ENDBRANCH  19  21
ENDBRANCH   1  19
TORSDOF 6
ENDMDL
MODEL 4
REMARK VINA RESULT:      -8.2      0.848      1.771
REMARK  Name = 
REMARK  6 active torsions:
REMARK  status: ('A' for Active; 'I' for Inactive)
REMARK    1  A    between atoms: C_2  and  C_3
REMARK    2  A    between atoms: C_3  and  C_4
REMARK    3  A    between atoms: C_7  and  N_8
REMARK    4  A    between atoms: N_8  and  S_9
REMARK    5  A    between atoms: S_9  and  C_12
REMARK    6  A    between atoms: N_21  and  C_22
REMARK                            x       y       z     vdW  Elec       q    Type
REMARK                         _______ _______ _______ _____ _____    ______ ____
ROOT
ATOM      1  C   UNL     1       1.866   8.652  19.113  0.00  0.00    +0.000 A 
ATOM      2  C   UNL     1       2.422   8.221  17.899  0.00  0.00    +0.000 A 
ATOM      3  C   UNL     1       2.913   6.920  17.768  0.00  0.00    +0.000 A 
ATOM      4  C   UNL     1       2.841   6.044  18.848  0.00  0.00    +0.000 A 
ATOM      5  C   UNL     1       2.271   6.455  20.050  0.00  0.00    +0.000 A 
ATOM      6  C   UNL     1       1.785   7.754  20.184  0.00  0.00    +0.000 A 
ENDROOT
BRANCH   4   7
ATOM      7  N   UNL     1       3.369   4.731  18.768  0.00  0.00    +0.000 N 
ATOM      8  H   UNL     1       2.970   4.082  18.092  0.00  0.00    +0.000 HD
BRANCH   7   9
ATOM      9  S   UNL     1       5.030   4.511  18.978  0.00  0.00    +0.000 S 
ATOM     10  O   UNL     1       5.507   5.707  19.644  0.00  0.00    +0.000 OA
ATOM     11  O   UNL     1       5.278   3.201  19.533  0.00  0.00    +0.000 OA
BRANCH   9  12
ATOM     12  C   UNL     1       5.649   4.549  17.309  0.00  0.00    +0.000 A 
ATOM     13  C   UNL     1       6.980   4.909  17.068  0.00  0.00    +0.000 A 
ATOM     14  C   UNL     1       7.466   4.902  15.760  0.00  0.00    +0.000 A 
ATOM     15  C   UNL     1       6.625   4.531  14.714  0.00  0.00    +0.000 A 
ATOM     16  F   UNL     1       7.098   4.522  13.461  0.00  0.00    +0.000 F 
ATOM     17  C   UNL     1       5.303   4.164  14.948  0.00  0.00    +0.000 A 
ATOM     18  C   UNL     1       4.810   4.164  16.254  0.00  0.00    +0.000 A 
ENDBRANCH   9  12
ENDBRANCH   7   9
ENDBRANCH   4   7
BRANCH   1  19
ATOM     19  C   UNL     1       1.346  10.062  19.266  0.00  0.00    +0.000 C 
BRANCH  19  21
ATOM     20  O   UNL     1      -0.627   9.673  20.524  0.00  0.00    +0.000 OA
ATOM     21  C   UNL     1      -0.140  10.238  19.544  0.00  0.00    +0.000 C 
ATOM     22  N   UNL     1      -0.850  11.023  18.659  0.00  0.00    +0.000 N 
ATOM     23  H   UNL     1      -0.404  11.281  17.783  0.00  0.00    +0.000 HD
BRANCH  22  24
ATOM     24  C   UNL     1      -2.210  11.390  18.762  0.00  0.00    +0.000 A 
ATOM     25  C   UNL     1      -2.699  12.310  19.691  0.00  0.00    +0.000 A 
ATOM     26  C   UNL     1      -4.067  12.602  19.742  0.00  0.00    +0.000 A 
ATOM     27  C   UNL     1      -4.948  11.978  18.860  0.00  0.00    +0.000 A 
ATOM     28 CL   UNL     1      -6.630  12.325  18.949  0.00  0.00    +0.000 Cl
ATOM     29  C   UNL     1      -4.475  11.079  17.912  0.00  0.00    +0.000 A 
ATOM     30  C   UNL     1      -3.112  10.801  17.866  0.00  0.00    +0.000 A 
ATOM     31  F   UNL     1      -2.660   9.927  16.953  0.00  0.00    +0.000 F 
ENDBRANCH  22  24
ENDBRANCH  19  21
ENDBRANCH   1  19
TORSDOF 6
ENDMDL
MODEL 5
REMARK VINA RESULT:      -8.2      2.269      2.860
REMARK  Name = 
REMARK  6 active torsions:
REMARK  status: ('A' for Active; 'I' for Inactive)
REMARK    1  A    between atoms: C_2  and  C_3
REMARK    2  A    between atoms: C_3  and  C_4
REMARK    3  A    between atoms: C_7  and  N_8
REMARK    4  A    between atoms: N_8  and  S_9
REMARK    5  A    between atoms: S_9  and  C_12
REMARK    6  A    between atoms: N_21  and  C_22
REMARK                            x       y       z     vdW  Elec       q    Type
REMARK                         _______ _______ _______ _____ _____    ______ ____
ROOT
ATOM      1  C   UNL     1       1.808   8.507  18.493  0.00  0.00    +0.000 A 
ATOM      2  C   UNL     1       2.811   8.012  17.647  0.00  0.00    +0.000 A 
ATOM      3  C   UNL     1       3.608   6.936  18.048  0.00  0.00    +0.000 A 
ATOM      4  C   UNL     1       3.396   6.347  19.292  0.00  0.00    +0.000 A 
ATOM      5  C   UNL     1       2.387   6.817  20.129  0.00  0.00    +0.000 A 
ATOM      6  C   UNL     1       1.595   7.892  19.733  0.00  0.00    +0.000 A 
ENDROOT
BRANCH   4   7
ATOM      7  N   UNL     1       4.212   5.283  19.751  0.00  0.00    +0.000 N 
ATOM      8  H   UNL     1       4.341   5.162  20.753  0.00  0.00    +0.000 HD
BRANCH   7   9
ATOM      9  S   UNL     1       4.179   3.817  18.917  0.00  0.00    +0.000 S 
ATOM     10  O   UNL     1       4.870   2.864  19.762  0.00  0.00    +0.000 OA
ATOM     11  O   UNL     1       2.838   3.557  18.447  0.00  0.00    +0.000 OA
BRANCH   9  12
ATOM     12  C   UNL     1       5.223   4.136  17.511  0.00  0.00    +0.000 A 
ATOM     13  C   UNL     1       4.702   4.025  16.217  0.00  0.00    +0.000 A 
ATOM     14  C   UNL     1       5.519   4.311  15.122  0.00  0.00    +0.000 A 
ATOM     15  C   UNL     1       6.837   4.710  15.331  0.00  0.00    +0.000 A 
ATOM     16  F   UNL     1       7.615   4.987  14.276  0.00  0.00    +0.000 F 
ATOM     17  C   UNL     1       7.358   4.829  16.615  0.00  0.00    +0.000 A 
ATOM     18  C   UNL     1       6.547   4.548  17.716  0.00  0.00    +0.000 A 
ENDBRANCH   9  12
ENDBRANCH   7   9
ENDBRANCH   4   7
BRANCH   1  19
ATOM     19  C   UNL     1       0.953   9.678  18.073  0.00  0.00    +0.000 C 
BRANCH  19  21
ATOM     20  O   UNL     1       1.402  11.653  19.309  0.00  0.00    +0.000 OA
ATOM     21  C   UNL     1       0.617  10.721  19.130  0.00  0.00    +0.000 C 
ATOM     22  N   UNL     1      -0.556  10.539  19.834  0.00  0.00    +0.000 N 
ATOM     23  H   UNL     1      -1.031   9.644  19.751  0.00  0.00    +0.000 HD
BRANCH  22  24
ATOM     24  C   UNL     1      -1.106  11.415  20.796  0.00  0.00    +0.000 A 
ATOM     25  C   UNL     1      -0.784  11.381  22.154  0.00  0.00    +0.000 A 
ATOM     26  C   UNL     1      -1.392  12.272  23.045  0.00  0.00    +0.000 A 
ATOM     27  C   UNL     1      -2.320  13.202  22.580  0.00  0.00    +0.000 A 
ATOM     28 CL   UNL     1      -3.080  14.275  23.689  0.00  0.00    +0.000 Cl
ATOM     29  C   UNL     1      -2.634  13.267  21.228  0.00  0.00    +0.000 A 
ATOM     30  C   UNL     1      -2.018  12.381  20.349  0.00  0.00    +0.000 A 
ATOM     31  F   UNL     1      -2.329  12.442  19.044  0.00  0.00    +0.000 F 
ENDBRANCH  22  24
ENDBRANCH  19  21
ENDBRANCH   1  19
TORSDOF 6
ENDMDL
MODEL 6
REMARK VINA RESULT:      -8.1      1.390      1.736
REMARK  Name = 
REMARK  6 active torsions:
REMARK  status: ('A' for Active; 'I' for Inactive)
REMARK    1  A    between atoms: C_2  and  C_3
REMARK    2  A    between atoms: C_3  and  C_4
REMARK    3  A    between atoms: C_7  and  N_8
REMARK    4  A    between atoms: N_8  and  S_9
REMARK    5  A    between atoms: S_9  and  C_12
REMARK    6  A    between atoms: N_21  and  C_22
REMARK                            x       y       z     vdW  Elec       q    Type
REMARK                         _______ _______ _______ _____ _____    ______ ____
ROOT
ATOM      1  C   UNL     1       2.005   8.731  18.716  0.00  0.00    +0.000 A 
ATOM      2  C   UNL     1       1.732   8.017  19.893  0.00  0.00    +0.000 A 
ATOM      3  C   UNL     1       2.297   6.756  20.102  0.00  0.00    +0.000 A 
ATOM      4  C   UNL     1       3.143   6.211  19.139  0.00  0.00    +0.000 A 
ATOM      5  C   UNL     1       3.437   6.922  17.979  0.00  0.00    +0.000 A 
ATOM      6  C   UNL     1       2.871   8.177  17.766  0.00  0.00    +0.000 A 
ENDROOT
BRANCH   4   7
ATOM      7  N   UNL     1       3.698   4.916  19.296  0.00  0.00    +0.000 N 
ATOM      8  H   UNL     1       3.703   4.493  20.221  0.00  0.00    +0.000 HD
BRANCH   7   9
ATOM      9  S   UNL     1       3.473   3.783  18.065  0.00  0.00    +0.000 S 
ATOM     10  O   UNL     1       3.767   2.493  18.655  0.00  0.00    +0.000 OA
ATOM     11  O   UNL     1       2.212   4.029  17.405  0.00  0.00    +0.000 OA
BRANCH   9  12
ATOM     12  C   UNL     1       4.792   4.162  16.932  0.00  0.00    +0.000 A 
ATOM     13  C   UNL     1       4.519   4.302  15.566  0.00  0.00    +0.000 A 
ATOM     14  C   UNL     1       5.554   4.633  14.690  0.00  0.00    +0.000 A 
ATOM     15  C   UNL     1       6.840   4.828  15.185  0.00  0.00    +0.000 A 
ATOM     16  F   UNL     1       7.829   5.150  14.340  0.00  0.00    +0.000 F 
ATOM     17  C   UNL     1       7.117   4.698  16.542  0.00  0.00    +0.000 A 
ATOM     18  C   UNL     1       6.087   4.371  17.426  0.00  0.00    +0.000 A 
ENDBRANCH   9  12
ENDBRANCH   7   9
ENDBRANCH   4   7
BRANCH   1  19
ATOM     19  C   UNL     1       1.387  10.088  18.477  0.00  0.00    +0.000 C 
BRANCH  19  21
ATOM     20  O   UNL     1      -0.599   9.804  19.741  0.00  0.00    +0.000 OA
ATOM     21  C   UNL     1      -0.113  10.227  18.692  0.00  0.00    +0.000 C 
ATOM     22  N   UNL     1      -0.836  10.815  17.674  0.00  0.00    +0.000 N 
ATOM     23  H   UNL     1      -0.379  10.950  16.777  0.00  0.00    +0.000 HD
BRANCH  22  24
ATOM     24  C   UNL     1      -2.215  11.119  17.688  0.00  0.00    +0.000 A 
ATOM     25  C   UNL     1      -2.858  11.770  18.742  0.00  0.00    +0.000 A 
ATOM     26  C   UNL     1      -4.235  12.015  18.685  0.00  0.00    +0.000 A 
ATOM     27  C   UNL     1      -4.971  11.614  17.572  0.00  0.00    +0.000 A 
ATOM     28 CL   UNL     1      -6.667  11.897  17.525  0.00  0.00    +0.000 Cl
ATOM     29  C   UNL     1      -4.343  10.987  16.502  0.00  0.00    +0.000 A 
ATOM     30  C   UNL     1      -2.973  10.755  16.566  0.00  0.00    +0.000 A 
ATOM     31  F   UNL     1      -2.371  10.143  15.534  0.00  0.00    +0.000 F 
ENDBRANCH  22  24
ENDBRANCH  19  21
ENDBRANCH   1  19
TORSDOF 6
ENDMDL
MODEL 7
REMARK VINA RESULT:      -8.1      1.230      2.034
REMARK  Name = 
REMARK  6 active torsions:
REMARK  status: ('A' for Active; 'I' for Inactive)
REMARK    1  A    between atoms: C_2  and  C_3
REMARK    2  A    between atoms: C_3  and  C_4
REMARK    3  A    between atoms: C_7  and  N_8
REMARK    4  A    between atoms: N_8  and  S_9
REMARK    5  A    between atoms: S_9  and  C_12
REMARK    6  A    between atoms: N_21  and  C_22
REMARK                            x       y       z     vdW  Elec       q    Type
REMARK                         _______ _______ _______ _____ _____    ______ ____
ROOT
ATOM      1  C   UNL     1       1.957   8.633  18.580  0.00  0.00    +0.000 A 
ATOM      2  C   UNL     1       2.877   8.038  17.703  0.00  0.00    +0.000 A 
ATOM      3  C   UNL     1       3.523   6.850  18.055  0.00  0.00    +0.000 A 
ATOM      4  C   UNL     1       3.243   6.249  19.279  0.00  0.00    +0.000 A 
ATOM      5  C   UNL     1       2.314   6.819  20.146  0.00  0.00    +0.000 A 
ATOM      6  C   UNL     1       1.672   8.007  19.800  0.00  0.00    +0.000 A 
ENDROOT
BRANCH   4   7
ATOM      7  N   UNL     1       3.911   5.068  19.690  0.00  0.00    +0.000 N 
ATOM      8  H   UNL     1       3.912   4.824  20.677  0.00  0.00    +0.000 HD
BRANCH   7   9
ATOM      9  S   UNL     1       3.854   3.713  18.684  0.00  0.00    +0.000 S 
ATOM     10  O   UNL     1       4.430   2.626  19.451  0.00  0.00    +0.000 OA
ATOM     11  O   UNL     1       2.537   3.597  18.103  0.00  0.00    +0.000 OA
BRANCH   9  12
ATOM     12  C   UNL     1       5.010   4.126  17.396  0.00  0.00    +0.000 A 
ATOM     13  C   UNL     1       6.320   4.493  17.727  0.00  0.00    +0.000 A 
ATOM     14  C   UNL     1       7.230   4.781  16.709  0.00  0.00    +0.000 A 
ATOM     15  C   UNL     1       6.827   4.694  15.379  0.00  0.00    +0.000 A 
ATOM     16  F   UNL     1       7.705   4.967  14.405  0.00  0.00    +0.000 F 
ATOM     17  C   UNL     1       5.528   4.322  15.044  0.00  0.00    +0.000 A 
ATOM     18  C   UNL     1       4.613   4.028  16.056  0.00  0.00    +0.000 A 
ENDBRANCH   9  12
ENDBRANCH   7   9
ENDBRANCH   4   7
BRANCH   1  19
ATOM     19  C   UNL     1       1.265   9.924  18.214  0.00  0.00    +0.000 C 
BRANCH  19  21
ATOM     20  O   UNL     1      -0.368   9.849  19.933  0.00  0.00    +0.000 OA
ATOM     21  C   UNL     1      -0.136  10.154  18.762  0.00  0.00    +0.000 C 
ATOM     22  N   UNL     1      -1.066  10.685  17.892  0.00  0.00    +0.000 N 
ATOM     23  H   UNL     1      -0.833  10.719  16.903  0.00  0.00    +0.000 HD
BRANCH  22  24
ATOM     24  C   UNL     1      -2.393  11.056  18.201  0.00  0.00    +0.000 A 
ATOM     25  C   UNL     1      -2.729  12.040  19.133  0.00  0.00    +0.000 A 
ATOM     26  C   UNL     1      -4.072  12.332  19.396  0.00  0.00    +0.000 A 
ATOM     27  C   UNL     1      -5.082  11.645  18.725  0.00  0.00    +0.000 A 
ATOM     28 CL   UNL     1      -6.729  11.994  19.076  0.00  0.00    +0.000 Cl
ATOM     29  C   UNL     1      -4.766  10.680  17.776  0.00  0.00    +0.000 A 
ATOM     30  C   UNL     1      -3.427  10.402  17.516  0.00  0.00    +0.000 A 
ATOM     31  F   UNL     1      -3.125   9.465  16.604  0.00  0.00    +0.000 F 
ENDBRANCH  22  24
ENDBRANCH  19  21
ENDBRANCH   1  19
TORSDOF 6
ENDMDL
MODEL 8
REMARK VINA RESULT:      -8.1      2.541      3.117
REMARK  Name = 
REMARK  6 active torsions:
REMARK  status: ('A' for Active; 'I' for Inactive)
REMARK    1  A    between atoms: C_2  and  C_3
REMARK    2  A    between atoms: C_3  and  C_4
REMARK    3  A    between atoms: C_7  and  N_8
REMARK    4  A    between atoms: N_8  and  S_9
REMARK    5  A    between atoms: S_9  and  C_12
REMARK    6  A    between atoms: N_21  and  C_22
REMARK                            x       y       z     vdW  Elec       q    Type
REMARK                         _______ _______ _______ _____ _____    ______ ____
ROOT
ATOM      1  C   UNL     1       1.244   9.289  18.810  0.00  0.00    +0.000 A 
ATOM      2  C   UNL     1       1.071   8.818  20.121  0.00  0.00    +0.000 A 
ATOM      3  C   UNL     1       1.733   7.664  20.551  0.00  0.00    +0.000 A 
ATOM      4  C   UNL     1       2.576   6.986  19.674  0.00  0.00    +0.000 A 
ATOM      5  C   UNL     1       2.771   7.459  18.379  0.00  0.00    +0.000 A 
ATOM      6  C   UNL     1       2.108   8.606  17.947  0.00  0.00    +0.000 A 
ENDROOT
BRANCH   4   7
ATOM      7  N   UNL     1       3.229   5.789  20.060  0.00  0.00    +0.000 N 
ATOM      8  H   UNL     1       3.322   5.578  21.051  0.00  0.00    +0.000 HD
BRANCH   7   9
ATOM      9  S   UNL     1       3.007   4.405  19.119  0.00  0.00    +0.000 S 
ATOM     10  O   UNL     1       3.193   3.282  20.016  0.00  0.00    +0.000 OA
ATOM     11  O   UNL     1       1.800   4.539  18.338  0.00  0.00    +0.000 OA
BRANCH   9  12
ATOM     12  C   UNL     1       4.405   4.444  18.019  0.00  0.00    +0.000 A 
ATOM     13  C   UNL     1       5.680   4.730  18.522  0.00  0.00    +0.000 A 
ATOM     14  C   UNL     1       6.776   4.725  17.658  0.00  0.00    +0.000 A 
ATOM     15  C   UNL     1       6.589   4.428  16.311  0.00  0.00    +0.000 A 
ATOM     16  F   UNL     1       7.645   4.420  15.486  0.00  0.00    +0.000 F 
ATOM     17  C   UNL     1       5.326   4.134  15.806  0.00  0.00    +0.000 A 
ATOM     18  C   UNL     1       4.225   4.134  16.664  0.00  0.00    +0.000 A 
ENDBRANCH   9  12
ENDBRANCH   7   9
ENDBRANCH   4   7
BRANCH   1  19
ATOM     19  C   UNL     1       0.521  10.526  18.334  0.00  0.00    +0.000 C 
BRANCH  19  21
ATOM     20  O   UNL     1      -1.809  10.495  18.780  0.00  0.00    +0.000 OA
ATOM     21  C   UNL     1      -0.717  10.960  19.107  0.00  0.00    +0.000 C 
ATOM     22  N   UNL     1      -0.526  11.867  20.129  0.00  0.00    +0.000 N 
ATOM     23  H   UNL     1       0.374  12.336  20.193  0.00  0.00    +0.000 HD
BRANCH  22  24
ATOM     24  C   UNL     1      -1.507  12.345  21.026  0.00  0.00    +0.000 A 
ATOM     25  C   UNL     1      -2.358  13.417  20.750  0.00  0.00    +0.000 A 
ATOM     26  C   UNL     1      -3.290  13.842  21.704  0.00  0.00    +0.000 A 
ATOM     27  C   UNL     1      -3.377  13.192  22.934  0.00  0.00    +0.000 A 
ATOM     28 CL   UNL     1      -4.508  13.739  24.108  0.00  0.00    +0.000 Cl
ATOM     29  C   UNL     1      -2.556  12.107  23.216  0.00  0.00    +0.000 A 
ATOM     30  C   UNL     1      -1.637  11.689  22.258  0.00  0.00    +0.000 A 
ATOM     31  F   UNL     1      -0.840  10.645  22.537  0.00  0.00    +0.000 F 
ENDBRANCH  22  24
ENDBRANCH  19  21
ENDBRANCH   1  19
TORSDOF 6
ENDMDL
MODEL 9
REMARK VINA RESULT:      -8.1      2.502      3.056
REMARK  Name = 
REMARK  6 active torsions:
REMARK  status: ('A' for Active; 'I' for Inactive)
REMARK    1  A    between atoms: C_2  and  C_3
REMARK    2  A    between atoms: C_3  and  C_4
REMARK    3  A    between atoms: C_7  and  N_8
REMARK    4  A    between atoms: N_8  and  S_9
REMARK    5  A    between atoms: S_9  and  C_12
REMARK    6  A    between atoms: N_21  and  C_22
REMARK                            x       y       z     vdW  Elec       q    Type
REMARK                         _______ _______ _______ _____ _____    ______ ____
ROOT
ATOM      1  C   UNL     1       1.634   8.964  18.671  0.00  0.00    +0.000 A 
ATOM      2  C   UNL     1       2.510   8.295  17.804  0.00  0.00    +0.000 A 
ATOM      3  C   UNL     1       3.154   7.124  18.214  0.00  0.00    +0.000 A 
ATOM      4  C   UNL     1       2.915   6.615  19.488  0.00  0.00    +0.000 A 
ATOM      5  C   UNL     1       2.030   7.261  20.347  0.00  0.00    +0.000 A 
ATOM      6  C   UNL     1       1.391   8.431  19.943  0.00  0.00    +0.000 A 
ENDROOT
BRANCH   4   7
ATOM      7  N   UNL     1       3.583   5.456  19.955  0.00  0.00    +0.000 N 
ATOM      8  H   UNL     1       3.638   5.292  20.957  0.00  0.00    +0.000 HD
BRANCH   7   9
ATOM      9  S   UNL     1       3.441   4.026  19.069  0.00  0.00    +0.000 S 
ATOM     10  O   UNL     1       3.834   2.961  19.970  0.00  0.00    +0.000 OA
ATOM     11  O   UNL     1       2.162   3.997  18.398  0.00  0.00    +0.000 OA
BRANCH   9  12
ATOM     12  C   UNL     1       4.723   4.188  17.845  0.00  0.00    +0.000 A 
ATOM     13  C   UNL     1       4.420   4.007  16.491  0.00  0.00    +0.000 A 
ATOM     14  C   UNL     1       5.425   4.171  15.536  0.00  0.00    +0.000 A 
ATOM     15  C   UNL     1       6.711   4.517  15.940  0.00  0.00    +0.000 A 
ATOM     16  F   UNL     1       7.670   4.677  15.019  0.00  0.00    +0.000 F 
ATOM     17  C   UNL     1       7.016   4.706  17.285  0.00  0.00    +0.000 A 
ATOM     18  C   UNL     1       6.017   4.548  18.247  0.00  0.00    +0.000 A 
ENDBRANCH   9  12
ENDBRANCH   7   9
ENDBRANCH   4   7
BRANCH   1  19
ATOM     19  C   UNL     1       0.946  10.238  18.241  0.00  0.00    +0.000 C 
BRANCH  19  21
ATOM     20  O   UNL     1       1.272  12.065  19.718  0.00  0.00    +0.000 OA
ATOM     21  C   UNL     1       0.490  11.195  19.332  0.00  0.00    +0.000 C 
ATOM     22  N   UNL     1      -0.785  11.012  19.829  0.00  0.00    +0.000 N 
ATOM     23  H   UNL     1      -1.274  10.154  19.588  0.00  0.00    +0.000 HD
BRANCH  22  24
ATOM     24  C   UNL     1      -1.444  11.824  20.778  0.00  0.00    +0.000 A 
ATOM     25  C   UNL     1      -2.318  12.860  20.442  0.00  0.00    +0.000 A 
ATOM     26  C   UNL     1      -2.914  13.632  21.446  0.00  0.00    +0.000 A 
ATOM     27  C   UNL     1      -2.642  13.367  22.787  0.00  0.00    +0.000 A 
ATOM     28 CL   UNL     1      -3.360  14.340  24.010  0.00  0.00    +0.000 Cl
ATOM     29  C   UNL     1      -1.795  12.323  23.140  0.00  0.00    +0.000 A 
ATOM     30  C   UNL     1      -1.212  11.557  22.134  0.00  0.00    +0.000 A 
ATOM     31  F   UNL     1      -0.389  10.554  22.479  0.00  0.00    +0.000 F 
ENDBRANCH  22  24
ENDBRANCH  19  21
ENDBRANCH   1  19
TORSDOF 6
ENDMDL
