MODEL 1
REMARK VINA RESULT:      -8.9      0.000      0.000
REMARK  Name = 
REMARK  7 active torsions:
REMARK  status: ('A' for Active; 'I' for Inactive)
REMARK    1  A    between atoms: C_2  and  C_3
REMARK    2  A    between atoms: C_3  and  N_4
REMARK    3  A    between atoms: C_5  and  C_6
REMARK    4  A    between atoms: N_16  and  C_17
REMARK    5  A    between atoms: C_22  and  C_23
REMARK    6  A    between atoms: N_25  and  C_26
REMARK    7  A    between atoms: C_26  and  C_27
REMARK                            x       y       z     vdW  Elec       q    Type
REMARK                         _______ _______ _______ _____ _____    ______ ____
ROOT
ATOM      1  O   UNL     1       1.986   4.570  21.427  0.00  0.00    +0.000 OA
ATOM      2  C   UNL     1       1.870   5.385  20.511  0.00  0.00    +0.000 C 
ATOM      3  N   UNL     1       1.912   6.729  20.791  0.00  0.00    +0.000 N 
ATOM      4  H   UNL     1       2.202   6.933  21.742  0.00  0.00    +0.000 HD
ENDROOT
BRANCH   3   5
ATOM      5  C   UNL     1       1.819   7.811  19.895  0.00  0.00    +0.000 A 
ATOM      6  C   UNL     1       2.591   7.802  18.723  0.00  0.00    +0.000 A 
ATOM      7  C   UNL     1       2.470   8.812  17.769  0.00  0.00    +0.000 A 
ATOM      8  C   UNL     1       1.549   9.834  17.961  0.00  0.00    +0.000 A 
ATOM      9  C   UNL     1       0.750   9.841  19.105  0.00  0.00    +0.000 A 
ATOM     10  C   UNL     1       0.878   8.835  20.080  0.00  0.00    +0.000 A 
BRANCH  10  11
ATOM     11  C   UNL     1       0.003   8.962  21.286  0.00  0.00    +0.000 C 
ATOM     12  O   UNL     1      -0.703   8.020  21.621  0.00  0.00    +0.000 OA
ATOM     13  N   UNL     1      -0.003  10.174  21.940  0.00  0.00    +0.000 N 
ATOM     14  H   UNL     1       0.410  10.983  21.497  0.00  0.00    +0.000 HD
BRANCH  13  15
ATOM     15  C   UNL     1      -0.871  10.410  23.078  0.00  0.00    +0.000 C 
BRANCH  15  16
ATOM     16  C   UNL     1      -1.546  11.762  23.041  0.00  0.00    +0.000 A 
ATOM     17  C   UNL     1      -0.936  12.825  22.355  0.00  0.00    +0.000 A 
ATOM     18  C   UNL     1      -1.573  14.065  22.246  0.00  0.00    +0.000 A 
ATOM     19  C   UNL     1      -2.828  14.259  22.817  0.00  0.00    +0.000 A 
ATOM     20  C   UNL     1      -3.449  13.213  23.492  0.00  0.00    +0.000 A 
ATOM     21  C   UNL     1      -2.819  11.971  23.589  0.00  0.00    +0.000 A 
ENDBRANCH  15  16
ENDBRANCH  13  15
ENDBRANCH  10  11
ENDBRANCH   3   5
BRANCH   2  22
ATOM     22  C   UNL     1       1.766   4.927  19.062  0.00  0.00    +0.000 C 
BRANCH  22  23
ATOM     23  N   UNL     1       2.371   3.649  18.726  0.00  0.00    +0.000 N 
ATOM     24  C   UNL     1       3.623   3.403  18.281  0.00  0.00    +0.000 A 
ATOM     25  N   UNL     1       3.811   2.162  17.957  0.00  0.00    +0.000 NA
ATOM     26  O   UNL     1       2.579   1.508  18.210  0.00  0.00    +0.000 OA
ATOM     27  C   UNL     1       1.715   2.471  18.670  0.00  0.00    +0.000 A 
ATOM     28  O   UNL     1       0.538   2.253  18.903  0.00  0.00    +0.000 OA
BRANCH  24  29
ATOM     29  C   UNL     1       4.687   4.447  18.176  0.00  0.00    +0.000 A 
ATOM     30  N   UNL     1       5.603   4.526  19.162  0.00  0.00    +0.000 NA
ATOM     31  C   UNL     1       6.560   5.461  19.009  0.00  0.00    +0.000 A 
ATOM     32  C   UNL     1       6.628   6.303  17.925  0.00  0.00    +0.000 A 
ATOM     33  C   UNL     1       5.643   6.143  16.982  0.00  0.00    +0.000 A 
ATOM     34  N   UNL     1       4.661   5.229  17.080  0.00  0.00    +0.000 NA
ENDBRANCH  24  29
ENDBRANCH  22  23
ENDBRANCH   2  22
TORSDOF 7
ENDMDL
MODEL 2
REMARK VINA RESULT:      -8.8      0.513      1.291
REMARK  Name = 
REMARK  7 active torsions:
REMARK  status: ('A' for Active; 'I' for Inactive)
REMARK    1  A    between atoms: C_2  and  C_3
REMARK    2  A    between atoms: C_3  and  N_4
REMARK    3  A    between atoms: C_5  and  C_6
REMARK    4  A    between atoms: N_16  and  C_17
REMARK    5  A    between atoms: C_22  and  C_23
REMARK    6  A    between atoms: N_25  and  C_26
REMARK    7  A    between atoms: C_26  and  C_27
REMARK                            x       y       z     vdW  Elec       q    Type
REMARK                         _______ _______ _______ _____ _____    ______ ____
ROOT
ATOM      1  O   UNL     1       2.076   4.606  21.400  0.00  0.00    +0.000 OA
ATOM      2  C   UNL     1       1.962   5.415  20.478  0.00  0.00    +0.000 C 
ATOM      3  N   UNL     1       2.040   6.761  20.745  0.00  0.00    +0.000 N 
ATOM      4  H   UNL     1       2.352   6.966  21.690  0.00  0.00    +0.000 HD
ENDROOT
BRANCH   3   5
ATOM      5  C   UNL     1       1.956   7.837  19.841  0.00  0.00    +0.000 A 
ATOM      6  C   UNL     1       2.419   7.670  18.528  0.00  0.00    +0.000 A 
ATOM      7  C   UNL     1       2.280   8.682  17.578  0.00  0.00    +0.000 A 
ATOM      8  C   UNL     1       1.646   9.868  17.923  0.00  0.00    +0.000 A 
ATOM      9  C   UNL     1       1.149  10.038  19.215  0.00  0.00    +0.000 A 
ATOM     10  C   UNL     1       1.300   9.030  20.185  0.00  0.00    +0.000 A 
BRANCH  10  11
ATOM     11  C   UNL     1       0.769   9.333  21.548  0.00  0.00    +0.000 C 
ATOM     12  O   UNL     1       1.318   8.851  22.531  0.00  0.00    +0.000 OA
ATOM     13  N   UNL     1      -0.364  10.111  21.629  0.00  0.00    +0.000 N 
ATOM     14  H   UNL     1      -0.908  10.288  20.797  0.00  0.00    +0.000 HD
BRANCH  13  15
ATOM     15  C   UNL     1      -0.988  10.400  22.906  0.00  0.00    +0.000 C 
BRANCH  15  16
ATOM     16  C   UNL     1      -1.544  11.803  22.993  0.00  0.00    +0.000 A 
ATOM     17  C   UNL     1      -2.849  12.007  23.469  0.00  0.00    +0.000 A 
ATOM     18  C   UNL     1      -3.360  13.298  23.626  0.00  0.00    +0.000 A 
ATOM     19  C   UNL     1      -2.574  14.404  23.314  0.00  0.00    +0.000 A 
ATOM     20  C   UNL     1      -1.274  14.220  22.852  0.00  0.00    +0.000 A 
ATOM     21  C   UNL     1      -0.759  12.930  22.707  0.00  0.00    +0.000 A 
ENDBRANCH  15  16
ENDBRANCH  13  15
ENDBRANCH  10  11
ENDBRANCH   3   5
BRANCH   2  22
ATOM     22  C   UNL     1       1.822   4.947  19.035  0.00  0.00    +0.000 C 
BRANCH  22  23
ATOM     23  N   UNL     1       2.397   3.657  18.698  0.00  0.00    +0.000 N 
ATOM     24  C   UNL     1       3.641   3.384  18.245  0.00  0.00    +0.000 A 
ATOM     25  N   UNL     1       3.801   2.139  17.923  0.00  0.00    +0.000 NA
ATOM     26  O   UNL     1       2.558   1.511  18.186  0.00  0.00    +0.000 OA
ATOM     27  C   UNL     1       1.717   2.492  18.650  0.00  0.00    +0.000 A 
ATOM     28  O   UNL     1       0.538   2.299  18.894  0.00  0.00    +0.000 OA
BRANCH  24  29
ATOM     29  C   UNL     1       4.725   4.406  18.129  0.00  0.00    +0.000 A 
ATOM     30  N   UNL     1       4.730   5.210  17.046  0.00  0.00    +0.000 NA
ATOM     31  C   UNL     1       5.707   6.136  16.999  0.00  0.00    +0.000 A 
ATOM     32  C   UNL     1       6.659   6.280  17.980  0.00  0.00    +0.000 A 
ATOM     33  C   UNL     1       6.566   5.408  19.036  0.00  0.00    +0.000 A 
ATOM     34  N   UNL     1       5.615   4.462  19.137  0.00  0.00    +0.000 NA
ENDBRANCH  24  29
ENDBRANCH  22  23
ENDBRANCH   2  22
TORSDOF 7
ENDMDL
MODEL 3
REMARK VINA RESULT:      -8.2      3.323      4.591
REMARK  Name = 
REMARK  7 active torsions:
REMARK  status: ('A' for Active; 'I' for Inactive)
REMARK    1  A    between atoms: C_2  and  C_3
REMARK    2  A    between atoms: C_3  and  N_4
REMARK    3  A    between atoms: C_5  and  C_6
REMARK    4  A    between atoms: N_16  and  C_17
REMARK    5  A    between atoms: C_22  and  C_23
REMARK    6  A    between atoms: N_25  and  C_26
REMARK    7  A    between atoms: C_26  and  C_27
REMARK                            x       y       z     vdW  Elec       q    Type
REMARK                         _______ _______ _______ _____ _____    ______ ____
ROOT
ATOM      1  O   UNL     1       5.023   7.218  15.670  0.00  0.00    +0.000 OA
ATOM      2  C   UNL     1       4.513   6.685  16.656  0.00  0.00    +0.000 C 
ATOM      3  N   UNL     1       3.571   7.371  17.385  0.00  0.00    +0.000 N 
ATOM      4  H   UNL     1       3.258   8.225  16.933  0.00  0.00    +0.000 HD
ENDROOT
BRANCH   3   5
ATOM      5  C   UNL     1       2.862   6.938  18.521  0.00  0.00    +0.000 A 
ATOM      6  C   UNL     1       3.149   5.682  19.074  0.00  0.00    +0.000 A 
ATOM      7  C   UNL     1       2.529   5.248  20.247  0.00  0.00    +0.000 A 
ATOM      8  C   UNL     1       1.631   6.083  20.900  0.00  0.00    +0.000 A 
ATOM      9  C   UNL     1       1.359   7.350  20.382  0.00  0.00    +0.000 A 
ATOM     10  C   UNL     1       1.967   7.787  19.191  0.00  0.00    +0.000 A 
BRANCH  10  11
ATOM     11  C   UNL     1       1.572   9.144  18.702  0.00  0.00    +0.000 C 
ATOM     12  O   UNL     1       1.895   9.497  17.575  0.00  0.00    +0.000 OA
ATOM     13  N   UNL     1       0.897   9.962  19.580  0.00  0.00    +0.000 N 
ATOM     14  H   UNL     1       0.859   9.720  20.560  0.00  0.00    +0.000 HD
BRANCH  13  15
ATOM     15  C   UNL     1       0.534  11.319  19.215  0.00  0.00    +0.000 C 
BRANCH  15  16
ATOM     16  C   UNL     1      -0.944  11.488  18.950  0.00  0.00    +0.000 A 
ATOM     17  C   UNL     1      -1.551  10.768  17.908  0.00  0.00    +0.000 A 
ATOM     18  C   UNL     1      -2.929  10.852  17.688  0.00  0.00    +0.000 A 
ATOM     19  C   UNL     1      -3.720  11.653  18.508  0.00  0.00    +0.000 A 
ATOM     20  C   UNL     1      -3.136  12.364  19.551  0.00  0.00    +0.000 A 
ATOM     21  C   UNL     1      -1.762  12.269  19.779  0.00  0.00    +0.000 A 
ENDBRANCH  15  16
ENDBRANCH  13  15
ENDBRANCH  10  11
ENDBRANCH   3   5
BRANCH   2  22
ATOM     22  C   UNL     1       4.846   5.247  17.032  0.00  0.00    +0.000 C 
BRANCH  22  23
ATOM     23  N   UNL     1       6.230   4.951  17.361  0.00  0.00    +0.000 N 
ATOM     24  C   UNL     1       7.224   4.554  16.534  0.00  0.00    +0.000 A 
ATOM     25  N   UNL     1       8.317   4.256  17.164  0.00  0.00    +0.000 NA
ATOM     26  O   UNL     1       8.042   4.476  18.536  0.00  0.00    +0.000 OA
ATOM     27  C   UNL     1       6.735   4.891  18.610  0.00  0.00    +0.000 A 
ATOM     28  O   UNL     1       6.157   5.087  19.666  0.00  0.00    +0.000 OA
BRANCH  24  29
ATOM     29  C   UNL     1       7.084   4.470  15.049  0.00  0.00    +0.000 A 
ATOM     30  N   UNL     1       6.194   3.593  14.541  0.00  0.00    +0.000 NA
ATOM     31  C   UNL     1       6.080   3.574  13.200  0.00  0.00    +0.000 A 
ATOM     32  C   UNL     1       6.813   4.386  12.367  0.00  0.00    +0.000 A 
ATOM     33  C   UNL     1       7.694   5.238  12.986  0.00  0.00    +0.000 A 
ATOM     34  N   UNL     1       7.853   5.301  14.321  0.00  0.00    +0.000 NA
ENDBRANCH  24  29
ENDBRANCH  22  23
ENDBRANCH   2  22
TORSDOF 7
ENDMDL
MODEL 4
REMARK VINA RESULT:      -8.2      2.838      4.536
REMARK  Name = 
REMARK  7 active torsions:
REMARK  status: ('A' for Active; 'I' for Inactive)
REMARK    1  A    between atoms: C_2  and  C_3
REMARK    2  A    between atoms: C_3  and  N_4
REMARK    3  A    between atoms: C_5  and  C_6
REMARK    4  A    between atoms: N_16  and  C_17
REMARK    5  A    between atoms: C_22  and  C_23
REMARK    6  A    between atoms: N_25  and  C_26
REMARK    7  A    between atoms: C_26  and  C_27
REMARK                            x       y       z     vdW  Elec       q    Type
REMARK                         _______ _______ _______ _____ _____    ______ ____
ROOT
ATOM      1  O   UNL     1       4.389   6.726  16.188  0.00  0.00    +0.000 OA
ATOM      2  C   UNL     1       3.935   5.862  16.939  0.00  0.00    +0.000 C 
ATOM      3  N   UNL     1       2.706   6.051  17.523  0.00  0.00    +0.000 N 
ATOM      4  H   UNL     1       2.198   6.844  17.143  0.00  0.00    +0.000 HD
ENDROOT
BRANCH   3   5
ATOM      5  C   UNL     1       2.008   5.186  18.387  0.00  0.00    +0.000 A 
ATOM      6  C   UNL     1       1.703   3.885  17.960  0.00  0.00    +0.000 A 
ATOM      7  C   UNL     1       1.086   2.970  18.813  0.00  0.00    +0.000 A 
ATOM      8  C   UNL     1       0.791   3.336  20.120  0.00  0.00    +0.000 A 
ATOM      9  C   UNL     1       1.117   4.616  20.571  0.00  0.00    +0.000 A 
ATOM     10  C   UNL     1       1.724   5.551  19.713  0.00  0.00    +0.000 A 
BRANCH  10  11
ATOM     11  C   UNL     1       1.991   6.905  20.286  0.00  0.00    +0.000 C 
ATOM     12  O   UNL     1       2.957   7.547  19.894  0.00  0.00    +0.000 OA
ATOM     13  N   UNL     1       1.151   7.348  21.284  0.00  0.00    +0.000 N 
ATOM     14  H   UNL     1       0.521   6.698  21.731  0.00  0.00    +0.000 HD
BRANCH  13  15
ATOM     15  C   UNL     1       1.374   8.620  21.945  0.00  0.00    +0.000 C 
BRANCH  15  16
ATOM     16  C   UNL     1       0.443   9.710  21.467  0.00  0.00    +0.000 A 
ATOM     17  C   UNL     1       0.174   9.843  20.095  0.00  0.00    +0.000 A 
ATOM     18  C   UNL     1      -0.738  10.797  19.635  0.00  0.00    +0.000 A 
ATOM     19  C   UNL     1      -1.396  11.628  20.537  0.00  0.00    +0.000 A 
ATOM     20  C   UNL     1      -1.149  11.502  21.900  0.00  0.00    +0.000 A 
ATOM     21  C   UNL     1      -0.247  10.540  22.362  0.00  0.00    +0.000 A 
ENDBRANCH  15  16
ENDBRANCH  13  15
ENDBRANCH  10  11
ENDBRANCH   3   5
BRANCH   2  22
ATOM     22  C   UNL     1       4.675   4.550  17.165  0.00  0.00    +0.000 C 
BRANCH  22  23
ATOM     23  N   UNL     1       6.084   4.635  17.510  0.00  0.00    +0.000 N 
ATOM     24  C   UNL     1       7.156   4.553  16.691  0.00  0.00    +0.000 A 
ATOM     25  N   UNL     1       8.283   4.545  17.330  0.00  0.00    +0.000 NA
ATOM     26  O   UNL     1       7.946   4.636  18.704  0.00  0.00    +0.000 OA
ATOM     27  C   UNL     1       6.575   4.674  18.766  0.00  0.00    +0.000 A 
ATOM     28  O   UNL     1       5.955   4.669  19.816  0.00  0.00    +0.000 OA
BRANCH  24  29
ATOM     29  C   UNL     1       7.059   4.482  15.201  0.00  0.00    +0.000 A 
ATOM     30  N   UNL     1       6.192   3.603  14.660  0.00  0.00    +0.000 NA
ATOM     31  C   UNL     1       6.116   3.597  13.315  0.00  0.00    +0.000 A 
ATOM     32  C   UNL     1       6.864   4.424  12.512  0.00  0.00    +0.000 A 
ATOM     33  C   UNL     1       7.720   5.277  13.164  0.00  0.00    +0.000 A 
ATOM     34  N   UNL     1       7.841   5.327  14.503  0.00  0.00    +0.000 NA
ENDBRANCH  24  29
ENDBRANCH  22  23
ENDBRANCH   2  22
TORSDOF 7
ENDMDL
MODEL 5
REMARK VINA RESULT:      -8.0      2.805      4.769
REMARK  Name = 
REMARK  7 active torsions:
REMARK  status: ('A' for Active; 'I' for Inactive)
REMARK    1  A    between atoms: C_2  and  C_3
REMARK    2  A    between atoms: C_3  and  N_4
REMARK    3  A    between atoms: C_5  and  C_6
REMARK    4  A    between atoms: N_16  and  C_17
REMARK    5  A    between atoms: C_22  and  C_23
REMARK    6  A    between atoms: N_25  and  C_26
REMARK    7  A    between atoms: C_26  and  C_27
REMARK                            x       y       z     vdW  Elec       q    Type
REMARK                         _______ _______ _______ _____ _____    ______ ____
ROOT
ATOM      1  O   UNL     1       4.289   7.172  16.846  0.00  0.00    +0.000 OA
ATOM      2  C   UNL     1       3.865   6.079  17.220  0.00  0.00    +0.000 C 
ATOM      3  N   UNL     1       2.672   6.012  17.899  0.00  0.00    +0.000 N 
ATOM      4  H   UNL     1       2.156   6.887  17.892  0.00  0.00    +0.000 HD
ENDROOT
BRANCH   3   5
ATOM      5  C   UNL     1       2.010   4.871  18.390  0.00  0.00    +0.000 A 
ATOM      6  C   UNL     1       1.795   3.779  17.536  0.00  0.00    +0.000 A 
ATOM      7  C   UNL     1       1.217   2.598  18.003  0.00  0.00    +0.000 A 
ATOM      8  C   UNL     1       0.871   2.483  19.343  0.00  0.00    +0.000 A 
ATOM      9  C   UNL     1       1.108   3.548  20.214  0.00  0.00    +0.000 A 
ATOM     10  C   UNL     1       1.675   4.748  19.748  0.00  0.00    +0.000 A 
BRANCH  10  11
ATOM     11  C   UNL     1       1.846   5.838  20.756  0.00  0.00    +0.000 C 
ATOM     12  O   UNL     1       2.552   5.648  21.737  0.00  0.00    +0.000 OA
ATOM     13  N   UNL     1       1.144   7.006  20.552  0.00  0.00    +0.000 N 
ATOM     14  H   UNL     1       0.404   7.030  19.866  0.00  0.00    +0.000 HD
BRANCH  13  15
ATOM     15  C   UNL     1       1.196   8.092  21.513  0.00  0.00    +0.000 C 
BRANCH  15  16
ATOM     16  C   UNL     1       0.454   9.326  21.056  0.00  0.00    +0.000 A 
ATOM     17  C   UNL     1      -0.198  10.136  22.000  0.00  0.00    +0.000 A 
ATOM     18  C   UNL     1      -0.831  11.320  21.613  0.00  0.00    +0.000 A 
ATOM     19  C   UNL     1      -0.817  11.715  20.277  0.00  0.00    +0.000 A 
ATOM     20  C   UNL     1      -0.166  10.930  19.331  0.00  0.00    +0.000 A 
ATOM     21  C   UNL     1       0.477   9.753  19.721  0.00  0.00    +0.000 A 
ENDBRANCH  15  16
ENDBRANCH  13  15
ENDBRANCH  10  11
ENDBRANCH   3   5
BRANCH   2  22
ATOM     22  C   UNL     1       4.596   4.790  16.867  0.00  0.00    +0.000 C 
BRANCH  22  23
ATOM     23  N   UNL     1       5.992   4.692  17.257  0.00  0.00    +0.000 N 
ATOM     24  C   UNL     1       7.074   4.512  16.468  0.00  0.00    +0.000 A 
ATOM     25  N   UNL     1       8.170   4.345  17.140  0.00  0.00    +0.000 NA
ATOM     26  O   UNL     1       7.798   4.426  18.506  0.00  0.00    +0.000 OA
ATOM     27  C   UNL     1       6.440   4.626  18.528  0.00  0.00    +0.000 A 
ATOM     28  O   UNL     1       5.788   4.658  19.558  0.00  0.00    +0.000 OA
BRANCH  24  29
ATOM     29  C   UNL     1       7.021   4.508  14.975  0.00  0.00    +0.000 A 
ATOM     30  N   UNL     1       7.805   5.378  14.307  0.00  0.00    +0.000 NA
ATOM     31  C   UNL     1       7.747   5.317  12.962  0.00  0.00    +0.000 A 
ATOM     32  C   UNL     1       6.946   4.433  12.280  0.00  0.00    +0.000 A 
ATOM     33  C   UNL     1       6.184   3.595  13.056  0.00  0.00    +0.000 A 
ATOM     34  N   UNL     1       6.198   3.611  14.401  0.00  0.00    +0.000 NA
ENDBRANCH  24  29
ENDBRANCH  22  23
ENDBRANCH   2  22
TORSDOF 7
ENDMDL
MODEL 6
REMARK VINA RESULT:      -8.0      3.452      4.926
REMARK  Name = 
REMARK  7 active torsions:
REMARK  status: ('A' for Active; 'I' for Inactive)
REMARK    1  A    between atoms: C_2  and  C_3
REMARK    2  A    between atoms: C_3  and  N_4
REMARK    3  A    between atoms: C_5  and  C_6
REMARK    4  A    between atoms: N_16  and  C_17
REMARK    5  A    between atoms: C_22  and  C_23
REMARK    6  A    between atoms: N_25  and  C_26
REMARK    7  A    between atoms: C_26  and  C_27
REMARK                            x       y       z     vdW  Elec       q    Type
REMARK                         _______ _______ _______ _____ _____    ______ ____
ROOT
ATOM      1  O   UNL     1       5.015   7.160  15.595  0.00  0.00    +0.000 OA
ATOM      2  C   UNL     1       4.491   6.720  16.619  0.00  0.00    +0.000 C 
ATOM      3  N   UNL     1       3.563   7.482  17.286  0.00  0.00    +0.000 N 
ATOM      4  H   UNL     1       3.270   8.304  16.766  0.00  0.00    +0.000 HD
ENDROOT
BRANCH   3   5
ATOM      5  C   UNL     1       2.841   7.158  18.450  0.00  0.00    +0.000 A 
ATOM      6  C   UNL     1       3.080   5.933  19.089  0.00  0.00    +0.000 A 
ATOM      7  C   UNL     1       2.448   5.607  20.289  0.00  0.00    +0.000 A 
ATOM      8  C   UNL     1       1.586   6.520  20.884  0.00  0.00    +0.000 A 
ATOM      9  C   UNL     1       1.362   7.757  20.279  0.00  0.00    +0.000 A 
ATOM     10  C   UNL     1       1.983   8.087  19.060  0.00  0.00    +0.000 A 
BRANCH  10  11
ATOM     11  C   UNL     1       1.640   9.420  18.478  0.00  0.00    +0.000 C 
ATOM     12  O   UNL     1       2.079   9.730  17.379  0.00  0.00    +0.000 OA
ATOM     13  N   UNL     1       0.876  10.270  19.247  0.00  0.00    +0.000 N 
ATOM     14  H   UNL     1       0.736  10.067  20.227  0.00  0.00    +0.000 HD
BRANCH  13  15
ATOM     15  C   UNL     1       0.552  11.609  18.792  0.00  0.00    +0.000 C 
BRANCH  15  16
ATOM     16  C   UNL     1       1.606  12.630  19.151  0.00  0.00    +0.000 A 
ATOM     17  C   UNL     1       1.848  12.937  20.500  0.00  0.00    +0.000 A 
ATOM     18  C   UNL     1       2.866  13.824  20.860  0.00  0.00    +0.000 A 
ATOM     19  C   UNL     1       3.659  14.415  19.880  0.00  0.00    +0.000 A 
ATOM     20  C   UNL     1       3.439  14.113  18.539  0.00  0.00    +0.000 A 
ATOM     21  C   UNL     1       2.431  13.217  18.180  0.00  0.00    +0.000 A 
ENDBRANCH  15  16
ENDBRANCH  13  15
ENDBRANCH  10  11
ENDBRANCH   3   5
BRANCH   2  22
ATOM     22  C   UNL     1       4.791   5.309  17.110  0.00  0.00    +0.000 C 
BRANCH  22  23
ATOM     23  N   UNL     1       6.171   5.003  17.445  0.00  0.00    +0.000 N 
ATOM     24  C   UNL     1       7.162   4.588  16.626  0.00  0.00    +0.000 A 
ATOM     25  N   UNL     1       8.251   4.285  17.260  0.00  0.00    +0.000 NA
ATOM     26  O   UNL     1       7.975   4.522  18.630  0.00  0.00    +0.000 OA
ATOM     27  C   UNL     1       6.672   4.950  18.697  0.00  0.00    +0.000 A 
ATOM     28  O   UNL     1       6.093   5.163  19.749  0.00  0.00    +0.000 OA
BRANCH  24  29
ATOM     29  C   UNL     1       7.025   4.490  15.141  0.00  0.00    +0.000 A 
ATOM     30  N   UNL     1       6.124   3.621  14.640  0.00  0.00    +0.000 NA
ATOM     31  C   UNL     1       6.014   3.589  13.298  0.00  0.00    +0.000 A 
ATOM     32  C   UNL     1       6.760   4.382  12.459  0.00  0.00    +0.000 A 
ATOM     33  C   UNL     1       7.651   5.228  13.072  0.00  0.00    +0.000 A 
ATOM     34  N   UNL     1       7.808   5.302  14.406  0.00  0.00    +0.000 NA
ENDBRANCH  24  29
ENDBRANCH  22  23
ENDBRANCH   2  22
TORSDOF 7
ENDMDL
MODEL 7
REMARK VINA RESULT:      -8.0      3.513      9.795
REMARK  Name = 
REMARK  7 active torsions:
REMARK  status: ('A' for Active; 'I' for Inactive)
REMARK    1  A    between atoms: C_2  and  C_3
REMARK    2  A    between atoms: C_3  and  N_4
REMARK    3  A    between atoms: C_5  and  C_6
REMARK    4  A    between atoms: N_16  and  C_17
REMARK    5  A    between atoms: C_22  and  C_23
REMARK    6  A    between atoms: N_25  and  C_26
REMARK    7  A    between atoms: C_26  and  C_27
REMARK                            x       y       z     vdW  Elec       q    Type
REMARK                         _______ _______ _______ _____ _____    ______ ____
ROOT
ATOM      1  O   UNL     1      -1.114  12.758  17.773  0.00  0.00    +0.000 OA
ATOM      2  C   UNL     1      -1.173  11.905  18.659  0.00  0.00    +0.000 C 
ATOM      3  N   UNL     1      -0.106  11.736  19.508  0.00  0.00    +0.000 N 
ATOM      4  H   UNL     1       0.596  12.465  19.421  0.00  0.00    +0.000 HD
ENDROOT
BRANCH   3   5
ATOM      5  C   UNL     1       0.019  10.840  20.587  0.00  0.00    +0.000 A 
ATOM      6  C   UNL     1      -0.691  11.086  21.771  0.00  0.00    +0.000 A 
ATOM      7  C   UNL     1      -0.662  10.182  22.833  0.00  0.00    +0.000 A 
ATOM      8  C   UNL     1       0.059   9.000  22.712  0.00  0.00    +0.000 A 
ATOM      9  C   UNL     1       0.744   8.725  21.529  0.00  0.00    +0.000 A 
ATOM     10  C   UNL     1       0.733   9.638  20.459  0.00  0.00    +0.000 A 
BRANCH  10  11
ATOM     11  C   UNL     1       1.535   9.262  19.255  0.00  0.00    +0.000 C 
ATOM     12  O   UNL     1       1.687  10.076  18.353  0.00  0.00    +0.000 OA
ATOM     13  N   UNL     1       2.027   7.977  19.197  0.00  0.00    +0.000 N 
ATOM     14  H   UNL     1       1.684   7.282  19.844  0.00  0.00    +0.000 HD
BRANCH  13  15
ATOM     15  C   UNL     1       2.758   7.504  18.037  0.00  0.00    +0.000 C 
BRANCH  15  16
ATOM     16  C   UNL     1       2.884   5.999  17.987  0.00  0.00    +0.000 A 
ATOM     17  C   UNL     1       1.727   5.203  18.000  0.00  0.00    +0.000 A 
ATOM     18  C   UNL     1       1.814   3.813  17.883  0.00  0.00    +0.000 A 
ATOM     19  C   UNL     1       3.056   3.199  17.746  0.00  0.00    +0.000 A 
ATOM     20  C   UNL     1       4.211   3.974  17.720  0.00  0.00    +0.000 A 
ATOM     21  C   UNL     1       4.124   5.364  17.824  0.00  0.00    +0.000 A 
ENDBRANCH  15  16
ENDBRANCH  13  15
ENDBRANCH  10  11
ENDBRANCH   3   5
BRANCH   2  22
ATOM     22  C   UNL     1      -2.441  11.092  18.883  0.00  0.00    +0.000 C 
BRANCH  22  23
ATOM     23  N   UNL     1      -3.709  11.766  18.662  0.00  0.00    +0.000 N 
ATOM     24  C   UNL     1      -4.403  12.552  19.515  0.00  0.00    +0.000 A 
ATOM     25  N   UNL     1      -5.561  12.903  19.052  0.00  0.00    +0.000 NA
ATOM     26  O   UNL     1      -5.659  12.308  17.770  0.00  0.00    +0.000 OA
ATOM     27  C   UNL     1      -4.496  11.603  17.578  0.00  0.00    +0.000 A 
ATOM     28  O   UNL     1      -4.295  10.903  16.600  0.00  0.00    +0.000 OA
BRANCH  24  29
ATOM     29  C   UNL     1      -3.891  12.978  20.853  0.00  0.00    +0.000 A 
ATOM     30  N   UNL     1      -4.306  12.298  21.940  0.00  0.00    +0.000 NA
ATOM     31  C   UNL     1      -3.795  12.697  23.121  0.00  0.00    +0.000 A 
ATOM     32  C   UNL     1      -2.902  13.735  23.245  0.00  0.00    +0.000 A 
ATOM     33  C   UNL     1      -2.550  14.364  22.077  0.00  0.00    +0.000 A 
ATOM     34  N   UNL     1      -3.028  14.011  20.870  0.00  0.00    +0.000 NA
ENDBRANCH  24  29
ENDBRANCH  22  23
ENDBRANCH   2  22
TORSDOF 7
ENDMDL
MODEL 8
REMARK VINA RESULT:      -8.0      3.026      5.042
REMARK  Name = 
REMARK  7 active torsions:
REMARK  status: ('A' for Active; 'I' for Inactive)
REMARK    1  A    between atoms: C_2  and  C_3
REMARK    2  A    between atoms: C_3  and  N_4
REMARK    3  A    between atoms: C_5  and  C_6
REMARK    4  A    between atoms: N_16  and  C_17
REMARK    5  A    between atoms: C_22  and  C_23
REMARK    6  A    between atoms: N_25  and  C_26
REMARK    7  A    between atoms: C_26  and  C_27
REMARK                            x       y       z     vdW  Elec       q    Type
REMARK                         _______ _______ _______ _____ _____    ______ ____
ROOT
ATOM      1  O   UNL     1       5.134   6.975  14.943  0.00  0.00    +0.000 OA
ATOM      2  C   UNL     1       5.060   6.622  16.120  0.00  0.00    +0.000 C 
ATOM      3  N   UNL     1       3.994   5.858  16.531  0.00  0.00    +0.000 N 
ATOM      4  H   UNL     1       3.428   5.511  15.763  0.00  0.00    +0.000 HD
ENDROOT
BRANCH   3   5
ATOM      5  C   UNL     1       3.735   5.339  17.814  0.00  0.00    +0.000 A 
ATOM      6  C   UNL     1       4.193   4.054  18.142  0.00  0.00    +0.000 A 
ATOM      7  C   UNL     1       4.031   3.535  19.427  0.00  0.00    +0.000 A 
ATOM      8  C   UNL     1       3.432   4.309  20.413  0.00  0.00    +0.000 A 
ATOM      9  C   UNL     1       3.001   5.601  20.112  0.00  0.00    +0.000 A 
ATOM     10  C   UNL     1       3.145   6.127  18.815  0.00  0.00    +0.000 A 
BRANCH  10  11
ATOM     11  C   UNL     1       2.611   7.505  18.592  0.00  0.00    +0.000 C 
ATOM     12  O   UNL     1       3.049   8.181  17.671  0.00  0.00    +0.000 OA
ATOM     13  N   UNL     1       1.671   7.972  19.485  0.00  0.00    +0.000 N 
ATOM     14  H   UNL     1       1.515   7.477  20.351  0.00  0.00    +0.000 HD
BRANCH  13  15
ATOM     15  C   UNL     1       1.147   9.322  19.386  0.00  0.00    +0.000 C 
BRANCH  15  16
ATOM     16  C   UNL     1       0.408   9.765  20.627  0.00  0.00    +0.000 A 
ATOM     17  C   UNL     1       0.115   8.830  21.633  0.00  0.00    +0.000 A 
ATOM     18  C   UNL     1      -0.504   9.227  22.821  0.00  0.00    +0.000 A 
ATOM     19  C   UNL     1      -0.836  10.565  23.023  0.00  0.00    +0.000 A 
ATOM     20  C   UNL     1      -0.543  11.505  22.041  0.00  0.00    +0.000 A 
ATOM     21  C   UNL     1       0.087  11.110  20.859  0.00  0.00    +0.000 A 
ENDBRANCH  15  16
ENDBRANCH  13  15
ENDBRANCH  10  11
ENDBRANCH   3   5
BRANCH   2  22
ATOM     22  C   UNL     1       6.172   6.945  17.108  0.00  0.00    +0.000 C 
BRANCH  22  23
ATOM     23  N   UNL     1       7.048   5.855  17.501  0.00  0.00    +0.000 N 
ATOM     24  C   UNL     1       7.456   4.798  16.764  0.00  0.00    +0.000 A 
ATOM     25  N   UNL     1       8.141   3.936  17.448  0.00  0.00    +0.000 NA
ATOM     26  O   UNL     1       8.208   4.458  18.764  0.00  0.00    +0.000 OA
ATOM     27  C   UNL     1       7.506   5.638  18.752  0.00  0.00    +0.000 A 
ATOM     28  O   UNL     1       7.300   6.302  19.754  0.00  0.00    +0.000 OA
BRANCH  24  29
ATOM     29  C   UNL     1       7.156   4.635  15.309  0.00  0.00    +0.000 A 
ATOM     30  N   UNL     1       6.152   3.809  14.953  0.00  0.00    +0.000 NA
ATOM     31  C   UNL     1       5.897   3.718  13.634  0.00  0.00    +0.000 A 
ATOM     32  C   UNL     1       6.601   4.412  12.679  0.00  0.00    +0.000 A 
ATOM     33  C   UNL     1       7.607   5.221  13.148  0.00  0.00    +0.000 A 
ATOM     34  N   UNL     1       7.909   5.351  14.452  0.00  0.00    +0.000 NA
ENDBRANCH  24  29
ENDBRANCH  22  23
ENDBRANCH   2  22
TORSDOF 7
ENDMDL
MODEL 9
REMARK VINA RESULT:      -8.0      2.959      4.162
REMARK  Name = 
REMARK  7 active torsions:
REMARK  status: ('A' for Active; 'I' for Inactive)
REMARK    1  A    between atoms: C_2  and  C_3
REMARK    2  A    between atoms: C_3  and  N_4
REMARK    3  A    between atoms: C_5  and  C_6
REMARK    4  A    between atoms: N_16  and  C_17
REMARK    5  A    between atoms: C_22  and  C_23
REMARK    6  A    between atoms: N_25  and  C_26
REMARK    7  A    between atoms: C_26  and  C_27
REMARK                            x       y       z     vdW  Elec       q    Type
REMARK                         _______ _______ _______ _____ _____    ______ ____
ROOT
ATOM      1  O   UNL     1       4.968   7.327  15.843  0.00  0.00    +0.000 OA
ATOM      2  C   UNL     1       4.453   6.722  16.784  0.00  0.00    +0.000 C 
ATOM      3  N   UNL     1       3.491   7.343  17.543  0.00  0.00    +0.000 N 
ATOM      4  H   UNL     1       3.170   8.221  17.146  0.00  0.00    +0.000 HD
ENDROOT
BRANCH   3   5
ATOM      5  C   UNL     1       2.773   6.825  18.638  0.00  0.00    +0.000 A 
ATOM      6  C   UNL     1       2.956   5.484  19.008  0.00  0.00    +0.000 A 
ATOM      7  C   UNL     1       2.329   4.952  20.135  0.00  0.00    +0.000 A 
ATOM      8  C   UNL     1       1.528   5.767  20.926  0.00  0.00    +0.000 A 
ATOM      9  C   UNL     1       1.361   7.111  20.591  0.00  0.00    +0.000 A 
ATOM     10  C   UNL     1       1.977   7.651  19.447  0.00  0.00    +0.000 A 
BRANCH  10  11
ATOM     11  C   UNL     1       1.697   9.090  19.157  0.00  0.00    +0.000 C 
ATOM     12  O   UNL     1       2.047   9.570  18.087  0.00  0.00    +0.000 OA
ATOM     13  N   UNL     1       1.095   9.831  20.150  0.00  0.00    +0.000 N 
ATOM     14  H   UNL     1       1.039   9.458  21.087  0.00  0.00    +0.000 HD
BRANCH  13  15
ATOM     15  C   UNL     1       0.847  11.251  19.983  0.00  0.00    +0.000 C 
BRANCH  15  16
ATOM     16  C   UNL     1       0.089  11.862  21.139  0.00  0.00    +0.000 A 
ATOM     17  C   UNL     1       0.009  13.259  21.257  0.00  0.00    +0.000 A 
ATOM     18  C   UNL     1      -0.745  13.849  22.276  0.00  0.00    +0.000 A 
ATOM     19  C   UNL     1      -1.432  13.052  23.188  0.00  0.00    +0.000 A 
ATOM     20  C   UNL     1      -1.372  11.666  23.078  0.00  0.00    +0.000 A 
ATOM     21  C   UNL     1      -0.629  11.077  22.053  0.00  0.00    +0.000 A 
ENDBRANCH  15  16
ENDBRANCH  13  15
ENDBRANCH  10  11
ENDBRANCH   3   5
BRANCH   2  22
ATOM     22  C   UNL     1       4.804   5.267  17.067  0.00  0.00    +0.000 C 
BRANCH  22  23
ATOM     23  N   UNL     1       6.185   4.972  17.408  0.00  0.00    +0.000 N 
ATOM     24  C   UNL     1       7.185   4.573  16.591  0.00  0.00    +0.000 A 
ATOM     25  N   UNL     1       8.273   4.276  17.230  0.00  0.00    +0.000 NA
ATOM     26  O   UNL     1       7.987   4.499  18.600  0.00  0.00    +0.000 OA
ATOM     27  C   UNL     1       6.680   4.915  18.662  0.00  0.00    +0.000 A 
ATOM     28  O   UNL     1       6.092   5.114  19.713  0.00  0.00    +0.000 OA
BRANCH  24  29
ATOM     29  C   UNL     1       7.057   4.485  15.105  0.00  0.00    +0.000 A 
ATOM     30  N   UNL     1       6.195   3.584  14.592  0.00  0.00    +0.000 NA
ATOM     31  C   UNL     1       6.091   3.562  13.249  0.00  0.00    +0.000 A 
ATOM     32  C   UNL     1       6.807   4.394  12.421  0.00  0.00    +0.000 A 
ATOM     33  C   UNL     1       7.660   5.269  13.047  0.00  0.00    +0.000 A 
ATOM     34  N   UNL     1       7.808   5.336  14.382  0.00  0.00    +0.000 NA
ENDBRANCH  24  29
ENDBRANCH  22  23
ENDBRANCH   2  22
TORSDOF 7
ENDMDL
