MODEL 1
REMARK VINA RESULT:      -9.1      0.000      0.000
REMARK  Name = 
REMARK  9 active torsions:
REMARK  status: ('A' for Active; 'I' for Inactive)
REMARK    1  A    between atoms: C_1  and  N_2
REMARK    2  A    between atoms: C_6  and  C_7
REMARK    3  A    between atoms: C_7  and  C_8
REMARK    4  A    between atoms: C_8  and  C_9
REMARK    5  A    between atoms: C_13  and  C_14
REMARK    6  A    between atoms: C_14  and  N_15
REMARK    7  A    between atoms: N_15  and  C_16
REMARK    8  A    between atoms: C_19  and  O_20
REMARK    9  A    between atoms: C_22  and  C_23
REMARK                            x       y       z     vdW  Elec       q    Type
REMARK                         _______ _______ _______ _____ _____    ______ ____
ROOT
ATOM      1  C   UNL     1       4.027   4.485  17.307  0.00  0.00    +0.000 A 
ATOM      2  C   UNL     1       3.581   3.160  17.149  0.00  0.00    +0.000 A 
ATOM      3  C   UNL     1       2.460   2.671  17.827  0.00  0.00    +0.000 A 
ATOM      4  C   UNL     1       1.765   3.490  18.713  0.00  0.00    +0.000 A 
ATOM      5  C   UNL     1       2.185   4.805  18.915  0.00  0.00    +0.000 A 
ATOM      6  C   UNL     1       3.278   5.290  18.183  0.00  0.00    +0.000 A 
ENDROOT
BRANCH   1   7
ATOM      7  C   UNL     1       5.334   5.070  16.587  0.00  0.00    +0.000 C 
ATOM      8  C   UNL     1       5.169   6.407  15.813  0.00  0.00    +0.000 C 
ATOM      9  O   UNL     1       6.183   7.063  16.597  0.00  0.00    +0.000 OA
ATOM     10  C   UNL     1       6.307   5.913  17.463  0.00  0.00    +0.000 C 
BRANCH   7  11
ATOM     11  C   UNL     1       5.990   3.984  15.703  0.00  0.00    +0.000 C 
BRANCH  11  17
ATOM     12  C   UNL     1       5.650   3.346  12.610  0.00  0.00    +0.000 C 
ATOM     13  N   UNL     1       6.596   4.242  13.220  0.00  0.00    +0.000 N 
ATOM     14  C   UNL     1       7.475   5.026  12.539  0.00  0.00    +0.000 A 
ATOM     15  N   UNL     1       8.223   5.685  13.389  0.00  0.00    +0.000 NA
ATOM     16  N   UNL     1       7.805   5.353  14.654  0.00  0.00    +0.000 NA
ATOM     17  C   UNL     1       6.801   4.501  14.556  0.00  0.00    +0.000 A 
ENDBRANCH  11  17
ENDBRANCH   7  11
ENDBRANCH   1   7
BRANCH   5  18
ATOM     18  C   UNL     1       1.580   5.682  19.977  0.00  0.00    +0.000 C 
BRANCH  18  19
ATOM     19  N   UNL     1       2.408   6.842  20.283  0.00  0.00    +0.000 N 
ATOM     20  H   UNL     1       3.389   6.683  20.059  0.00  0.00    +0.000 HD
BRANCH  19  21
ATOM     21  C   UNL     1       1.950   8.068  19.724  0.00  0.00    +0.000 A 
ATOM     22  C   UNL     1       2.025   8.292  18.339  0.00  0.00    +0.000 A 
ATOM     23  C   UNL     1       1.565   9.473  17.768  0.00  0.00    +0.000 A 
ATOM     24  C   UNL     1       1.001  10.399  18.609  0.00  0.00    +0.000 A 
ATOM     25  N   UNL     1       0.836  10.213  19.924  0.00  0.00    +0.000 NA
ATOM     26  C   UNL     1       1.271   9.046  20.489  0.00  0.00    +0.000 A 
BRANCH  26  27
ATOM     27  C   UNL     1       0.898   8.841  21.950  0.00  0.00    +0.000 C 
ATOM     28  C   UNL     1      -0.545   8.506  22.288  0.00  0.00    +0.000 C 
ATOM     29  C   UNL     1       0.046   9.805  22.740  0.00  0.00    +0.000 C 
ENDBRANCH  26  27
BRANCH  24  30
ATOM     30  O   UNL     1       0.540  11.588  18.127  0.00  0.00    +0.000 OA
ATOM     31  H   UNL     1      -0.101  11.933  18.767  0.00  0.00    +0.000 HD
ENDBRANCH  24  30
ENDBRANCH  19  21
ENDBRANCH  18  19
ENDBRANCH   5  18
TORSDOF 8
ENDMDL
MODEL 2
REMARK VINA RESULT:      -8.6      2.731      4.373
REMARK  Name = 
REMARK  9 active torsions:
REMARK  status: ('A' for Active; 'I' for Inactive)
REMARK    1  A    between atoms: C_1  and  N_2
REMARK    2  A    between atoms: C_6  and  C_7
REMARK    3  A    between atoms: C_7  and  C_8
REMARK    4  A    between atoms: C_8  and  C_9
REMARK    5  A    between atoms: C_13  and  C_14
REMARK    6  A    between atoms: C_14  and  N_15
REMARK    7  A    between atoms: N_15  and  C_16
REMARK    8  A    between atoms: C_19  and  O_20
REMARK    9  A    between atoms: C_22  and  C_23
REMARK                            x       y       z     vdW  Elec       q    Type
REMARK                         _______ _______ _______ _____ _____    ______ ____
ROOT
ATOM      1  C   UNL     1       2.706   5.068  18.959  0.00  0.00    +0.000 A 
ATOM      2  C   UNL     1       2.261   5.120  20.294  0.00  0.00    +0.000 A 
ATOM      3  C   UNL     1       1.784   6.303  20.867  0.00  0.00    +0.000 A 
ATOM      4  C   UNL     1       1.766   7.483  20.129  0.00  0.00    +0.000 A 
ATOM      5  C   UNL     1       2.217   7.480  18.809  0.00  0.00    +0.000 A 
ATOM      6  C   UNL     1       2.640   6.272  18.236  0.00  0.00    +0.000 A 
ENDROOT
BRANCH   1   7
ATOM      7  C   UNL     1       3.305   3.746  18.278  0.00  0.00    +0.000 C 
ATOM      8  C   UNL     1       3.647   2.563  19.225  0.00  0.00    +0.000 C 
ATOM      9  O   UNL     1       2.771   1.661  18.523  0.00  0.00    +0.000 OA
ATOM     10  C   UNL     1       2.284   2.731  17.683  0.00  0.00    +0.000 C 
BRANCH   7  11
ATOM     11  C   UNL     1       4.505   4.108  17.372  0.00  0.00    +0.000 C 
BRANCH  11  17
ATOM     12  C   UNL     1       7.204   5.234  16.131  0.00  0.00    +0.000 C 
ATOM     13  N   UNL     1       6.856   5.132  17.524  0.00  0.00    +0.000 N 
ATOM     14  C   UNL     1       7.629   5.574  18.552  0.00  0.00    +0.000 A 
ATOM     15  N   UNL     1       7.048   5.288  19.691  0.00  0.00    +0.000 NA
ATOM     16  N   UNL     1       5.852   4.675  19.404  0.00  0.00    +0.000 NA
ATOM     17  C   UNL     1       5.719   4.604  18.093  0.00  0.00    +0.000 A 
ENDBRANCH  11  17
ENDBRANCH   7  11
ENDBRANCH   1   7
BRANCH   5  18
ATOM     18  C   UNL     1       2.378   8.749  18.018  0.00  0.00    +0.000 C 
BRANCH  18  19
ATOM     19  N   UNL     1       1.108   9.258  17.513  0.00  0.00    +0.000 N 
ATOM     20  H   UNL     1       0.463   8.508  17.270  0.00  0.00    +0.000 HD
BRANCH  19  21
ATOM     21  C   UNL     1       0.476  10.221  18.348  0.00  0.00    +0.000 A 
ATOM     22  C   UNL     1       1.242  11.062  19.173  0.00  0.00    +0.000 A 
ATOM     23  C   UNL     1       0.649  12.023  19.983  0.00  0.00    +0.000 A 
ATOM     24  C   UNL     1      -0.716  12.143  19.918  0.00  0.00    +0.000 A 
ATOM     25  N   UNL     1      -1.493  11.423  19.099  0.00  0.00    +0.000 NA
ATOM     26  C   UNL     1      -0.913  10.487  18.288  0.00  0.00    +0.000 A 
BRANCH  26  27
ATOM     27  C   UNL     1      -1.837   9.830  17.273  0.00  0.00    +0.000 C 
ATOM     28  C   UNL     1      -2.514  10.711  16.236  0.00  0.00    +0.000 C 
ATOM     29  C   UNL     1      -3.337  10.005  17.269  0.00  0.00    +0.000 C 
ENDBRANCH  26  27
BRANCH  24  30
ATOM     30  O   UNL     1      -1.374  13.053  20.691  0.00  0.00    +0.000 OA
ATOM     31  H   UNL     1      -0.717  13.485  21.257  0.00  0.00    +0.000 HD
ENDBRANCH  24  30
ENDBRANCH  19  21
ENDBRANCH  18  19
ENDBRANCH   5  18
TORSDOF 8
ENDMDL
MODEL 3
REMARK VINA RESULT:      -8.5      3.280      5.105
REMARK  Name = 
REMARK  9 active torsions:
REMARK  status: ('A' for Active; 'I' for Inactive)
REMARK    1  A    between atoms: C_1  and  N_2
REMARK    2  A    between atoms: C_6  and  C_7
REMARK    3  A    between atoms: C_7  and  C_8
REMARK    4  A    between atoms: C_8  and  C_9
REMARK    5  A    between atoms: C_13  and  C_14
REMARK    6  A    between atoms: C_14  and  N_15
REMARK    7  A    between atoms: N_15  and  C_16
REMARK    8  A    between atoms: C_19  and  O_20
REMARK    9  A    between atoms: C_22  and  C_23
REMARK                            x       y       z     vdW  Elec       q    Type
REMARK                         _______ _______ _______ _____ _____    ______ ____
ROOT
ATOM      1  C   UNL     1       3.402   6.378  18.487  0.00  0.00    +0.000 A 
ATOM      2  C   UNL     1       2.980   6.059  19.791  0.00  0.00    +0.000 A 
ATOM      3  C   UNL     1       2.046   6.842  20.478  0.00  0.00    +0.000 A 
ATOM      4  C   UNL     1       1.528   7.992  19.889  0.00  0.00    +0.000 A 
ATOM      5  C   UNL     1       1.934   8.356  18.606  0.00  0.00    +0.000 A 
ATOM      6  C   UNL     1       2.829   7.527  17.914  0.00  0.00    +0.000 A 
ENDROOT
BRANCH   1   7
ATOM      7  C   UNL     1       4.505   5.536  17.683  0.00  0.00    +0.000 C 
ATOM      8  C   UNL     1       5.488   6.343  16.792  0.00  0.00    +0.000 C 
ATOM      9  O   UNL     1       6.642   5.830  17.485  0.00  0.00    +0.000 OA
ATOM     10  C   UNL     1       5.805   5.158  18.452  0.00  0.00    +0.000 C 
BRANCH   7  11
ATOM     11  C   UNL     1       3.831   4.393  16.889  0.00  0.00    +0.000 C 
BRANCH  11  17
ATOM     12  C   UNL     1       4.023   2.200  19.180  0.00  0.00    +0.000 C 
ATOM     13  N   UNL     1       2.831   2.786  18.627  0.00  0.00    +0.000 N 
ATOM     14  C   UNL     1       1.566   2.529  19.057  0.00  0.00    +0.000 A 
ATOM     15  N   UNL     1       0.709   3.184  18.315  0.00  0.00    +0.000 NA
ATOM     16  N   UNL     1       1.426   3.914  17.399  0.00  0.00    +0.000 NA
ATOM     17  C   UNL     1       2.713   3.698  17.602  0.00  0.00    +0.000 A 
ENDBRANCH  11  17
ENDBRANCH   7  11
ENDBRANCH   1   7
BRANCH   5  18
ATOM     18  C   UNL     1       1.539   9.669  17.986  0.00  0.00    +0.000 C 
BRANCH  18  19
ATOM     19  N   UNL     1       0.127   9.712  17.622  0.00  0.00    +0.000 N 
ATOM     20  H   UNL     1      -0.311   8.794  17.675  0.00  0.00    +0.000 HD
BRANCH  19  21
ATOM     21  C   UNL     1      -0.640  10.684  18.323  0.00  0.00    +0.000 A 
ATOM     22  C   UNL     1      -0.016  11.592  19.195  0.00  0.00    +0.000 A 
ATOM     23  C   UNL     1      -0.741  12.563  19.875  0.00  0.00    +0.000 A 
ATOM     24  C   UNL     1      -2.091  12.622  19.634  0.00  0.00    +0.000 A 
ATOM     25  N   UNL     1      -2.731  11.834  18.761  0.00  0.00    +0.000 NA
ATOM     26  C   UNL     1      -2.019  10.888  18.077  0.00  0.00    +0.000 A 
BRANCH  26  27
ATOM     27  C   UNL     1      -2.782  10.148  16.987  0.00  0.00    +0.000 C 
ATOM     28  C   UNL     1      -2.686  10.664  15.560  0.00  0.00    +0.000 C 
ATOM     29  C   UNL     1      -3.996  10.709  16.286  0.00  0.00    +0.000 C 
ENDBRANCH  26  27
BRANCH  24  30
ATOM     30  O   UNL     1      -2.874  13.537  20.272  0.00  0.00    +0.000 OA
ATOM     31  H   UNL     1      -2.322  13.985  20.932  0.00  0.00    +0.000 HD
ENDBRANCH  24  30
ENDBRANCH  19  21
ENDBRANCH  18  19
ENDBRANCH   5  18
TORSDOF 8
ENDMDL
MODEL 4
REMARK VINA RESULT:      -8.5      3.028      4.802
REMARK  Name = 
REMARK  9 active torsions:
REMARK  status: ('A' for Active; 'I' for Inactive)
REMARK    1  A    between atoms: C_1  and  N_2
REMARK    2  A    between atoms: C_6  and  C_7
REMARK    3  A    between atoms: C_7  and  C_8
REMARK    4  A    between atoms: C_8  and  C_9
REMARK    5  A    between atoms: C_13  and  C_14
REMARK    6  A    between atoms: C_14  and  N_15
REMARK    7  A    between atoms: N_15  and  C_16
REMARK    8  A    between atoms: C_19  and  O_20
REMARK    9  A    between atoms: C_22  and  C_23
REMARK                            x       y       z     vdW  Elec       q    Type
REMARK                         _______ _______ _______ _____ _____    ______ ____
ROOT
ATOM      1  C   UNL     1       2.500   6.581  19.118  0.00  0.00    +0.000 A 
ATOM      2  C   UNL     1       2.079   6.461  20.455  0.00  0.00    +0.000 A 
ATOM      3  C   UNL     1       1.382   7.484  21.105  0.00  0.00    +0.000 A 
ATOM      4  C   UNL     1       1.111   8.679  20.443  0.00  0.00    +0.000 A 
ATOM      5  C   UNL     1       1.530   8.848  19.123  0.00  0.00    +0.000 A 
ATOM      6  C   UNL     1       2.178   7.789  18.473  0.00  0.00    +0.000 A 
ENDROOT
BRANCH   1   7
ATOM      7  C   UNL     1       3.343   5.453  18.351  0.00  0.00    +0.000 C 
ATOM      8  C   UNL     1       3.826   4.244  19.197  0.00  0.00    +0.000 C 
ATOM      9  O   UNL     1       3.148   3.296  18.351  0.00  0.00    +0.000 OA
ATOM     10  C   UNL     1       2.535   4.361  17.591  0.00  0.00    +0.000 C 
BRANCH   7  11
ATOM     11  C   UNL     1       4.512   6.098  17.569  0.00  0.00    +0.000 C 
BRANCH  11  17
ATOM     12  C   UNL     1       6.046   3.929  15.828  0.00  0.00    +0.000 C 
ATOM     13  N   UNL     1       6.515   4.588  17.018  0.00  0.00    +0.000 N 
ATOM     14  C   UNL     1       7.751   4.423  17.561  0.00  0.00    +0.000 A 
ATOM     15  N   UNL     1       7.843   5.126  18.663  0.00  0.00    +0.000 NA
ATOM     16  N   UNL     1       6.653   5.792  18.830  0.00  0.00    +0.000 NA
ATOM     17  C   UNL     1       5.857   5.491  17.821  0.00  0.00    +0.000 A 
ENDBRANCH  11  17
ENDBRANCH   7  11
ENDBRANCH   1   7
BRANCH   5  18
ATOM     18  C   UNL     1       1.415  10.169  18.413  0.00  0.00    +0.000 C 
BRANCH  18  19
ATOM     19  N   UNL     1       0.147  10.317  17.707  0.00  0.00    +0.000 N 
ATOM     20  H   UNL     1      -0.237   9.419  17.416  0.00  0.00    +0.000 HD
BRANCH  19  21
ATOM     21  C   UNL     1      -0.831  11.091  18.391  0.00  0.00    +0.000 A 
ATOM     22  C   UNL     1      -0.443  12.056  19.335  0.00  0.00    +0.000 A 
ATOM     23  C   UNL     1      -1.380  12.838  20.001  0.00  0.00    +0.000 A 
ATOM     24  C   UNL     1      -2.699  12.654  19.673  0.00  0.00    +0.000 A 
ATOM     25  N   UNL     1      -3.124  11.804  18.730  0.00  0.00    +0.000 NA
ATOM     26  C   UNL     1      -2.207  11.044  18.060  0.00  0.00    +0.000 A 
BRANCH  26  27
ATOM     27  C   UNL     1      -2.749  10.229  16.895  0.00  0.00    +0.000 C 
ATOM     28  C   UNL     1      -2.789  10.873  15.519  0.00  0.00    +0.000 C 
ATOM     29  C   UNL     1      -4.066  10.515  16.214  0.00  0.00    +0.000 C 
ENDBRANCH  26  27
BRANCH  24  30
ATOM     30  O   UNL     1      -3.678  13.373  20.291  0.00  0.00    +0.000 OA
ATOM     31  H   UNL     1      -3.394  13.529  21.205  0.00  0.00    +0.000 HD
ENDBRANCH  24  30
ENDBRANCH  19  21
ENDBRANCH  18  19
ENDBRANCH   5  18
TORSDOF 8
ENDMDL
MODEL 5
REMARK VINA RESULT:      -8.5      3.650      5.890
REMARK  Name = 
REMARK  9 active torsions:
REMARK  status: ('A' for Active; 'I' for Inactive)
REMARK    1  A    between atoms: C_1  and  N_2
REMARK    2  A    between atoms: C_6  and  C_7
REMARK    3  A    between atoms: C_7  and  C_8
REMARK    4  A    between atoms: C_8  and  C_9
REMARK    5  A    between atoms: C_13  and  C_14
REMARK    6  A    between atoms: C_14  and  N_15
REMARK    7  A    between atoms: N_15  and  C_16
REMARK    8  A    between atoms: C_19  and  O_20
REMARK    9  A    between atoms: C_22  and  C_23
REMARK                            x       y       z     vdW  Elec       q    Type
REMARK                         _______ _______ _______ _____ _____    ______ ____
ROOT
ATOM      1  C   UNL     1       2.582   7.231  18.662  0.00  0.00    +0.000 A 
ATOM      2  C   UNL     1       2.543   8.162  17.607  0.00  0.00    +0.000 A 
ATOM      3  C   UNL     1       1.926   9.409  17.746  0.00  0.00    +0.000 A 
ATOM      4  C   UNL     1       1.300   9.753  18.941  0.00  0.00    +0.000 A 
ATOM      5  C   UNL     1       1.298   8.851  20.005  0.00  0.00    +0.000 A 
ATOM      6  C   UNL     1       1.969   7.628  19.863  0.00  0.00    +0.000 A 
ENDROOT
BRANCH   1   7
ATOM      7  C   UNL     1       3.236   5.772  18.530  0.00  0.00    +0.000 C 
ATOM      8  C   UNL     1       4.130   5.516  17.286  0.00  0.00    +0.000 C 
ATOM      9  O   UNL     1       5.269   5.167  18.095  0.00  0.00    +0.000 OA
ATOM     10  C   UNL     1       4.562   5.519  19.305  0.00  0.00    +0.000 C 
BRANCH   7  11
ATOM     11  C   UNL     1       2.147   4.684  18.677  0.00  0.00    +0.000 C 
BRANCH  11  17
ATOM     12  C   UNL     1       3.627   1.903  19.084  0.00  0.00    +0.000 C 
ATOM     13  N   UNL     1       2.932   2.678  20.077  0.00  0.00    +0.000 N 
ATOM     14  C   UNL     1       2.854   2.359  21.397  0.00  0.00    +0.000 A 
ATOM     15  N   UNL     1       2.111   3.242  22.018  0.00  0.00    +0.000 NA
ATOM     16  N   UNL     1       1.722   4.179  21.093  0.00  0.00    +0.000 NA
ATOM     17  C   UNL     1       2.239   3.857  19.922  0.00  0.00    +0.000 A 
ENDBRANCH  11  17
ENDBRANCH   7  11
ENDBRANCH   1   7
BRANCH   5  18
ATOM     18  C   UNL     1       0.500   9.095  21.257  0.00  0.00    +0.000 C 
BRANCH  18  19
ATOM     19  N   UNL     1       0.641  10.460  21.753  0.00  0.00    +0.000 N 
ATOM     20  H   UNL     1       1.308  11.000  21.205  0.00  0.00    +0.000 HD
BRANCH  19  21
ATOM     21  C   UNL     1      -0.583  11.168  21.909  0.00  0.00    +0.000 A 
ATOM     22  C   UNL     1      -1.309  11.082  23.108  0.00  0.00    +0.000 A 
ATOM     23  C   UNL     1      -2.497  11.780  23.290  0.00  0.00    +0.000 A 
ATOM     24  C   UNL     1      -2.915  12.587  22.262  0.00  0.00    +0.000 A 
ATOM     25  N   UNL     1      -2.231  12.767  21.126  0.00  0.00    +0.000 NA
ATOM     26  C   UNL     1      -1.053  12.096  20.948  0.00  0.00    +0.000 A 
BRANCH  26  27
ATOM     27  C   UNL     1      -0.255  12.479  19.710  0.00  0.00    +0.000 C 
ATOM     28  C   UNL     1       0.766  13.599  19.826  0.00  0.00    +0.000 C 
ATOM     29  C   UNL     1      -0.444  13.776  18.961  0.00  0.00    +0.000 C 
ENDBRANCH  26  27
BRANCH  24  30
ATOM     30  O   UNL     1      -4.077  13.294  22.359  0.00  0.00    +0.000 OA
ATOM     31  H   UNL     1      -3.910  14.181  22.006  0.00  0.00    +0.000 HD
ENDBRANCH  24  30
ENDBRANCH  19  21
ENDBRANCH  18  19
ENDBRANCH   5  18
TORSDOF 8
ENDMDL
MODEL 6
REMARK VINA RESULT:      -8.4      2.868      4.333
REMARK  Name = 
REMARK  9 active torsions:
REMARK  status: ('A' for Active; 'I' for Inactive)
REMARK    1  A    between atoms: C_1  and  N_2
REMARK    2  A    between atoms: C_6  and  C_7
REMARK    3  A    between atoms: C_7  and  C_8
REMARK    4  A    between atoms: C_8  and  C_9
REMARK    5  A    between atoms: C_13  and  C_14
REMARK    6  A    between atoms: C_14  and  N_15
REMARK    7  A    between atoms: N_15  and  C_16
REMARK    8  A    between atoms: C_19  and  O_20
REMARK    9  A    between atoms: C_22  and  C_23
REMARK                            x       y       z     vdW  Elec       q    Type
REMARK                         _______ _______ _______ _____ _____    ______ ____
ROOT
ATOM      1  C   UNL     1       3.558   6.583  18.225  0.00  0.00    +0.000 A 
ATOM      2  C   UNL     1       3.173   6.082  19.482  0.00  0.00    +0.000 A 
ATOM      3  C   UNL     1       2.213   6.724  20.271  0.00  0.00    +0.000 A 
ATOM      4  C   UNL     1       1.628   7.910  19.836  0.00  0.00    +0.000 A 
ATOM      5  C   UNL     1       1.996   8.452  18.605  0.00  0.00    +0.000 A 
ATOM      6  C   UNL     1       2.920   7.763  17.806  0.00  0.00    +0.000 A 
ENDROOT
BRANCH   1   7
ATOM      7  C   UNL     1       4.688   5.906  17.311  0.00  0.00    +0.000 C 
ATOM      8  C   UNL     1       5.057   6.641  15.994  0.00  0.00    +0.000 C 
ATOM      9  O   UNL     1       6.443   6.757  16.369  0.00  0.00    +0.000 OA
ATOM     10  C   UNL     1       6.171   6.210  17.678  0.00  0.00    +0.000 C 
BRANCH   7  11
ATOM     11  C   UNL     1       4.347   4.419  17.052  0.00  0.00    +0.000 C 
BRANCH  11  17
ATOM     12  C   UNL     1       1.869   2.744  18.122  0.00  0.00    +0.000 C 
ATOM     13  N   UNL     1       3.191   2.810  18.687  0.00  0.00    +0.000 N 
ATOM     14  C   UNL     1       3.613   2.092  19.763  0.00  0.00    +0.000 A 
ATOM     15  N   UNL     1       4.849   2.417  20.049  0.00  0.00    +0.000 NA
ATOM     16  N   UNL     1       5.259   3.343  19.121  0.00  0.00    +0.000 NA
ATOM     17  C   UNL     1       4.268   3.563  18.278  0.00  0.00    +0.000 A 
ENDBRANCH  11  17
ENDBRANCH   7  11
ENDBRANCH   1   7
BRANCH   5  18
ATOM     18  C   UNL     1       1.526   9.810  18.158  0.00  0.00    +0.000 C 
BRANCH  18  19
ATOM     19  N   UNL     1       1.066  10.636  19.268  0.00  0.00    +0.000 N 
ATOM     20  H   UNL     1       1.703  11.408  19.462  0.00  0.00    +0.000 HD
BRANCH  19  21
ATOM     21  C   UNL     1      -0.275  11.098  19.153  0.00  0.00    +0.000 A 
ATOM     22  C   UNL     1      -1.008  10.875  17.976  0.00  0.00    +0.000 A 
ATOM     23  C   UNL     1      -2.325  11.299  17.848  0.00  0.00    +0.000 A 
ATOM     24  C   UNL     1      -2.894  11.916  18.933  0.00  0.00    +0.000 A 
ATOM     25  N   UNL     1      -2.272  12.093  20.105  0.00  0.00    +0.000 NA
ATOM     26  C   UNL     1      -0.982  11.662  20.243  0.00  0.00    +0.000 A 
BRANCH  26  27
ATOM     27  C   UNL     1      -0.403  11.747  21.648  0.00  0.00    +0.000 C 
ATOM     28  C   UNL     1      -0.474  10.515  22.535  0.00  0.00    +0.000 C 
ATOM     29  C   UNL     1      -1.245  11.745  22.902  0.00  0.00    +0.000 C 
ENDBRANCH  26  27
BRANCH  24  30
ATOM     30  O   UNL     1      -4.177  12.374  18.882  0.00  0.00    +0.000 OA
ATOM     31  H   UNL     1      -4.488  12.477  19.794  0.00  0.00    +0.000 HD
ENDBRANCH  24  30
ENDBRANCH  19  21
ENDBRANCH  18  19
ENDBRANCH   5  18
TORSDOF 8
ENDMDL
MODEL 7
REMARK VINA RESULT:      -8.4      3.124      4.498
REMARK  Name = 
REMARK  9 active torsions:
REMARK  status: ('A' for Active; 'I' for Inactive)
REMARK    1  A    between atoms: C_1  and  N_2
REMARK    2  A    between atoms: C_6  and  C_7
REMARK    3  A    between atoms: C_7  and  C_8
REMARK    4  A    between atoms: C_8  and  C_9
REMARK    5  A    between atoms: C_13  and  C_14
REMARK    6  A    between atoms: C_14  and  N_15
REMARK    7  A    between atoms: N_15  and  C_16
REMARK    8  A    between atoms: C_19  and  O_20
REMARK    9  A    between atoms: C_22  and  C_23
REMARK                            x       y       z     vdW  Elec       q    Type
REMARK                         _______ _______ _______ _____ _____    ______ ____
ROOT
ATOM      1  C   UNL     1       3.780   5.863  18.395  0.00  0.00    +0.000 A 
ATOM      2  C   UNL     1       3.418   5.544  19.717  0.00  0.00    +0.000 A 
ATOM      3  C   UNL     1       2.514   6.325  20.444  0.00  0.00    +0.000 A 
ATOM      4  C   UNL     1       1.966   7.473  19.879  0.00  0.00    +0.000 A 
ATOM      5  C   UNL     1       2.313   7.837  18.578  0.00  0.00    +0.000 A 
ATOM      6  C   UNL     1       3.178   7.010  17.847  0.00  0.00    +0.000 A 
ENDROOT
BRANCH   1   7
ATOM      7  C   UNL     1       4.848   5.024  17.543  0.00  0.00    +0.000 C 
ATOM      8  C   UNL     1       5.774   5.831  16.592  0.00  0.00    +0.000 C 
ATOM      9  O   UNL     1       6.968   5.338  17.229  0.00  0.00    +0.000 OA
ATOM     10  C   UNL     1       6.191   4.668  18.245  0.00  0.00    +0.000 C 
BRANCH   7  11
ATOM     11  C   UNL     1       4.145   3.865  16.798  0.00  0.00    +0.000 C 
BRANCH  11  17
ATOM     12  C   UNL     1       4.110   1.776  19.190  0.00  0.00    +0.000 C 
ATOM     13  N   UNL     1       2.980   2.416  18.570  0.00  0.00    +0.000 N 
ATOM     14  C   UNL     1       1.688   2.268  18.968  0.00  0.00    +0.000 A 
ATOM     15  N   UNL     1       0.902   2.945  18.168  0.00  0.00    +0.000 NA
ATOM     16  N   UNL     1       1.698   3.579  17.245  0.00  0.00    +0.000 NA
ATOM     17  C   UNL     1       2.959   3.284  17.502  0.00  0.00    +0.000 A 
ENDBRANCH  11  17
ENDBRANCH   7  11
ENDBRANCH   1   7
BRANCH   5  18
ATOM     18  C   UNL     1       1.886   9.148  17.976  0.00  0.00    +0.000 C 
BRANCH  18  19
ATOM     19  N   UNL     1       1.225  10.018  18.941  0.00  0.00    +0.000 N 
ATOM     20  H   UNL     1       1.837  10.764  19.268  0.00  0.00    +0.000 HD
BRANCH  19  21
ATOM     21  C   UNL     1      -0.029  10.538  18.514  0.00  0.00    +0.000 A 
ATOM     22  C   UNL     1      -0.885   9.767  17.711  0.00  0.00    +0.000 A 
ATOM     23  C   UNL     1      -2.123  10.246  17.298  0.00  0.00    +0.000 A 
ATOM     24  C   UNL     1      -2.492  11.493  17.738  0.00  0.00    +0.000 A 
ATOM     25  N   UNL     1      -1.753  12.244  18.563  0.00  0.00    +0.000 NA
ATOM     26  C   UNL     1      -0.542  11.771  18.986  0.00  0.00    +0.000 A 
BRANCH  26  27
ATOM     27  C   UNL     1       0.159  12.605  20.048  0.00  0.00    +0.000 C 
ATOM     28  C   UNL     1      -0.127  12.303  21.510  0.00  0.00    +0.000 C 
ATOM     29  C   UNL     1      -0.548  13.614  20.922  0.00  0.00    +0.000 C 
ENDBRANCH  26  27
BRANCH  24  30
ATOM     30  O   UNL     1      -3.684  12.038  17.366  0.00  0.00    +0.000 OA
ATOM     31  H   UNL     1      -3.571  12.413  16.480  0.00  0.00    +0.000 HD
ENDBRANCH  24  30
ENDBRANCH  19  21
ENDBRANCH  18  19
ENDBRANCH   5  18
TORSDOF 8
ENDMDL
MODEL 8
REMARK VINA RESULT:      -8.4      2.431      4.074
REMARK  Name = 
REMARK  9 active torsions:
REMARK  status: ('A' for Active; 'I' for Inactive)
REMARK    1  A    between atoms: C_1  and  N_2
REMARK    2  A    between atoms: C_6  and  C_7
REMARK    3  A    between atoms: C_7  and  C_8
REMARK    4  A    between atoms: C_8  and  C_9
REMARK    5  A    between atoms: C_13  and  C_14
REMARK    6  A    between atoms: C_14  and  N_15
REMARK    7  A    between atoms: N_15  and  C_16
REMARK    8  A    between atoms: C_19  and  O_20
REMARK    9  A    between atoms: C_22  and  C_23
REMARK                            x       y       z     vdW  Elec       q    Type
REMARK                         _______ _______ _______ _____ _____    ______ ____
ROOT
ATOM      1  C   UNL     1       2.711   5.312  19.007  0.00  0.00    +0.000 A 
ATOM      2  C   UNL     1       2.264   5.374  20.340  0.00  0.00    +0.000 A 
ATOM      3  C   UNL     1       1.760   6.554  20.897  0.00  0.00    +0.000 A 
ATOM      4  C   UNL     1       1.717   7.723  20.141  0.00  0.00    +0.000 A 
ATOM      5  C   UNL     1       2.169   7.711  18.822  0.00  0.00    +0.000 A 
ATOM      6  C   UNL     1       2.619   6.504  18.267  0.00  0.00    +0.000 A 
ENDROOT
BRANCH   1   7
ATOM      7  C   UNL     1       3.340   3.994  18.345  0.00  0.00    +0.000 C 
ATOM      8  C   UNL     1       2.898   2.631  18.944  0.00  0.00    +0.000 C 
ATOM      9  O   UNL     1       2.400   2.161  17.677  0.00  0.00    +0.000 OA
ATOM     10  C   UNL     1       2.645   3.446  17.064  0.00  0.00    +0.000 C 
BRANCH   7  11
ATOM     11  C   UNL     1       4.881   4.111  18.282  0.00  0.00    +0.000 C 
BRANCH  11  17
ATOM     12  C   UNL     1       5.847   6.846  16.987  0.00  0.00    +0.000 C 
ATOM     13  N   UNL     1       5.900   5.533  16.401  0.00  0.00    +0.000 N 
ATOM     14  C   UNL     1       6.448   5.244  15.190  0.00  0.00    +0.000 A 
ATOM     15  N   UNL     1       6.292   3.969  14.931  0.00  0.00    +0.000 NA
ATOM     16  N   UNL     1       5.659   3.402  16.010  0.00  0.00    +0.000 NA
ATOM     17  C   UNL     1       5.445   4.340  16.914  0.00  0.00    +0.000 A 
ENDBRANCH  11  17
ENDBRANCH   7  11
ENDBRANCH   1   7
BRANCH   5  18
ATOM     18  C   UNL     1       2.303   8.972  18.013  0.00  0.00    +0.000 C 
BRANCH  18  19
ATOM     19  N   UNL     1       1.017   9.473  17.542  0.00  0.00    +0.000 N 
ATOM     20  H   UNL     1       0.382   8.719  17.285  0.00  0.00    +0.000 HD
BRANCH  19  21
ATOM     21  C   UNL     1       0.381  10.399  18.415  0.00  0.00    +0.000 A 
ATOM     22  C   UNL     1       1.142  11.315  19.161  0.00  0.00    +0.000 A 
ATOM     23  C   UNL     1       0.542  12.241  20.005  0.00  0.00    +0.000 A 
ATOM     24  C   UNL     1      -0.829  12.250  20.055  0.00  0.00    +0.000 A 
ATOM     25  N   UNL     1      -1.610  11.453  19.316  0.00  0.00    +0.000 NA
ATOM     26  C   UNL     1      -1.026  10.551  18.471  0.00  0.00    +0.000 A 
BRANCH  26  27
ATOM     27  C   UNL     1      -1.974   9.801  17.546  0.00  0.00    +0.000 C 
ATOM     28  C   UNL     1      -2.485  10.513  16.304  0.00  0.00    +0.000 C 
ATOM     29  C   UNL     1      -3.438  10.139  17.396  0.00  0.00    +0.000 C 
ENDBRANCH  26  27
BRANCH  24  30
ATOM     30  O   UNL     1      -1.492  13.119  20.870  0.00  0.00    +0.000 OA
ATOM     31  H   UNL     1      -2.297  13.397  20.408  0.00  0.00    +0.000 HD
ENDBRANCH  24  30
ENDBRANCH  19  21
ENDBRANCH  18  19
ENDBRANCH   5  18
TORSDOF 8
ENDMDL
MODEL 9
REMARK VINA RESULT:      -8.4      2.760      4.070
REMARK  Name = 
REMARK  9 active torsions:
REMARK  status: ('A' for Active; 'I' for Inactive)
REMARK    1  A    between atoms: C_1  and  N_2
REMARK    2  A    between atoms: C_6  and  C_7
REMARK    3  A    between atoms: C_7  and  C_8
REMARK    4  A    between atoms: C_8  and  C_9
REMARK    5  A    between atoms: C_13  and  C_14
REMARK    6  A    between atoms: C_14  and  N_15
REMARK    7  A    between atoms: N_15  and  C_16
REMARK    8  A    between atoms: C_19  and  O_20
REMARK    9  A    between atoms: C_22  and  C_23
REMARK                            x       y       z     vdW  Elec       q    Type
REMARK                         _______ _______ _______ _____ _____    ______ ____
ROOT
ATOM      1  C   UNL     1       2.842   5.440  18.823  0.00  0.00    +0.000 A 
ATOM      2  C   UNL     1       2.514   5.285  20.183  0.00  0.00    +0.000 A 
ATOM      3  C   UNL     1       1.897   6.305  20.915  0.00  0.00    +0.000 A 
ATOM      4  C   UNL     1       1.617   7.529  20.314  0.00  0.00    +0.000 A 
ATOM      5  C   UNL     1       1.944   7.732  18.974  0.00  0.00    +0.000 A 
ATOM      6  C   UNL     1       2.511   6.678  18.243  0.00  0.00    +0.000 A 
ENDROOT
BRANCH   1   7
ATOM      7  C   UNL     1       3.592   4.316  17.960  0.00  0.00    +0.000 C 
ATOM      8  C   UNL     1       3.925   2.984  18.685  0.00  0.00    +0.000 C 
ATOM      9  O   UNL     1       3.183   2.202  17.730  0.00  0.00    +0.000 OA
ATOM     10  C   UNL     1       2.704   3.396  17.073  0.00  0.00    +0.000 C 
BRANCH   7  11
ATOM     11  C   UNL     1       4.843   4.915  17.275  0.00  0.00    +0.000 C 
BRANCH  11  17
ATOM     12  C   UNL     1       7.292   6.887  16.824  0.00  0.00    +0.000 C 
ATOM     13  N   UNL     1       7.025   6.073  17.980  0.00  0.00    +0.000 N 
ATOM     14  C   UNL     1       7.770   6.071  19.118  0.00  0.00    +0.000 A 
ATOM     15  N   UNL     1       7.288   5.186  19.956  0.00  0.00    +0.000 NA
ATOM     16  N   UNL     1       6.183   4.619  19.369  0.00  0.00    +0.000 NA
ATOM     17  C   UNL     1       6.003   5.173  18.185  0.00  0.00    +0.000 A 
ENDBRANCH  11  17
ENDBRANCH   7  11
ENDBRANCH   1   7
BRANCH   5  18
ATOM     18  C   UNL     1       1.819   9.080  18.317  0.00  0.00    +0.000 C 
BRANCH  18  19
ATOM     19  N   UNL     1       1.347  10.109  19.237  0.00  0.00    +0.000 N 
ATOM     20  H   UNL     1       2.008  10.879  19.324  0.00  0.00    +0.000 HD
BRANCH  19  21
ATOM     21  C   UNL     1       0.035  10.590  18.971  0.00  0.00    +0.000 A 
ATOM     22  C   UNL     1      -0.647  10.196  17.808  0.00  0.00    +0.000 A 
ATOM     23  C   UNL     1      -1.937  10.638  17.537  0.00  0.00    +0.000 A 
ATOM     24  C   UNL     1      -2.532  11.448  18.470  0.00  0.00    +0.000 A 
ATOM     25  N   UNL     1      -1.963  11.799  19.630  0.00  0.00    +0.000 NA
ATOM     26  C   UNL     1      -0.701  11.354  19.909  0.00  0.00    +0.000 A 
BRANCH  26  27
ATOM     27  C   UNL     1      -0.190  11.655  21.311  0.00  0.00    +0.000 C 
ATOM     28  C   UNL     1      -0.430  10.627  22.405  0.00  0.00    +0.000 C 
ATOM     29  C   UNL     1      -1.092  11.968  22.482  0.00  0.00    +0.000 C 
ENDBRANCH  26  27
BRANCH  24  30
ATOM     30  O   UNL     1      -3.790  11.934  18.270  0.00  0.00    +0.000 OA
ATOM     31  H   UNL     1      -4.000  12.518  19.015  0.00  0.00    +0.000 HD
ENDBRANCH  24  30
ENDBRANCH  19  21
ENDBRANCH  18  19
ENDBRANCH   5  18
TORSDOF 8
ENDMDL
