MODEL 1
REMARK VINA RESULT:      -9.3      0.000      0.000
REMARK  Name = 
REMARK  6 active torsions:
REMARK  status: ('A' for Active; 'I' for Inactive)
REMARK    1  A    between atoms: C_1  and  C_2
REMARK    2  A    between atoms: C_6  and  C_7
REMARK    3  A    between atoms: C_7  and  C_8
REMARK    4  A    between atoms: C_8  and  C_9
REMARK    5  A    between atoms: C_17  and  C_18
REMARK    6  A    between atoms: N_25  and  C_26
REMARK                            x       y       z     vdW  Elec       q    Type
REMARK                         _______ _______ _______ _____ _____    ______ ____
ROOT
ATOM      1  C   UNL     1       7.257   7.333  17.724  0.00  0.00    +0.000 C 
ATOM      2  O   UNL     1       7.742   6.605  18.593  0.00  0.00    +0.000 OA
ATOM      3  N   UNL     1       6.306   6.934  16.796  0.00  0.00    +0.000 N 
ATOM      4  C   UNL     1       5.955   5.600  16.733  0.00  0.00    +0.000 A 
ATOM      5  N   UNL     1       6.554   4.709  15.918  0.00  0.00    +0.000 NA
ATOM      6  N   UNL     1       5.941   3.517  16.212  0.00  0.00    +0.000 N 
ATOM      7  C   UNL     1       4.881   3.682  17.034  0.00  0.00    +0.000 A 
ATOM      8  C   UNL     1       4.878   4.984  17.341  0.00  0.00    +0.000 A 
ATOM      9  C   UNL     1       3.747   5.281  18.084  0.00  0.00    +0.000 A 
ATOM     10  N   UNL     1       3.099   4.110  18.338  0.00  0.00    +0.000 NA
ATOM     11  N   UNL     1       3.826   3.151  17.693  0.00  0.00    +0.000 N 
ATOM     12  C   UNL     1       3.414   1.772  17.758  0.00  0.00    +0.000 C 
ATOM     13  H   UNL     1       6.377   7.381  15.892  0.00  0.00    +0.000 HD
ATOM     14  H   UNL     1       6.298   2.673  15.778  0.00  0.00    +0.000 HD
ENDROOT
BRANCH   9  15
ATOM     15  C   UNL     1       3.178   6.577  18.432  0.00  0.00    +0.000 A 
ATOM     16  C   UNL     1       3.099   7.596  17.468  0.00  0.00    +0.000 A 
ATOM     17  C   UNL     1       2.436   8.790  17.725  0.00  0.00    +0.000 A 
ATOM     18  C   UNL     1       1.819   8.973  18.951  0.00  0.00    +0.000 A 
ATOM     19  C   UNL     1       1.902   7.982  19.930  0.00  0.00    +0.000 A 
ATOM     20  C   UNL     1       2.590   6.792  19.679  0.00  0.00    +0.000 A 
ENDBRANCH   9  15
BRANCH   1  21
ATOM     21  C   UNL     1       7.598   8.813  17.641  0.00  0.00    +0.000 C 
BRANCH  21  22
ATOM     22  C   UNL     1       8.676   9.198  18.664  0.00  0.00    +0.000 C 
BRANCH  22  28
ATOM     23  C   UNL     1      12.112  12.533  19.699  0.00  0.00    +0.000 C 
ATOM     24  C   UNL     1      10.824  12.186  19.010  0.00  0.00    +0.000 A 
ATOM     25  N   UNL     1      10.221  13.151  18.297  0.00  0.00    +0.000 NA
ATOM     26  C   UNL     1       9.073  12.801  17.687  0.00  0.00    +0.000 A 
ATOM     27  C   UNL     1       8.515  11.539  17.775  0.00  0.00    +0.000 A 
ATOM     28  C   UNL     1       9.208  10.616  18.533  0.00  0.00    +0.000 A 
ATOM     29  N   UNL     1      10.362  10.923  19.160  0.00  0.00    +0.000 NA
ENDBRANCH  22  28
ENDBRANCH  21  22
ENDBRANCH   1  21
TORSDOF 4
ENDMDL
MODEL 2
REMARK VINA RESULT:      -8.9      0.742      1.357
REMARK  Name = 
REMARK  6 active torsions:
REMARK  status: ('A' for Active; 'I' for Inactive)
REMARK    1  A    between atoms: C_1  and  C_2
REMARK    2  A    between atoms: C_6  and  C_7
REMARK    3  A    between atoms: C_7  and  C_8
REMARK    4  A    between atoms: C_8  and  C_9
REMARK    5  A    between atoms: C_17  and  C_18
REMARK    6  A    between atoms: N_25  and  C_26
REMARK                            x       y       z     vdW  Elec       q    Type
REMARK                         _______ _______ _______ _____ _____    ______ ____
ROOT
ATOM      1  C   UNL     1       7.172   7.415  17.588  0.00  0.00    +0.000 C 
ATOM      2  O   UNL     1       7.717   6.732  18.458  0.00  0.00    +0.000 OA
ATOM      3  N   UNL     1       6.196   6.958  16.715  0.00  0.00    +0.000 N 
ATOM      4  C   UNL     1       5.885   5.612  16.709  0.00  0.00    +0.000 A 
ATOM      5  N   UNL     1       6.477   4.713  15.898  0.00  0.00    +0.000 NA
ATOM      6  N   UNL     1       5.915   3.513  16.255  0.00  0.00    +0.000 N 
ATOM      7  C   UNL     1       4.887   3.673  17.117  0.00  0.00    +0.000 A 
ATOM      8  C   UNL     1       4.855   4.983  17.384  0.00  0.00    +0.000 A 
ATOM      9  C   UNL     1       3.748   5.270  18.165  0.00  0.00    +0.000 A 
ATOM     10  N   UNL     1       3.149   4.089  18.484  0.00  0.00    +0.000 NA
ATOM     11  N   UNL     1       3.878   3.132  17.838  0.00  0.00    +0.000 N 
ATOM     12  C   UNL     1       3.514   1.744  17.963  0.00  0.00    +0.000 C 
ATOM     13  H   UNL     1       6.214   7.376  15.796  0.00  0.00    +0.000 HD
ATOM     14  H   UNL     1       6.281   2.667  15.833  0.00  0.00    +0.000 HD
ENDROOT
BRANCH   9  15
ATOM     15  C   UNL     1       3.153   6.559  18.496  0.00  0.00    +0.000 A 
ATOM     16  C   UNL     1       3.070   7.570  17.525  0.00  0.00    +0.000 A 
ATOM     17  C   UNL     1       2.385   8.755  17.766  0.00  0.00    +0.000 A 
ATOM     18  C   UNL     1       1.749   8.935  18.982  0.00  0.00    +0.000 A 
ATOM     19  C   UNL     1       1.836   7.952  19.969  0.00  0.00    +0.000 A 
ATOM     20  C   UNL     1       2.546   6.772  19.735  0.00  0.00    +0.000 A 
ENDBRANCH   9  15
BRANCH   1  21
ATOM     21  C   UNL     1       7.462   8.901  17.444  0.00  0.00    +0.000 C 
BRANCH  21  22
ATOM     22  C   UNL     1       8.611   9.340  18.363  0.00  0.00    +0.000 C 
BRANCH  22  28
ATOM     23  C   UNL     1       7.575  14.065  17.586  0.00  0.00    +0.000 C 
ATOM     24  C   UNL     1       8.605  12.993  17.801  0.00  0.00    +0.000 A 
ATOM     25  N   UNL     1       9.895  13.365  17.819  0.00  0.00    +0.000 NA
ATOM     26  C   UNL     1      10.789  12.379  18.021  0.00  0.00    +0.000 A 
ATOM     27  C   UNL     1      10.437  11.054  18.195  0.00  0.00    +0.000 A 
ATOM     28  C   UNL     1       9.086  10.770  18.159  0.00  0.00    +0.000 A 
ATOM     29  N   UNL     1       8.157  11.726  17.960  0.00  0.00    +0.000 NA
ENDBRANCH  22  28
ENDBRANCH  21  22
ENDBRANCH   1  21
TORSDOF 4
ENDMDL
MODEL 3
REMARK VINA RESULT:      -8.3      3.953      6.577
REMARK  Name = 
REMARK  6 active torsions:
REMARK  status: ('A' for Active; 'I' for Inactive)
REMARK    1  A    between atoms: C_1  and  C_2
REMARK    2  A    between atoms: C_6  and  C_7
REMARK    3  A    between atoms: C_7  and  C_8
REMARK    4  A    between atoms: C_8  and  C_9
REMARK    5  A    between atoms: C_17  and  C_18
REMARK    6  A    between atoms: N_25  and  C_26
REMARK                            x       y       z     vdW  Elec       q    Type
REMARK                         _______ _______ _______ _____ _____    ______ ____
ROOT
ATOM      1  C   UNL     1       2.273   7.362  18.291  0.00  0.00    +0.000 C 
ATOM      2  O   UNL     1       1.715   6.549  17.549  0.00  0.00    +0.000 OA
ATOM      3  N   UNL     1       2.972   7.034  19.444  0.00  0.00    +0.000 N 
ATOM      4  C   UNL     1       2.947   5.726  19.889  0.00  0.00    +0.000 A 
ATOM      5  N   UNL     1       2.044   5.256  20.772  0.00  0.00    +0.000 NA
ATOM      6  N   UNL     1       2.349   3.923  20.890  0.00  0.00    +0.000 N 
ATOM      7  C   UNL     1       3.502   3.610  20.258  0.00  0.00    +0.000 A 
ATOM      8  C   UNL     1       3.885   4.739  19.652  0.00  0.00    +0.000 A 
ATOM      9  C   UNL     1       5.131   4.555  19.076  0.00  0.00    +0.000 A 
ATOM     10  N   UNL     1       5.471   3.246  19.233  0.00  0.00    +0.000 NA
ATOM     11  N   UNL     1       4.446   2.694  19.948  0.00  0.00    +0.000 N 
ATOM     12  C   UNL     1       4.483   1.295  20.293  0.00  0.00    +0.000 C 
ATOM     13  H   UNL     1       2.918   7.718  20.185  0.00  0.00    +0.000 HD
ATOM     14  H   UNL     1       1.734   3.337  21.443  0.00  0.00    +0.000 HD
ENDROOT
BRANCH   9  15
ATOM     15  C   UNL     1       6.059   5.541  18.535  0.00  0.00    +0.000 A 
ATOM     16  C   UNL     1       5.676   6.357  17.458  0.00  0.00    +0.000 A 
ATOM     17  C   UNL     1       6.481   7.398  17.013  0.00  0.00    +0.000 A 
ATOM     18  C   UNL     1       7.679   7.654  17.658  0.00  0.00    +0.000 A 
ATOM     19  C   UNL     1       8.088   6.843  18.718  0.00  0.00    +0.000 A 
ATOM     20  C   UNL     1       7.290   5.781  19.149  0.00  0.00    +0.000 A 
ENDBRANCH   9  15
BRANCH   1  21
ATOM     21  C   UNL     1       2.328   8.843  17.952  0.00  0.00    +0.000 C 
BRANCH  21  22
ATOM     22  C   UNL     1       0.956   9.509  18.124  0.00  0.00    +0.000 C 
BRANCH  22  28
ATOM     23  C   UNL     1      -0.410   9.590  22.828  0.00  0.00    +0.000 C 
ATOM     24  C   UNL     1       0.140  10.319  21.637  0.00  0.00    +0.000 A 
ATOM     25  N   UNL     1       0.459  11.615  21.794  0.00  0.00    +0.000 NA
ATOM     26  C   UNL     1       0.956  12.234  20.707  0.00  0.00    +0.000 A 
ATOM     27  C   UNL     1       1.132  11.610  19.487  0.00  0.00    +0.000 A 
ATOM     28  C   UNL     1       0.774  10.278  19.424  0.00  0.00    +0.000 A 
ATOM     29  N   UNL     1       0.273   9.618  20.487  0.00  0.00    +0.000 NA
ENDBRANCH  22  28
ENDBRANCH  21  22
ENDBRANCH   1  21
TORSDOF 4
ENDMDL
MODEL 4
REMARK VINA RESULT:      -8.2      4.585      6.086
REMARK  Name = 
REMARK  6 active torsions:
REMARK  status: ('A' for Active; 'I' for Inactive)
REMARK    1  A    between atoms: C_1  and  C_2
REMARK    2  A    between atoms: C_6  and  C_7
REMARK    3  A    between atoms: C_7  and  C_8
REMARK    4  A    between atoms: C_8  and  C_9
REMARK    5  A    between atoms: C_17  and  C_18
REMARK    6  A    between atoms: N_25  and  C_26
REMARK                            x       y       z     vdW  Elec       q    Type
REMARK                         _______ _______ _______ _____ _____    ______ ____
ROOT
ATOM      1  C   UNL     1       6.025   4.629  17.813  0.00  0.00    +0.000 C 
ATOM      2  O   UNL     1       6.616   4.389  18.869  0.00  0.00    +0.000 OA
ATOM      3  N   UNL     1       4.715   4.265  17.537  0.00  0.00    +0.000 N 
ATOM      4  C   UNL     1       4.043   3.462  18.438  0.00  0.00    +0.000 A 
ATOM      5  N   UNL     1       4.019   2.116  18.365  0.00  0.00    +0.000 NA
ATOM      6  N   UNL     1       3.295   1.730  19.465  0.00  0.00    +0.000 N 
ATOM      7  C   UNL     1       2.732   2.785  20.095  0.00  0.00    +0.000 A 
ATOM      8  C   UNL     1       3.182   3.862  19.442  0.00  0.00    +0.000 A 
ATOM      9  C   UNL     1       2.558   4.996  19.936  0.00  0.00    +0.000 A 
ATOM     10  N   UNL     1       1.792   4.619  20.997  0.00  0.00    +0.000 NA
ATOM     11  N   UNL     1       1.932   3.262  21.075  0.00  0.00    +0.000 N 
ATOM     12  C   UNL     1       1.246   2.527  22.107  0.00  0.00    +0.000 C 
ATOM     13  H   UNL     1       4.529   4.038  16.571  0.00  0.00    +0.000 HD
ATOM     14  H   UNL     1       3.223   0.740  19.668  0.00  0.00    +0.000 HD
ENDROOT
BRANCH   9  15
ATOM     15  C   UNL     1       2.524   6.349  19.393  0.00  0.00    +0.000 A 
ATOM     16  C   UNL     1       2.995   6.601  18.094  0.00  0.00    +0.000 A 
ATOM     17  C   UNL     1       2.847   7.847  17.497  0.00  0.00    +0.000 A 
ATOM     18  C   UNL     1       2.200   8.858  18.187  0.00  0.00    +0.000 A 
ATOM     19  C   UNL     1       1.741   8.634  19.486  0.00  0.00    +0.000 A 
ATOM     20  C   UNL     1       1.913   7.388  20.095  0.00  0.00    +0.000 A 
ENDBRANCH   9  15
BRANCH   1  21
ATOM     21  C   UNL     1       6.667   5.456  16.710  0.00  0.00    +0.000 C 
BRANCH  21  22
ATOM     22  C   UNL     1       5.739   5.585  15.494  0.00  0.00    +0.000 C 
BRANCH  22  28
ATOM     23  C   UNL     1       5.229   2.471  11.746  0.00  0.00    +0.000 C 
ATOM     24  C   UNL     1       6.042   3.525  12.439  0.00  0.00    +0.000 A 
ATOM     25  N   UNL     1       7.202   3.892  11.868  0.00  0.00    +0.000 NA
ATOM     26  C   UNL     1       7.900   4.845  12.514  0.00  0.00    +0.000 A 
ATOM     27  C   UNL     1       7.484   5.426  13.697  0.00  0.00    +0.000 A 
ATOM     28  C   UNL     1       6.280   4.982  14.206  0.00  0.00    +0.000 A 
ATOM     29  N   UNL     1       5.548   4.031  13.593  0.00  0.00    +0.000 NA
ENDBRANCH  22  28
ENDBRANCH  21  22
ENDBRANCH   1  21
TORSDOF 4
ENDMDL
MODEL 5
REMARK VINA RESULT:      -8.1      3.895      5.322
REMARK  Name = 
REMARK  6 active torsions:
REMARK  status: ('A' for Active; 'I' for Inactive)
REMARK    1  A    between atoms: C_1  and  C_2
REMARK    2  A    between atoms: C_6  and  C_7
REMARK    3  A    between atoms: C_7  and  C_8
REMARK    4  A    between atoms: C_8  and  C_9
REMARK    5  A    between atoms: C_17  and  C_18
REMARK    6  A    between atoms: N_25  and  C_26
REMARK                            x       y       z     vdW  Elec       q    Type
REMARK                         _______ _______ _______ _____ _____    ______ ____
ROOT
ATOM      1  C   UNL     1       6.639   5.279  19.056  0.00  0.00    +0.000 C 
ATOM      2  O   UNL     1       6.942   5.223  20.251  0.00  0.00    +0.000 OA
ATOM      3  N   UNL     1       5.534   4.662  18.489  0.00  0.00    +0.000 N 
ATOM      4  C   UNL     1       4.773   3.811  19.267  0.00  0.00    +0.000 A 
ATOM      5  N   UNL     1       4.984   2.483  19.344  0.00  0.00    +0.000 NA
ATOM      6  N   UNL     1       4.053   2.044  20.251  0.00  0.00    +0.000 N 
ATOM      7  C   UNL     1       3.176   3.017  20.586  0.00  0.00    +0.000 A 
ATOM      8  C   UNL     1       3.613   4.112  19.956  0.00  0.00    +0.000 A 
ATOM      9  C   UNL     1       2.705   5.142  20.134  0.00  0.00    +0.000 A 
ATOM     10  N   UNL     1       1.743   4.703  20.993  0.00  0.00    +0.000 NA
ATOM     11  N   UNL     1       2.069   3.403  21.259  0.00  0.00    +0.000 N 
ATOM     12  C   UNL     1       1.247   2.625  22.152  0.00  0.00    +0.000 C 
ATOM     13  H   UNL     1       5.664   4.341  17.540  0.00  0.00    +0.000 HD
ATOM     14  H   UNL     1       4.084   1.073  20.541  0.00  0.00    +0.000 HD
ENDROOT
BRANCH   9  15
ATOM     15  C   UNL     1       2.609   6.427  19.450  0.00  0.00    +0.000 A 
ATOM     16  C   UNL     1       3.059   6.557  18.126  0.00  0.00    +0.000 A 
ATOM     17  C   UNL     1       2.854   7.725  17.400  0.00  0.00    +0.000 A 
ATOM     18  C   UNL     1       2.171   8.776  17.987  0.00  0.00    +0.000 A 
ATOM     19  C   UNL     1       1.733   8.675  19.308  0.00  0.00    +0.000 A 
ATOM     20  C   UNL     1       1.962   7.510  20.045  0.00  0.00    +0.000 A 
ENDBRANCH   9  15
BRANCH   1  21
ATOM     21  C   UNL     1       7.424   6.134  18.074  0.00  0.00    +0.000 C 
BRANCH  21  22
ATOM     22  C   UNL     1       6.527   6.654  16.942  0.00  0.00    +0.000 C 
BRANCH  22  28
ATOM     23  C   UNL     1       8.313   5.182  12.624  0.00  0.00    +0.000 C 
ATOM     24  C   UNL     1       7.275   5.044  13.699  0.00  0.00    +0.000 A 
ATOM     25  N   UNL     1       6.328   4.106  13.533  0.00  0.00    +0.000 NA
ATOM     26  C   UNL     1       5.419   4.006  14.521  0.00  0.00    +0.000 A 
ATOM     27  C   UNL     1       5.424   4.809  15.646  0.00  0.00    +0.000 A 
ATOM     28  C   UNL     1       6.436   5.745  15.726  0.00  0.00    +0.000 A 
ATOM     29  N   UNL     1       7.368   5.879  14.761  0.00  0.00    +0.000 NA
ENDBRANCH  22  28
ENDBRANCH  21  22
ENDBRANCH   1  21
TORSDOF 4
ENDMDL
MODEL 6
REMARK VINA RESULT:      -8.1      0.962      1.616
REMARK  Name = 
REMARK  6 active torsions:
REMARK  status: ('A' for Active; 'I' for Inactive)
REMARK    1  A    between atoms: C_1  and  C_2
REMARK    2  A    between atoms: C_6  and  C_7
REMARK    3  A    between atoms: C_7  and  C_8
REMARK    4  A    between atoms: C_8  and  C_9
REMARK    5  A    between atoms: C_17  and  C_18
REMARK    6  A    between atoms: N_25  and  C_26
REMARK                            x       y       z     vdW  Elec       q    Type
REMARK                         _______ _______ _______ _____ _____    ______ ____
ROOT
ATOM      1  C   UNL     1       6.973   7.325  17.683  0.00  0.00    +0.000 C 
ATOM      2  O   UNL     1       7.477   6.645  18.582  0.00  0.00    +0.000 OA
ATOM      3  N   UNL     1       6.051   6.859  16.758  0.00  0.00    +0.000 N 
ATOM      4  C   UNL     1       5.754   5.510  16.734  0.00  0.00    +0.000 A 
ATOM      5  N   UNL     1       6.399   4.618  15.956  0.00  0.00    +0.000 NA
ATOM      6  N   UNL     1       5.831   3.412  16.281  0.00  0.00    +0.000 N 
ATOM      7  C   UNL     1       4.755   3.561  17.085  0.00  0.00    +0.000 A 
ATOM      8  C   UNL     1       4.695   4.870  17.350  0.00  0.00    +0.000 A 
ATOM      9  C   UNL     1       3.544   5.145  18.070  0.00  0.00    +0.000 A 
ATOM     10  N   UNL     1       2.940   3.958  18.354  0.00  0.00    +0.000 NA
ATOM     11  N   UNL     1       3.714   3.009  17.749  0.00  0.00    +0.000 N 
ATOM     12  C   UNL     1       3.356   1.617  17.853  0.00  0.00    +0.000 C 
ATOM     13  H   UNL     1       6.115   7.279  15.842  0.00  0.00    +0.000 HD
ATOM     14  H   UNL     1       6.227   2.571  15.878  0.00  0.00    +0.000 HD
ENDROOT
BRANCH   9  15
ATOM     15  C   UNL     1       2.919   6.428  18.369  0.00  0.00    +0.000 A 
ATOM     16  C   UNL     1       2.412   6.685  19.653  0.00  0.00    +0.000 A 
ATOM     17  C   UNL     1       1.939   7.942  20.010  0.00  0.00    +0.000 A 
ATOM     18  C   UNL     1       1.991   8.973  19.087  0.00  0.00    +0.000 A 
ATOM     19  C   UNL     1       2.473   8.735  17.799  0.00  0.00    +0.000 A 
ATOM     20  C   UNL     1       2.924   7.464  17.434  0.00  0.00    +0.000 A 
ENDBRANCH   9  15
BRANCH   1  21
ATOM     21  C   UNL     1       7.256   8.814  17.556  0.00  0.00    +0.000 C 
BRANCH  21  22
ATOM     22  C   UNL     1       8.728   9.133  17.856  0.00  0.00    +0.000 C 
BRANCH  22  28
ATOM     23  C   UNL     1       8.684  14.031  17.932  0.00  0.00    +0.000 C 
ATOM     24  C   UNL     1       8.937  12.737  18.649  0.00  0.00    +0.000 A 
ATOM     25  N   UNL     1       9.342  12.804  19.929  0.00  0.00    +0.000 NA
ATOM     26  C   UNL     1       9.552  11.624  20.542  0.00  0.00    +0.000 A 
ATOM     27  C   UNL     1       9.380  10.400  19.922  0.00  0.00    +0.000 A 
ATOM     28  C   UNL     1       8.963  10.435  18.606  0.00  0.00    +0.000 A 
ATOM     29  N   UNL     1       8.740  11.593  17.953  0.00  0.00    +0.000 NA
ENDBRANCH  22  28
ENDBRANCH  21  22
ENDBRANCH   1  21
TORSDOF 4
ENDMDL
MODEL 7
REMARK VINA RESULT:      -8.1      3.959      6.710
REMARK  Name = 
REMARK  6 active torsions:
REMARK  status: ('A' for Active; 'I' for Inactive)
REMARK    1  A    between atoms: C_1  and  C_2
REMARK    2  A    between atoms: C_6  and  C_7
REMARK    3  A    between atoms: C_7  and  C_8
REMARK    4  A    between atoms: C_8  and  C_9
REMARK    5  A    between atoms: C_17  and  C_18
REMARK    6  A    between atoms: N_25  and  C_26
REMARK                            x       y       z     vdW  Elec       q    Type
REMARK                         _______ _______ _______ _____ _____    ______ ____
ROOT
ATOM      1  C   UNL     1       2.080   7.800  18.380  0.00  0.00    +0.000 C 
ATOM      2  O   UNL     1       1.538   7.277  17.402  0.00  0.00    +0.000 OA
ATOM      3  N   UNL     1       2.630   7.106  19.448  0.00  0.00    +0.000 N 
ATOM      4  C   UNL     1       2.458   5.737  19.512  0.00  0.00    +0.000 A 
ATOM      5  N   UNL     1       1.437   5.143  20.160  0.00  0.00    +0.000 NA
ATOM      6  N   UNL     1       1.623   3.803  19.929  0.00  0.00    +0.000 N 
ATOM      7  C   UNL     1       2.806   3.554  19.326  0.00  0.00    +0.000 A 
ATOM      8  C   UNL     1       3.336   4.759  19.085  0.00  0.00    +0.000 A 
ATOM      9  C   UNL     1       4.616   4.608  18.579  0.00  0.00    +0.000 A 
ATOM     10  N   UNL     1       4.835   3.276  18.394  0.00  0.00    +0.000 NA
ATOM     11  N   UNL     1       3.703   2.662  18.849  0.00  0.00    +0.000 N 
ATOM     12  C   UNL     1       3.595   1.225  18.797  0.00  0.00    +0.000 C 
ATOM     13  H   UNL     1       2.555   7.570  20.342  0.00  0.00    +0.000 HD
ATOM     14  H   UNL     1       0.911   3.157  20.250  0.00  0.00    +0.000 HD
ENDROOT
BRANCH   9  15
ATOM     15  C   UNL     1       5.668   5.602  18.403  0.00  0.00    +0.000 A 
ATOM     16  C   UNL     1       6.865   5.500  19.131  0.00  0.00    +0.000 A 
ATOM     17  C   UNL     1       7.940   6.346  18.885  0.00  0.00    +0.000 A 
ATOM     18  C   UNL     1       7.839   7.297  17.883  0.00  0.00    +0.000 A 
ATOM     19  C   UNL     1       6.651   7.428  17.161  0.00  0.00    +0.000 A 
ATOM     20  C   UNL     1       5.563   6.594  17.427  0.00  0.00    +0.000 A 
ENDBRANCH   9  15
BRANCH   1  21
ATOM     21  C   UNL     1       2.285   9.304  18.467  0.00  0.00    +0.000 C 
BRANCH  21  22
ATOM     22  C   UNL     1       0.945  10.055  18.449  0.00  0.00    +0.000 C 
BRANCH  22  28
ATOM     23  C   UNL     1      -0.463   9.767  23.133  0.00  0.00    +0.000 C 
ATOM     24  C   UNL     1      -0.075  10.616  21.957  0.00  0.00    +0.000 A 
ATOM     25  N   UNL     1      -0.056  11.948  22.132  0.00  0.00    +0.000 NA
ATOM     26  C   UNL     1       0.304  12.677  21.059  0.00  0.00    +0.000 A 
ATOM     27  C   UNL     1       0.630  12.123  19.835  0.00  0.00    +0.000 A 
ATOM     28  C   UNL     1       0.580  10.746  19.753  0.00  0.00    +0.000 A 
ATOM     29  N   UNL     1       0.226   9.977  20.802  0.00  0.00    +0.000 NA
ENDBRANCH  22  28
ENDBRANCH  21  22
ENDBRANCH   1  21
TORSDOF 4
ENDMDL
MODEL 8
REMARK VINA RESULT:      -8.0      3.929      6.441
REMARK  Name = 
REMARK  6 active torsions:
REMARK  status: ('A' for Active; 'I' for Inactive)
REMARK    1  A    between atoms: C_1  and  C_2
REMARK    2  A    between atoms: C_6  and  C_7
REMARK    3  A    between atoms: C_7  and  C_8
REMARK    4  A    between atoms: C_8  and  C_9
REMARK    5  A    between atoms: C_17  and  C_18
REMARK    6  A    between atoms: N_25  and  C_26
REMARK                            x       y       z     vdW  Elec       q    Type
REMARK                         _______ _______ _______ _____ _____    ______ ____
ROOT
ATOM      1  C   UNL     1       2.286   7.382  18.272  0.00  0.00    +0.000 C 
ATOM      2  O   UNL     1       1.724   6.576  17.526  0.00  0.00    +0.000 OA
ATOM      3  N   UNL     1       2.976   7.047  19.427  0.00  0.00    +0.000 N 
ATOM      4  C   UNL     1       2.939   5.739  19.870  0.00  0.00    +0.000 A 
ATOM      5  N   UNL     1       2.028   5.275  20.748  0.00  0.00    +0.000 NA
ATOM      6  N   UNL     1       2.321   3.939  20.865  0.00  0.00    +0.000 N 
ATOM      7  C   UNL     1       3.474   3.617  20.238  0.00  0.00    +0.000 A 
ATOM      8  C   UNL     1       3.869   4.744  19.635  0.00  0.00    +0.000 A 
ATOM      9  C   UNL     1       5.116   4.551  19.065  0.00  0.00    +0.000 A 
ATOM     10  N   UNL     1       5.445   3.238  19.221  0.00  0.00    +0.000 NA
ATOM     11  N   UNL     1       4.412   2.694  19.930  0.00  0.00    +0.000 N 
ATOM     12  C   UNL     1       4.436   1.294  20.273  0.00  0.00    +0.000 C 
ATOM     13  H   UNL     1       2.925   7.730  20.169  0.00  0.00    +0.000 HD
ATOM     14  H   UNL     1       1.698   3.357  21.413  0.00  0.00    +0.000 HD
ENDROOT
BRANCH   9  15
ATOM     15  C   UNL     1       6.056   5.530  18.530  0.00  0.00    +0.000 A 
ATOM     16  C   UNL     1       5.683   6.352  17.454  0.00  0.00    +0.000 A 
ATOM     17  C   UNL     1       6.500   7.387  17.013  0.00  0.00    +0.000 A 
ATOM     18  C   UNL     1       7.697   7.630  17.665  0.00  0.00    +0.000 A 
ATOM     19  C   UNL     1       8.095   6.814  18.724  0.00  0.00    +0.000 A 
ATOM     20  C   UNL     1       7.285   5.758  19.149  0.00  0.00    +0.000 A 
ENDBRANCH   9  15
BRANCH   1  21
ATOM     21  C   UNL     1       2.355   8.864  17.935  0.00  0.00    +0.000 C 
BRANCH  21  22
ATOM     22  C   UNL     1       0.989   9.543  18.109  0.00  0.00    +0.000 C 
BRANCH  22  28
ATOM     23  C   UNL     1       1.334  13.553  20.902  0.00  0.00    +0.000 C 
ATOM     24  C   UNL     1       0.933  12.113  20.765  0.00  0.00    +0.000 A 
ATOM     25  N   UNL     1       0.390  11.514  21.838  0.00  0.00    +0.000 NA
ATOM     26  C   UNL     1       0.036  10.226  21.676  0.00  0.00    +0.000 A 
ATOM     27  C   UNL     1       0.213   9.528  20.495  0.00  0.00    +0.000 A 
ATOM     28  C   UNL     1       0.779  10.229  19.450  0.00  0.00    +0.000 A 
ATOM     29  N   UNL     1       1.149  11.520  19.568  0.00  0.00    +0.000 NA
ENDBRANCH  22  28
ENDBRANCH  21  22
ENDBRANCH   1  21
TORSDOF 4
ENDMDL
MODEL 9
REMARK VINA RESULT:      -8.0      3.970      6.942
REMARK  Name = 
REMARK  6 active torsions:
REMARK  status: ('A' for Active; 'I' for Inactive)
REMARK    1  A    between atoms: C_1  and  C_2
REMARK    2  A    between atoms: C_6  and  C_7
REMARK    3  A    between atoms: C_7  and  C_8
REMARK    4  A    between atoms: C_8  and  C_9
REMARK    5  A    between atoms: C_17  and  C_18
REMARK    6  A    between atoms: N_25  and  C_26
REMARK                            x       y       z     vdW  Elec       q    Type
REMARK                         _______ _______ _______ _____ _____    ______ ____
ROOT
ATOM      1  C   UNL     1       2.018   7.728  18.752  0.00  0.00    +0.000 C 
ATOM      2  O   UNL     1       1.423   7.263  17.776  0.00  0.00    +0.000 OA
ATOM      3  N   UNL     1       2.644   6.972  19.733  0.00  0.00    +0.000 N 
ATOM      4  C   UNL     1       2.496   5.599  19.713  0.00  0.00    +0.000 A 
ATOM      5  N   UNL     1       1.525   4.944  20.380  0.00  0.00    +0.000 NA
ATOM      6  N   UNL     1       1.714   3.627  20.045  0.00  0.00    +0.000 N 
ATOM      7  C   UNL     1       2.860   3.440  19.353  0.00  0.00    +0.000 A 
ATOM      8  C   UNL     1       3.357   4.668  19.165  0.00  0.00    +0.000 A 
ATOM      9  C   UNL     1       4.605   4.576  18.570  0.00  0.00    +0.000 A 
ATOM     10  N   UNL     1       4.830   3.264  18.280  0.00  0.00    +0.000 NA
ATOM     11  N   UNL     1       3.737   2.599  18.761  0.00  0.00    +0.000 N 
ATOM     12  C   UNL     1       3.646   1.168  18.616  0.00  0.00    +0.000 C 
ATOM     13  H   UNL     1       2.620   7.372  20.660  0.00  0.00    +0.000 HD
ATOM     14  H   UNL     1       1.033   2.947  20.364  0.00  0.00    +0.000 HD
ENDROOT
BRANCH   9  15
ATOM     15  C   UNL     1       5.631   5.598  18.399  0.00  0.00    +0.000 A 
ATOM     16  C   UNL     1       6.841   5.510  19.107  0.00  0.00    +0.000 A 
ATOM     17  C   UNL     1       7.891   6.387  18.862  0.00  0.00    +0.000 A 
ATOM     18  C   UNL     1       7.752   7.355  17.881  0.00  0.00    +0.000 A 
ATOM     19  C   UNL     1       6.551   7.472  17.180  0.00  0.00    +0.000 A 
ATOM     20  C   UNL     1       5.487   6.606  17.445  0.00  0.00    +0.000 A 
ENDBRANCH   9  15
BRANCH   1  21
ATOM     21  C   UNL     1       2.208   9.226  18.931  0.00  0.00    +0.000 C 
BRANCH  21  22
ATOM     22  C   UNL     1       0.862   9.945  19.101  0.00  0.00    +0.000 C 
BRANCH  22  28
ATOM     23  C   UNL     1      -0.915  12.947  22.541  0.00  0.00    +0.000 C 
ATOM     24  C   UNL     1      -0.403  11.588  22.161  0.00  0.00    +0.000 A 
ATOM     25  N   UNL     1      -0.365  10.648  23.120  0.00  0.00    +0.000 NA
ATOM     26  C   UNL     1       0.093   9.440  22.741  0.00  0.00    +0.000 A 
ATOM     27  C   UNL     1       0.514   9.152  21.456  0.00  0.00    +0.000 A 
ATOM     28  C   UNL     1       0.439  10.183  20.542  0.00  0.00    +0.000 A 
ATOM     29  N   UNL     1      -0.014  11.408  20.877  0.00  0.00    +0.000 NA
ENDBRANCH  22  28
ENDBRANCH  21  22
ENDBRANCH   1  21
TORSDOF 4
ENDMDL
