MODEL 1
REMARK VINA RESULT:      -8.2      0.000      0.000
REMARK  Name = 
REMARK  7 active torsions:
REMARK  status: ('A' for Active; 'I' for Inactive)
REMARK    1  A    between atoms: C_1  and  C_2
REMARK    2  A    between atoms: C_4  and  C_5
REMARK    3  A    between atoms: C_9  and  N_10
REMARK    4  A    between atoms: C_11  and  C_13
REMARK    5  A    between atoms: C_13  and  C_14
REMARK    6  A    between atoms: C_13  and  N_15
REMARK    7  A    between atoms: C_13  and  C_16
REMARK                            x       y       z     vdW  Elec       q    Type
REMARK                         _______ _______ _______ _____ _____    ______ ____
ROOT
ATOM      1  N   UNL     1       3.136   6.173  18.800  0.00  0.00    +0.000 N 
ATOM      2  C   UNL     1       2.682   4.993  18.215  0.00  0.00    +0.000 C 
ATOM      3  O   UNL     1       1.575   4.832  17.703  0.00  0.00    +0.000 OA
ATOM      4  H   UNL     1       4.121   6.166  19.051  0.00  0.00    +0.000 HD
ENDROOT
BRANCH   1   9
ATOM      5  C   UNL     1       1.090   8.993  20.133  0.00  0.00    +0.000 A 
ATOM      6  C   UNL     1       1.158   9.896  19.063  0.00  0.00    +0.000 A 
ATOM      7  C   UNL     1       1.824   9.555  17.893  0.00  0.00    +0.000 A 
ATOM      8  C   UNL     1       2.450   8.315  17.788  0.00  0.00    +0.000 A 
ATOM      9  C   UNL     1       2.429   7.400  18.847  0.00  0.00    +0.000 A 
ATOM     10  C   UNL     1       1.712   7.732  20.008  0.00  0.00    +0.000 A 
BRANCH   5  14
ATOM     11  C   UNL     1      -1.769  11.557  23.224  0.00  0.00    +0.000 C 
ATOM     12  C   UNL     1      -0.844  10.572  22.624  0.00  0.00    +0.000 A 
ATOM     13  N   UNL     1      -0.495  10.455  21.368  0.00  0.00    +0.000 NA
ATOM     14  C   UNL     1       0.416   9.412  21.359  0.00  0.00    +0.000 A 
ATOM     15  N   UNL     1       0.630   8.880  22.575  0.00  0.00    +0.000 NA
ATOM     16  N   UNL     1      -0.168   9.634  23.353  0.00  0.00    +0.000 N 
ATOM     17  H   UNL     1      -0.196   9.461  24.351  0.00  0.00    +0.000 HD
ENDBRANCH   5  14
ENDBRANCH   1   9
BRANCH   2  18
ATOM     18  C   UNL     1       3.731   3.828  18.218  0.00  0.00    +0.000 C 
ATOM     19  C   UNL     1       4.150   3.578  19.689  0.00  0.00    +0.000 C 
BRANCH  18  20
ATOM     20  C   UNL     1       4.941   4.190  17.344  0.00  0.00    +0.000 A 
ATOM     21  C   UNL     1       6.202   4.448  17.916  0.00  0.00    +0.000 A 
ATOM     22  C   UNL     1       7.326   4.687  17.122  0.00  0.00    +0.000 A 
ATOM     23  C   UNL     1       7.212   4.703  15.737  0.00  0.00    +0.000 A 
ATOM     24  C   UNL     1       5.966   4.508  15.146  0.00  0.00    +0.000 A 
ATOM     25  C   UNL     1       4.841   4.265  15.942  0.00  0.00    +0.000 A 
ENDBRANCH  18  20
BRANCH  18  26
ATOM     26  N   UNL     1       3.081   2.564  17.745  0.00  0.00    +0.000 NA
ATOM     27  H   UNL     1       3.817   1.882  17.557  0.00  0.00    +0.000 HD
ATOM     28  H   UNL     1       2.683   2.767  16.826  0.00  0.00    +0.000 HD
ENDBRANCH  18  26
ENDBRANCH   2  18
TORSDOF 5
ENDMDL
MODEL 2
REMARK VINA RESULT:      -7.8      2.320      8.086
REMARK  Name = 
REMARK  7 active torsions:
REMARK  status: ('A' for Active; 'I' for Inactive)
REMARK    1  A    between atoms: C_1  and  C_2
REMARK    2  A    between atoms: C_4  and  C_5
REMARK    3  A    between atoms: C_9  and  N_10
REMARK    4  A    between atoms: C_11  and  C_13
REMARK    5  A    between atoms: C_13  and  C_14
REMARK    6  A    between atoms: C_13  and  N_15
REMARK    7  A    between atoms: C_13  and  C_16
REMARK                            x       y       z     vdW  Elec       q    Type
REMARK                         _______ _______ _______ _____ _____    ______ ____
ROOT
ATOM      1  N   UNL     1       1.512   6.863  21.036  0.00  0.00    +0.000 N 
ATOM      2  C   UNL     1       1.437   8.109  20.420  0.00  0.00    +0.000 C 
ATOM      3  O   UNL     1       1.836   8.367  19.284  0.00  0.00    +0.000 OA
ATOM      4  H   UNL     1       1.013   6.802  21.921  0.00  0.00    +0.000 HD
ENDROOT
BRANCH   1   9
ATOM      5  C   UNL     1       3.760   4.525  19.194  0.00  0.00    +0.000 A 
ATOM      6  C   UNL     1       3.095   3.307  19.395  0.00  0.00    +0.000 A 
ATOM      7  C   UNL     1       1.889   3.267  20.083  0.00  0.00    +0.000 A 
ATOM      8  C   UNL     1       1.345   4.442  20.597  0.00  0.00    +0.000 A 
ATOM      9  C   UNL     1       1.995   5.672  20.443  0.00  0.00    +0.000 A 
ATOM     10  C   UNL     1       3.189   5.711  19.704  0.00  0.00    +0.000 A 
BRANCH   5  14
ATOM     11  C   UNL     1       7.082   4.596  15.553  0.00  0.00    +0.000 C 
ATOM     12  C   UNL     1       6.413   4.553  16.871  0.00  0.00    +0.000 A 
ATOM     13  N   UNL     1       5.135   4.668  17.130  0.00  0.00    +0.000 NA
ATOM     14  C   UNL     1       5.046   4.513  18.502  0.00  0.00    +0.000 A 
ATOM     15  N   UNL     1       6.236   4.312  19.095  0.00  0.00    +0.000 NA
ATOM     16  N   UNL     1       7.077   4.333  18.045  0.00  0.00    +0.000 N 
ATOM     17  H   UNL     1       8.068   4.187  18.199  0.00  0.00    +0.000 HD
ENDBRANCH   5  14
ENDBRANCH   1   9
BRANCH   2  18
ATOM     18  C   UNL     1       0.752   9.219  21.289  0.00  0.00    +0.000 C 
ATOM     19  C   UNL     1      -0.482   8.582  21.975  0.00  0.00    +0.000 C 
BRANCH  18  20
ATOM     20  C   UNL     1       0.351  10.417  20.415  0.00  0.00    +0.000 A 
ATOM     21  C   UNL     1       1.102  11.609  20.423  0.00  0.00    +0.000 A 
ATOM     22  C   UNL     1       0.798  12.668  19.565  0.00  0.00    +0.000 A 
ATOM     23  C   UNL     1      -0.283  12.573  18.696  0.00  0.00    +0.000 A 
ATOM     24  C   UNL     1      -1.077  11.429  18.707  0.00  0.00    +0.000 A 
ATOM     25  C   UNL     1      -0.770  10.368  19.565  0.00  0.00    +0.000 A 
ENDBRANCH  18  20
BRANCH  18  26
ATOM     26  N   UNL     1       1.677   9.638  22.390  0.00  0.00    +0.000 NA
ATOM     27  H   UNL     1       2.621   9.337  22.141  0.00  0.00    +0.000 HD
ATOM     28  H   UNL     1       1.436   9.071  23.205  0.00  0.00    +0.000 HD
ENDBRANCH  18  26
ENDBRANCH   2  18
TORSDOF 5
ENDMDL
MODEL 3
REMARK VINA RESULT:      -7.7      2.760      8.187
REMARK  Name = 
REMARK  7 active torsions:
REMARK  status: ('A' for Active; 'I' for Inactive)
REMARK    1  A    between atoms: C_1  and  C_2
REMARK    2  A    between atoms: C_4  and  C_5
REMARK    3  A    between atoms: C_9  and  N_10
REMARK    4  A    between atoms: C_11  and  C_13
REMARK    5  A    between atoms: C_13  and  C_14
REMARK    6  A    between atoms: C_13  and  N_15
REMARK    7  A    between atoms: C_13  and  C_16
REMARK                            x       y       z     vdW  Elec       q    Type
REMARK                         _______ _______ _______ _____ _____    ______ ____
ROOT
ATOM      1  N   UNL     1       1.612   8.546  19.748  0.00  0.00    +0.000 N 
ATOM      2  C   UNL     1       1.525   9.310  18.587  0.00  0.00    +0.000 C 
ATOM      3  O   UNL     1       1.871   8.942  17.465  0.00  0.00    +0.000 OA
ATOM      4  H   UNL     1       1.157   8.960  20.558  0.00  0.00    +0.000 HD
ENDROOT
BRANCH   1   9
ATOM      5  C   UNL     1       3.704   5.503  19.222  0.00  0.00    +0.000 A 
ATOM      6  C   UNL     1       3.065   4.594  20.077  0.00  0.00    +0.000 A 
ATOM      7  C   UNL     1       1.923   4.965  20.775  0.00  0.00    +0.000 A 
ATOM      8  C   UNL     1       1.420   6.258  20.645  0.00  0.00    +0.000 A 
ATOM      9  C   UNL     1       2.048   7.201  19.825  0.00  0.00    +0.000 A 
ATOM     10  C   UNL     1       3.174   6.804  19.084  0.00  0.00    +0.000 A 
BRANCH   5  14
ATOM     11  C   UNL     1       6.963   4.648  15.623  0.00  0.00    +0.000 C 
ATOM     12  C   UNL     1       6.275   4.750  16.928  0.00  0.00    +0.000 A 
ATOM     13  N   UNL     1       5.114   5.296  17.187  0.00  0.00    +0.000 NA
ATOM     14  C   UNL     1       4.925   5.082  18.541  0.00  0.00    +0.000 A 
ATOM     15  N   UNL     1       5.943   4.425  19.124  0.00  0.00    +0.000 NA
ATOM     16  N   UNL     1       6.774   4.221  18.086  0.00  0.00    +0.000 N 
ATOM     17  H   UNL     1       7.641   3.719  18.234  0.00  0.00    +0.000 HD
ENDBRANCH   5  14
ENDBRANCH   1   9
BRANCH   2  18
ATOM     18  C   UNL     1       0.900  10.732  18.796  0.00  0.00    +0.000 C 
ATOM     19  C   UNL     1       1.146  11.141  20.270  0.00  0.00    +0.000 C 
BRANCH  18  20
ATOM     20  C   UNL     1      -0.600  10.716  18.462  0.00  0.00    +0.000 A 
ATOM     21  C   UNL     1      -1.491  11.626  19.064  0.00  0.00    +0.000 A 
ATOM     22  C   UNL     1      -2.837  11.678  18.697  0.00  0.00    +0.000 A 
ATOM     23  C   UNL     1      -3.334  10.800  17.740  0.00  0.00    +0.000 A 
ATOM     24  C   UNL     1      -2.489   9.851  17.172  0.00  0.00    +0.000 A 
ATOM     25  C   UNL     1      -1.139   9.802  17.537  0.00  0.00    +0.000 A 
ENDBRANCH  18  20
BRANCH  18  26
ATOM     26  N   UNL     1       1.630  11.732  17.954  0.00  0.00    +0.000 NA
ATOM     27  H   UNL     1       2.611  11.451  17.910  0.00  0.00    +0.000 HD
ATOM     28  H   UNL     1       1.641  12.607  18.483  0.00  0.00    +0.000 HD
ENDBRANCH  18  26
ENDBRANCH   2  18
TORSDOF 5
ENDMDL
MODEL 4
REMARK VINA RESULT:      -7.6      2.582      4.482
REMARK  Name = 
REMARK  7 active torsions:
REMARK  status: ('A' for Active; 'I' for Inactive)
REMARK    1  A    between atoms: C_1  and  C_2
REMARK    2  A    between atoms: C_4  and  C_5
REMARK    3  A    between atoms: C_9  and  N_10
REMARK    4  A    between atoms: C_11  and  C_13
REMARK    5  A    between atoms: C_13  and  C_14
REMARK    6  A    between atoms: C_13  and  N_15
REMARK    7  A    between atoms: C_13  and  C_16
REMARK                            x       y       z     vdW  Elec       q    Type
REMARK                         _______ _______ _______ _____ _____    ______ ____
ROOT
ATOM      1  N   UNL     1       2.138   7.153  19.998  0.00  0.00    +0.000 N 
ATOM      2  C   UNL     1       2.878   6.951  18.835  0.00  0.00    +0.000 C 
ATOM      3  O   UNL     1       2.966   7.747  17.901  0.00  0.00    +0.000 OA
ATOM      4  H   UNL     1       2.287   6.450  20.718  0.00  0.00    +0.000 HD
ENDROOT
BRANCH   1   9
ATOM      5  C   UNL     1      -0.066  10.139  19.625  0.00  0.00    +0.000 A 
ATOM      6  C   UNL     1      -0.167  10.559  20.959  0.00  0.00    +0.000 A 
ATOM      7  C   UNL     1       0.529   9.897  21.962  0.00  0.00    +0.000 A 
ATOM      8  C   UNL     1       1.318   8.793  21.645  0.00  0.00    +0.000 A 
ATOM      9  C   UNL     1       1.419   8.327  20.330  0.00  0.00    +0.000 A 
ATOM     10  C   UNL     1       0.751   9.031  19.315  0.00  0.00    +0.000 A 
BRANCH   5  14
ATOM     11  C   UNL     1      -2.950  10.934  15.707  0.00  0.00    +0.000 C 
ATOM     12  C   UNL     1      -2.101  11.093  16.907  0.00  0.00    +0.000 A 
ATOM     13  N   UNL     1      -1.586  10.154  17.660  0.00  0.00    +0.000 NA
ATOM     14  C   UNL     1      -0.849  10.839  18.610  0.00  0.00    +0.000 A 
ATOM     15  N   UNL     1      -0.904  12.175  18.466  0.00  0.00    +0.000 NA
ATOM     16  N   UNL     1      -1.690  12.306  17.383  0.00  0.00    +0.000 N 
ATOM     17  H   UNL     1      -1.895  13.232  17.027  0.00  0.00    +0.000 HD
ENDBRANCH   5  14
ENDBRANCH   1   9
BRANCH   2  18
ATOM     18  C   UNL     1       3.658   5.593  18.795  0.00  0.00    +0.000 C 
ATOM     19  C   UNL     1       4.254   5.435  17.374  0.00  0.00    +0.000 C 
BRANCH  18  20
ATOM     20  C   UNL     1       2.723   4.424  19.143  0.00  0.00    +0.000 A 
ATOM     21  C   UNL     1       2.715   3.856  20.432  0.00  0.00    +0.000 A 
ATOM     22  C   UNL     1       1.805   2.856  20.782  0.00  0.00    +0.000 A 
ATOM     23  C   UNL     1       0.899   2.378  19.842  0.00  0.00    +0.000 A 
ATOM     24  C   UNL     1       0.923   2.881  18.544  0.00  0.00    +0.000 A 
ATOM     25  C   UNL     1       1.832   3.885  18.196  0.00  0.00    +0.000 A 
ENDBRANCH  18  20
BRANCH  18  26
ATOM     26  N   UNL     1       4.822   5.652  19.736  0.00  0.00    +0.000 NA
ATOM     27  H   UNL     1       5.375   4.803  19.608  0.00  0.00    +0.000 HD
ATOM     28  H   UNL     1       4.439   5.565  20.680  0.00  0.00    +0.000 HD
ENDBRANCH  18  26
ENDBRANCH   2  18
TORSDOF 5
ENDMDL
MODEL 5
REMARK VINA RESULT:      -7.5      3.113      8.619
REMARK  Name = 
REMARK  7 active torsions:
REMARK  status: ('A' for Active; 'I' for Inactive)
REMARK    1  A    between atoms: C_1  and  C_2
REMARK    2  A    between atoms: C_4  and  C_5
REMARK    3  A    between atoms: C_9  and  N_10
REMARK    4  A    between atoms: C_11  and  C_13
REMARK    5  A    between atoms: C_13  and  C_14
REMARK    6  A    between atoms: C_13  and  N_15
REMARK    7  A    between atoms: C_13  and  C_16
REMARK                            x       y       z     vdW  Elec       q    Type
REMARK                         _______ _______ _______ _____ _____    ______ ____
ROOT
ATOM      1  N   UNL     1       1.785   9.007  18.439  0.00  0.00    +0.000 N 
ATOM      2  C   UNL     1       0.986   9.554  19.441  0.00  0.00    +0.000 C 
ATOM      3  O   UNL     1       0.745   9.026  20.526  0.00  0.00    +0.000 OA
ATOM      4  H   UNL     1       1.982   9.640  17.667  0.00  0.00    +0.000 HD
ENDROOT
BRANCH   1   9
ATOM      5  C   UNL     1       4.266   6.338  17.643  0.00  0.00    +0.000 A 
ATOM      6  C   UNL     1       4.083   5.475  18.733  0.00  0.00    +0.000 A 
ATOM      7  C   UNL     1       3.112   5.744  19.690  0.00  0.00    +0.000 A 
ATOM      8  C   UNL     1       2.328   6.890  19.579  0.00  0.00    +0.000 A 
ATOM      9  C   UNL     1       2.503   7.790  18.522  0.00  0.00    +0.000 A 
ATOM     10  C   UNL     1       3.453   7.487  17.533  0.00  0.00    +0.000 A 
BRANCH   5  14
ATOM     11  C   UNL     1       6.704   4.231  13.913  0.00  0.00    +0.000 C 
ATOM     12  C   UNL     1       6.307   5.077  15.058  0.00  0.00    +0.000 A 
ATOM     13  N   UNL     1       5.149   5.118  15.667  0.00  0.00    +0.000 NA
ATOM     14  C   UNL     1       5.327   6.038  16.686  0.00  0.00    +0.000 A 
ATOM     15  N   UNL     1       6.562   6.570  16.714  0.00  0.00    +0.000 NA
ATOM     16  N   UNL     1       7.159   5.942  15.686  0.00  0.00    +0.000 N 
ATOM     17  H   UNL     1       8.130   6.142  15.477  0.00  0.00    +0.000 HD
ENDBRANCH   5  14
ENDBRANCH   1   9
BRANCH   2  18
ATOM     18  C   UNL     1       0.406  10.969  19.103  0.00  0.00    +0.000 C 
ATOM     19  C   UNL     1       0.445  11.815  20.400  0.00  0.00    +0.000 C 
BRANCH  18  20
ATOM     20  C   UNL     1      -1.025  10.848  18.555  0.00  0.00    +0.000 A 
ATOM     21  C   UNL     1      -2.064  11.662  19.046  0.00  0.00    +0.000 A 
ATOM     22  C   UNL     1      -3.345  11.622  18.490  0.00  0.00    +0.000 A 
ATOM     23  C   UNL     1      -3.626  10.745  17.449  0.00  0.00    +0.000 A 
ATOM     24  C   UNL     1      -2.633   9.887  16.983  0.00  0.00    +0.000 A 
ATOM     25  C   UNL     1      -1.350   9.931  17.538  0.00  0.00    +0.000 A 
ENDBRANCH  18  20
BRANCH  18  26
ATOM     26  N   UNL     1       1.303  11.660  18.122  0.00  0.00    +0.000 NA
ATOM     27  H   UNL     1       0.930  12.597  17.959  0.00  0.00    +0.000 HD
ATOM     28  H   UNL     1       1.181  11.180  17.227  0.00  0.00    +0.000 HD
ENDBRANCH  18  26
ENDBRANCH   2  18
TORSDOF 5
ENDMDL
MODEL 6
REMARK VINA RESULT:      -7.5      2.512      3.482
REMARK  Name = 
REMARK  7 active torsions:
REMARK  status: ('A' for Active; 'I' for Inactive)
REMARK    1  A    between atoms: C_1  and  C_2
REMARK    2  A    between atoms: C_4  and  C_5
REMARK    3  A    between atoms: C_9  and  N_10
REMARK    4  A    between atoms: C_11  and  C_13
REMARK    5  A    between atoms: C_13  and  C_14
REMARK    6  A    between atoms: C_13  and  N_15
REMARK    7  A    between atoms: C_13  and  C_16
REMARK                            x       y       z     vdW  Elec       q    Type
REMARK                         _______ _______ _______ _____ _____    ______ ____
ROOT
ATOM      1  N   UNL     1       2.631   7.087  19.130  0.00  0.00    +0.000 N 
ATOM      2  C   UNL     1       2.757   5.786  19.611  0.00  0.00    +0.000 C 
ATOM      3  O   UNL     1       2.184   5.335  20.602  0.00  0.00    +0.000 OA
ATOM      4  H   UNL     1       3.072   7.246  18.228  0.00  0.00    +0.000 HD
ENDROOT
BRANCH   1   9
ATOM      5  C   UNL     1       0.101   9.824  19.262  0.00  0.00    +0.000 A 
ATOM      6  C   UNL     1      -0.064   9.964  20.647  0.00  0.00    +0.000 A 
ATOM      7  C   UNL     1       0.694   9.203  21.528  0.00  0.00    +0.000 A 
ATOM      8  C   UNL     1       1.609   8.276  21.033  0.00  0.00    +0.000 A 
ATOM      9  C   UNL     1       1.778   8.087  19.657  0.00  0.00    +0.000 A 
ATOM     10  C   UNL     1       1.044   8.895  18.773  0.00  0.00    +0.000 A 
BRANCH   5  14
ATOM     11  C   UNL     1      -3.075  10.974  15.671  0.00  0.00    +0.000 C 
ATOM     12  C   UNL     1      -2.128  11.023  16.805  0.00  0.00    +0.000 A 
ATOM     13  N   UNL     1      -1.573  10.019  17.436  0.00  0.00    +0.000 NA
ATOM     14  C   UNL     1      -0.748  10.615  18.375  0.00  0.00    +0.000 A 
ATOM     15  N   UNL     1      -0.787  11.959  18.342  0.00  0.00    +0.000 NA
ATOM     16  N   UNL     1      -1.655  12.188  17.341  0.00  0.00    +0.000 N 
ATOM     17  H   UNL     1      -1.869  13.143  17.078  0.00  0.00    +0.000 HD
ENDBRANCH   5  14
ENDBRANCH   1   9
BRANCH   2  18
ATOM     18  C   UNL     1       3.698   4.871  18.755  0.00  0.00    +0.000 C 
ATOM     19  C   UNL     1       3.896   3.544  19.531  0.00  0.00    +0.000 C 
BRANCH  18  20
ATOM     20  C   UNL     1       5.040   5.572  18.494  0.00  0.00    +0.000 A 
ATOM     21  C   UNL     1       6.166   5.317  19.301  0.00  0.00    +0.000 A 
ATOM     22  C   UNL     1       7.411   5.880  19.014  0.00  0.00    +0.000 A 
ATOM     23  C   UNL     1       7.556   6.737  17.929  0.00  0.00    +0.000 A 
ATOM     24  C   UNL     1       6.447   7.053  17.148  0.00  0.00    +0.000 A 
ATOM     25  C   UNL     1       5.201   6.485  17.434  0.00  0.00    +0.000 A 
ENDBRANCH  18  20
BRANCH  18  26
ATOM     26  N   UNL     1       3.018   4.511  17.471  0.00  0.00    +0.000 NA
ATOM     27  H   UNL     1       3.628   4.791  16.701  0.00  0.00    +0.000 HD
ATOM     28  H   UNL     1       2.206   5.127  17.387  0.00  0.00    +0.000 HD
ENDBRANCH  18  26
ENDBRANCH   2  18
TORSDOF 5
ENDMDL
MODEL 7
REMARK VINA RESULT:      -7.5      0.898      1.013
REMARK  Name = 
REMARK  7 active torsions:
REMARK  status: ('A' for Active; 'I' for Inactive)
REMARK    1  A    between atoms: C_1  and  C_2
REMARK    2  A    between atoms: C_4  and  C_5
REMARK    3  A    between atoms: C_9  and  N_10
REMARK    4  A    between atoms: C_11  and  C_13
REMARK    5  A    between atoms: C_13  and  C_14
REMARK    6  A    between atoms: C_13  and  N_15
REMARK    7  A    between atoms: C_13  and  C_16
REMARK                            x       y       z     vdW  Elec       q    Type
REMARK                         _______ _______ _______ _____ _____    ______ ____
ROOT
ATOM      1  N   UNL     1       3.075   6.746  18.812  0.00  0.00    +0.000 N 
ATOM      2  C   UNL     1       2.752   5.517  18.242  0.00  0.00    +0.000 C 
ATOM      3  O   UNL     1       1.661   5.224  17.753  0.00  0.00    +0.000 OA
ATOM      4  H   UNL     1       4.060   6.856  19.043  0.00  0.00    +0.000 HD
ENDROOT
BRANCH   1   9
ATOM      5  C   UNL     1       0.766   9.335  20.182  0.00  0.00    +0.000 A 
ATOM      6  C   UNL     1       0.684  10.217  19.096  0.00  0.00    +0.000 A 
ATOM      7  C   UNL     1       1.340   9.931  17.904  0.00  0.00    +0.000 A 
ATOM      8  C   UNL     1       2.103   8.770  17.795  0.00  0.00    +0.000 A 
ATOM      9  C   UNL     1       2.232   7.882  18.868  0.00  0.00    +0.000 A 
ATOM     10  C   UNL     1       1.527   8.153  20.052  0.00  0.00    +0.000 A 
BRANCH   5  14
ATOM     11  C   UNL     1      -1.967  11.837  23.434  0.00  0.00    +0.000 C 
ATOM     12  C   UNL     1      -1.104  10.839  22.767  0.00  0.00    +0.000 A 
ATOM     13  N   UNL     1      -0.735  10.802  21.512  0.00  0.00    +0.000 NA
ATOM     14  C   UNL     1       0.096   9.698  21.428  0.00  0.00    +0.000 A 
ATOM     15  N   UNL     1       0.241   9.050  22.597  0.00  0.00    +0.000 NA
ATOM     16  N   UNL     1      -0.516   9.793  23.423  0.00  0.00    +0.000 N 
ATOM     17  H   UNL     1      -0.581   9.539  24.402  0.00  0.00    +0.000 HD
ENDBRANCH   5  14
ENDBRANCH   1   9
BRANCH   2  18
ATOM     18  C   UNL     1       3.929   4.483  18.229  0.00  0.00    +0.000 C 
ATOM     19  C   UNL     1       4.771   4.714  19.508  0.00  0.00    +0.000 C 
BRANCH  18  20
ATOM     20  C   UNL     1       4.779   4.650  16.960  0.00  0.00    +0.000 A 
ATOM     21  C   UNL     1       5.432   3.550  16.371  0.00  0.00    +0.000 A 
ATOM     22  C   UNL     1       6.131   3.676  15.168  0.00  0.00    +0.000 A 
ATOM     23  C   UNL     1       6.218   4.913  14.539  0.00  0.00    +0.000 A 
ATOM     24  C   UNL     1       5.631   6.029  15.129  0.00  0.00    +0.000 A 
ATOM     25  C   UNL     1       4.929   5.901  16.332  0.00  0.00    +0.000 A 
ENDBRANCH  18  20
BRANCH  18  26
ATOM     26  N   UNL     1       3.379   3.093  18.332  0.00  0.00    +0.000 NA
ATOM     27  H   UNL     1       2.562   3.031  17.723  0.00  0.00    +0.000 HD
ATOM     28  H   UNL     1       2.999   2.999  19.277  0.00  0.00    +0.000 HD
ENDBRANCH  18  26
ENDBRANCH   2  18
TORSDOF 5
ENDMDL
MODEL 8
REMARK VINA RESULT:      -7.5      1.582      3.011
REMARK  Name = 
REMARK  7 active torsions:
REMARK  status: ('A' for Active; 'I' for Inactive)
REMARK    1  A    between atoms: C_1  and  C_2
REMARK    2  A    between atoms: C_4  and  C_5
REMARK    3  A    between atoms: C_9  and  N_10
REMARK    4  A    between atoms: C_11  and  C_13
REMARK    5  A    between atoms: C_13  and  C_14
REMARK    6  A    between atoms: C_13  and  N_15
REMARK    7  A    between atoms: C_13  and  C_16
REMARK                            x       y       z     vdW  Elec       q    Type
REMARK                         _______ _______ _______ _____ _____    ______ ____
ROOT
ATOM      1  N   UNL     1       2.765   6.312  18.610  0.00  0.00    +0.000 N 
ATOM      2  C   UNL     1       4.048   6.025  18.149  0.00  0.00    +0.000 C 
ATOM      3  O   UNL     1       4.856   6.854  17.730  0.00  0.00    +0.000 OA
ATOM      4  H   UNL     1       2.288   5.525  19.042  0.00  0.00    +0.000 HD
ENDROOT
BRANCH   1   9
ATOM      5  C   UNL     1       0.987   9.232  20.102  0.00  0.00    +0.000 A 
ATOM      6  C   UNL     1       1.205  10.205  19.116  0.00  0.00    +0.000 A 
ATOM      7  C   UNL     1       1.884   9.885  17.947  0.00  0.00    +0.000 A 
ATOM      8  C   UNL     1       2.371   8.593  17.760  0.00  0.00    +0.000 A 
ATOM      9  C   UNL     1       2.199   7.604  18.735  0.00  0.00    +0.000 A 
ATOM     10  C   UNL     1       1.469   7.923  19.892  0.00  0.00    +0.000 A 
BRANCH   5  14
ATOM     11  C   UNL     1      -1.759  11.822  23.273  0.00  0.00    +0.000 C 
ATOM     12  C   UNL     1      -0.897  10.803  22.636  0.00  0.00    +0.000 A 
ATOM     13  N   UNL     1      -0.516  10.738  21.385  0.00  0.00    +0.000 NA
ATOM     14  C   UNL     1       0.307   9.626  21.333  0.00  0.00    +0.000 A 
ATOM     15  N   UNL     1       0.434   9.001  22.516  0.00  0.00    +0.000 NA
ATOM     16  N   UNL     1      -0.326   9.767  23.319  0.00  0.00    +0.000 N 
ATOM     17  H   UNL     1      -0.403   9.533  24.302  0.00  0.00    +0.000 HD
ENDBRANCH   5  14
ENDBRANCH   1   9
BRANCH   2  18
ATOM     18  C   UNL     1       4.436   4.509  18.228  0.00  0.00    +0.000 C 
ATOM     19  C   UNL     1       4.769   4.034  16.791  0.00  0.00    +0.000 C 
BRANCH  18  20
ATOM     20  C   UNL     1       3.288   3.689  18.836  0.00  0.00    +0.000 A 
ATOM     21  C   UNL     1       3.210   3.463  20.224  0.00  0.00    +0.000 A 
ATOM     22  C   UNL     1       2.121   2.798  20.794  0.00  0.00    +0.000 A 
ATOM     23  C   UNL     1       1.098   2.317  19.986  0.00  0.00    +0.000 A 
ATOM     24  C   UNL     1       1.177   2.475  18.605  0.00  0.00    +0.000 A 
ATOM     25  C   UNL     1       2.266   3.145  18.036  0.00  0.00    +0.000 A 
ENDBRANCH  18  20
BRANCH  18  26
ATOM     26  N   UNL     1       5.694   4.352  19.026  0.00  0.00    +0.000 NA
ATOM     27  H   UNL     1       5.790   5.172  19.627  0.00  0.00    +0.000 HD
ATOM     28  H   UNL     1       6.470   4.430  18.365  0.00  0.00    +0.000 HD
ENDBRANCH  18  26
ENDBRANCH   2  18
TORSDOF 5
ENDMDL
MODEL 9
REMARK VINA RESULT:      -7.5      3.038      8.659
REMARK  Name = 
REMARK  7 active torsions:
REMARK  status: ('A' for Active; 'I' for Inactive)
REMARK    1  A    between atoms: C_1  and  C_2
REMARK    2  A    between atoms: C_4  and  C_5
REMARK    3  A    between atoms: C_9  and  N_10
REMARK    4  A    between atoms: C_11  and  C_13
REMARK    5  A    between atoms: C_13  and  C_14
REMARK    6  A    between atoms: C_13  and  N_15
REMARK    7  A    between atoms: C_13  and  C_16
REMARK                            x       y       z     vdW  Elec       q    Type
REMARK                         _______ _______ _______ _____ _____    ______ ____
ROOT
ATOM      1  N   UNL     1       2.043   8.907  18.412  0.00  0.00    +0.000 N 
ATOM      2  C   UNL     1       1.170   9.396  19.381  0.00  0.00    +0.000 C 
ATOM      3  O   UNL     1       0.810   8.787  20.388  0.00  0.00    +0.000 OA
ATOM      4  H   UNL     1       2.333   9.595  17.721  0.00  0.00    +0.000 HD
ENDROOT
BRANCH   1   9
ATOM      5  C   UNL     1       4.396   6.157  17.506  0.00  0.00    +0.000 A 
ATOM      6  C   UNL     1       4.198   5.277  18.579  0.00  0.00    +0.000 A 
ATOM      7  C   UNL     1       3.258   5.562  19.561  0.00  0.00    +0.000 A 
ATOM      8  C   UNL     1       2.520   6.743  19.493  0.00  0.00    +0.000 A 
ATOM      9  C   UNL     1       2.712   7.659  18.453  0.00  0.00    +0.000 A 
ATOM     10  C   UNL     1       3.629   7.340  17.438  0.00  0.00    +0.000 A 
BRANCH   5  14
ATOM     11  C   UNL     1       6.650   4.082  13.644  0.00  0.00    +0.000 C 
ATOM     12  C   UNL     1       6.322   4.895  14.835  0.00  0.00    +0.000 A 
ATOM     13  N   UNL     1       5.176   4.981  15.461  0.00  0.00    +0.000 NA
ATOM     14  C   UNL     1       5.425   5.837  16.521  0.00  0.00    +0.000 A 
ATOM     15  N   UNL     1       6.692   6.285  16.558  0.00  0.00    +0.000 NA
ATOM     16  N   UNL     1       7.236   5.671  15.492  0.00  0.00    +0.000 N 
ATOM     17  H   UNL     1       8.216   5.818  15.280  0.00  0.00    +0.000 HD
ENDBRANCH   5  14
ENDBRANCH   1   9
BRANCH   2  18
ATOM     18  C   UNL     1       0.669  10.858  19.117  0.00  0.00    +0.000 C 
ATOM     19  C   UNL     1       0.803  11.646  20.444  0.00  0.00    +0.000 C 
BRANCH  18  20
ATOM     20  C   UNL     1      -0.783  10.847  18.615  0.00  0.00    +0.000 A 
ATOM     21  C   UNL     1      -1.212   9.921  17.644  0.00  0.00    +0.000 A 
ATOM     22  C   UNL     1      -2.550   9.845  17.250  0.00  0.00    +0.000 A 
ATOM     23  C   UNL     1      -3.487  10.714  17.797  0.00  0.00    +0.000 A 
ATOM     24  C   UNL     1      -3.081  11.677  18.715  0.00  0.00    +0.000 A 
ATOM     25  C   UNL     1      -1.742  11.751  19.112  0.00  0.00    +0.000 A 
ENDBRANCH  18  20
BRANCH  18  26
ATOM     26  N   UNL     1       1.576  11.531  18.133  0.00  0.00    +0.000 NA
ATOM     27  H   UNL     1       2.378  11.903  18.646  0.00  0.00    +0.000 HD
ATOM     28  H   UNL     1       1.081  12.362  17.801  0.00  0.00    +0.000 HD
ENDBRANCH  18  26
ENDBRANCH   2  18
TORSDOF 5
ENDMDL
