MODEL 1
REMARK VINA RESULT:      -8.9      0.000      0.000
REMARK  Name = 
REMARK  5 active torsions:
REMARK  status: ('A' for Active; 'I' for Inactive)
REMARK    1  A    between atoms: C_1  and  C_2
REMARK    2  A    between atoms: C_2  and  N_3
REMARK    3  A    between atoms: C_8  and  C_9
REMARK    4  A    between atoms: N_11  and  C_12
REMARK    5  A    between atoms: C_16  and  C_17
REMARK                            x       y       z     vdW  Elec       q    Type
REMARK                         _______ _______ _______ _____ _____    ______ ____
ROOT
ATOM      1  C   UNL     1       0.479  10.215  18.924  0.00  0.00    +0.000 A 
ATOM      2  C   UNL     1       1.082  11.376  19.390  0.00  0.00    +0.000 A 
ATOM      3  C   UNL     1       0.476  12.617  19.149  0.00  0.00    +0.000 A 
ATOM      4  C   UNL     1      -0.782  12.700  18.525  0.00  0.00    +0.000 A 
ATOM      5  C   UNL     1      -1.429  11.538  18.104  0.00  0.00    +0.000 A 
ATOM      6  C   UNL     1      -0.742  10.318  18.260  0.00  0.00    +0.000 A 
ENDROOT
BRANCH   5   7
ATOM      7  C   UNL     1      -2.815  11.516  17.593  0.00  0.00    +0.000 A 
ATOM      8  N   UNL     1      -3.291  11.352  16.374  0.00  0.00    +0.000 NA
ATOM      9  N   UNL     1      -4.688  11.379  16.446  0.00  0.00    +0.000 NA
ATOM     10  C   UNL     1      -5.044  11.605  17.701  0.00  0.00    +0.000 A 
ATOM     11  N   UNL     1      -3.902  11.749  18.411  0.00  0.00    +0.000 N 
ATOM     12  C   UNL     1      -3.759  12.259  19.764  0.00  0.00    +0.000 C 
ATOM     13  C   UNL     1      -4.510  12.860  20.939  0.00  0.00    +0.000 C 
ATOM     14  C   UNL     1      -6.016  12.758  20.858  0.00  0.00    +0.000 C 
ATOM     15  C   UNL     1      -6.735  11.927  19.772  0.00  0.00    +0.000 C 
ATOM     16  C   UNL     1      -6.423  11.757  18.258  0.00  0.00    +0.000 C 
ENDBRANCH   5   7
BRANCH   1  19
ATOM     17  C   UNL     1       1.992   8.358  18.327  0.00  0.00    +0.000 C 
ATOM     18  O   UNL     1       2.501   8.848  17.325  0.00  0.00    +0.000 OA
ATOM     19  N   UNL     1       1.076   8.961  19.173  0.00  0.00    +0.000 N 
ATOM     20  H   UNL     1       0.937   8.557  20.092  0.00  0.00    +0.000 HD
BRANCH  17  26
ATOM     21  N   UNL     1       3.455   3.301  20.070  0.00  0.00    +0.000 N 
ATOM     22  N   UNL     1       2.771   3.242  21.219  0.00  0.00    +0.000 NA
ATOM     23  N   UNL     1       2.118   4.388  21.352  0.00  0.00    +0.000 NA
ATOM     24  C   UNL     1       2.410   5.170  20.272  0.00  0.00    +0.000 A 
ATOM     25  C   UNL     1       1.995   6.467  19.950  0.00  0.00    +0.000 A 
ATOM     26  C   UNL     1       2.445   7.016  18.740  0.00  0.00    +0.000 A 
ATOM     27  C   UNL     1       3.280   6.295  17.873  0.00  0.00    +0.000 A 
ATOM     28  C   UNL     1       3.719   5.017  18.197  0.00  0.00    +0.000 A 
ATOM     29  C   UNL     1       3.261   4.480  19.419  0.00  0.00    +0.000 A 
BRANCH  21  31
ATOM     30  C   UNL     1       3.781   1.399  18.525  0.00  0.00    +0.000 C 
ATOM     31  C   UNL     1       4.328   2.201  19.692  0.00  0.00    +0.000 C 
ENDBRANCH  21  31
ENDBRANCH  17  26
ENDBRANCH   1  19
TORSDOF 4
ENDMDL
MODEL 2
REMARK VINA RESULT:      -8.7      1.203      1.732
REMARK  Name = 
REMARK  5 active torsions:
REMARK  status: ('A' for Active; 'I' for Inactive)
REMARK    1  A    between atoms: C_1  and  C_2
REMARK    2  A    between atoms: C_2  and  N_3
REMARK    3  A    between atoms: C_8  and  C_9
REMARK    4  A    between atoms: N_11  and  C_12
REMARK    5  A    between atoms: C_16  and  C_17
REMARK                            x       y       z     vdW  Elec       q    Type
REMARK                         _______ _______ _______ _____ _____    ______ ____
ROOT
ATOM      1  C   UNL     1       0.154  10.472  19.350  0.00  0.00    +0.000 A 
ATOM      2  C   UNL     1       0.518  11.544  20.155  0.00  0.00    +0.000 A 
ATOM      3  C   UNL     1      -0.265  12.706  20.155  0.00  0.00    +0.000 A 
ATOM      4  C   UNL     1      -1.466  12.772  19.426  0.00  0.00    +0.000 A 
ATOM      5  C   UNL     1      -1.877  11.682  18.659  0.00  0.00    +0.000 A 
ATOM      6  C   UNL     1      -1.012  10.571  18.592  0.00  0.00    +0.000 A 
ENDROOT
BRANCH   5   7
ATOM      7  C   UNL     1      -3.195  11.599  17.999  0.00  0.00    +0.000 A 
ATOM      8  N   UNL     1      -3.525  11.451  16.731  0.00  0.00    +0.000 NA
ATOM      9  N   UNL     1      -4.921  11.398  16.649  0.00  0.00    +0.000 NA
ATOM     10  C   UNL     1      -5.424  11.560  17.863  0.00  0.00    +0.000 A 
ATOM     11  N   UNL     1      -4.377  11.743  18.698  0.00  0.00    +0.000 N 
ATOM     12  C   UNL     1      -4.412  12.214  20.073  0.00  0.00    +0.000 C 
ATOM     13  C   UNL     1      -5.320  12.731  21.173  0.00  0.00    +0.000 C 
ATOM     14  C   UNL     1      -6.799  12.548  20.924  0.00  0.00    +0.000 C 
ATOM     15  C   UNL     1      -7.346  11.715  19.743  0.00  0.00    +0.000 C 
ATOM     16  C   UNL     1      -6.862  11.615  18.268  0.00  0.00    +0.000 C 
ENDBRANCH   5   7
BRANCH   1  19
ATOM     17  C   UNL     1       1.836   8.960  18.361  0.00  0.00    +0.000 C 
ATOM     18  O   UNL     1       2.186   9.662  17.419  0.00  0.00    +0.000 OA
ATOM     19  N   UNL     1       0.928   9.292  19.353  0.00  0.00    +0.000 N 
ATOM     20  H   UNL     1       0.925   8.738  20.202  0.00  0.00    +0.000 HD
BRANCH  17  26
ATOM     21  N   UNL     1       4.535   4.134  18.780  0.00  0.00    +0.000 N 
ATOM     22  N   UNL     1       5.348   4.227  17.720  0.00  0.00    +0.000 NA
ATOM     23  N   UNL     1       5.097   5.386  17.127  0.00  0.00    +0.000 NA
ATOM     24  C   UNL     1       4.109   6.015  17.828  0.00  0.00    +0.000 A 
ATOM     25  C   UNL     1       3.475   7.243  17.604  0.00  0.00    +0.000 A 
ATOM     26  C   UNL     1       2.495   7.649  18.520  0.00  0.00    +0.000 A 
ATOM     27  C   UNL     1       2.154   6.860  19.629  0.00  0.00    +0.000 A 
ATOM     28  C   UNL     1       2.758   5.626  19.844  0.00  0.00    +0.000 A 
ATOM     29  C   UNL     1       3.740   5.230  18.912  0.00  0.00    +0.000 A 
BRANCH  21  31
ATOM     30  C   UNL     1       3.712   1.811  18.969  0.00  0.00    +0.000 C 
ATOM     31  C   UNL     1       4.538   2.924  19.587  0.00  0.00    +0.000 C 
ENDBRANCH  21  31
ENDBRANCH  17  26
ENDBRANCH   1  19
TORSDOF 4
ENDMDL
MODEL 3
REMARK VINA RESULT:      -8.6      3.150     10.350
REMARK  Name = 
REMARK  5 active torsions:
REMARK  status: ('A' for Active; 'I' for Inactive)
REMARK    1  A    between atoms: C_1  and  C_2
REMARK    2  A    between atoms: C_2  and  N_3
REMARK    3  A    between atoms: C_8  and  C_9
REMARK    4  A    between atoms: N_11  and  C_12
REMARK    5  A    between atoms: C_16  and  C_17
REMARK                            x       y       z     vdW  Elec       q    Type
REMARK                         _______ _______ _______ _____ _____    ______ ____
ROOT
ATOM      1  C   UNL     1       2.024   5.619  20.569  0.00  0.00    +0.000 A 
ATOM      2  C   UNL     1       1.524   4.373  20.928  0.00  0.00    +0.000 A 
ATOM      3  C   UNL     1       2.233   3.216  20.580  0.00  0.00    +0.000 A 
ATOM      4  C   UNL     1       3.491   3.297  19.954  0.00  0.00    +0.000 A 
ATOM      5  C   UNL     1       4.034   4.542  19.640  0.00  0.00    +0.000 A 
ATOM      6  C   UNL     1       3.246   5.681  19.902  0.00  0.00    +0.000 A 
ENDROOT
BRANCH   5   7
ATOM      7  C   UNL     1       5.410   4.729  19.138  0.00  0.00    +0.000 A 
ATOM      8  N   UNL     1       6.524   5.072  19.757  0.00  0.00    +0.000 NA
ATOM      9  N   UNL     1       7.561   5.069  18.818  0.00  0.00    +0.000 NA
ATOM     10  C   UNL     1       7.058   4.768  17.630  0.00  0.00    +0.000 A 
ATOM     11  N   UNL     1       5.726   4.611  17.799  0.00  0.00    +0.000 N 
ATOM     12  C   UNL     1       4.706   4.529  16.767  0.00  0.00    +0.000 C 
ATOM     13  C   UNL     1       4.461   4.603  15.270  0.00  0.00    +0.000 C 
ATOM     14  C   UNL     1       5.704   4.544  14.413  0.00  0.00    +0.000 C 
ATOM     15  C   UNL     1       7.100   4.223  14.993  0.00  0.00    +0.000 C 
ATOM     16  C   UNL     1       7.771   4.681  16.320  0.00  0.00    +0.000 C 
ENDBRANCH   5   7
BRANCH   1  19
ATOM     17  C   UNL     1       1.428   7.993  20.249  0.00  0.00    +0.000 C 
ATOM     18  O   UNL     1       2.032   8.196  19.201  0.00  0.00    +0.000 OA
ATOM     19  N   UNL     1       1.323   6.790  20.928  0.00  0.00    +0.000 N 
ATOM     20  H   UNL     1       0.594   6.698  21.626  0.00  0.00    +0.000 HD
BRANCH  17  26
ATOM     21  N   UNL     1      -1.559  12.263  22.143  0.00  0.00    +0.000 N 
ATOM     22  N   UNL     1      -1.794  12.913  20.996  0.00  0.00    +0.000 NA
ATOM     23  N   UNL     1      -1.207  12.228  20.024  0.00  0.00    +0.000 NA
ATOM     24  C   UNL     1      -0.593  11.143  20.582  0.00  0.00    +0.000 A 
ATOM     25  C   UNL     1       0.172  10.130  19.993  0.00  0.00    +0.000 A 
ATOM     26  C   UNL     1       0.663   9.114  20.827  0.00  0.00    +0.000 A 
ATOM     27  C   UNL     1       0.398   9.103  22.204  0.00  0.00    +0.000 A 
ATOM     28  C   UNL     1      -0.338  10.119  22.802  0.00  0.00    +0.000 A 
ATOM     29  C   UNL     1      -0.822  11.136  21.951  0.00  0.00    +0.000 A 
BRANCH  21  31
ATOM     30  C   UNL     1      -3.410  12.325  23.782  0.00  0.00    +0.000 C 
ATOM     31  C   UNL     1      -2.028  12.826  23.400  0.00  0.00    +0.000 C 
ENDBRANCH  21  31
ENDBRANCH  17  26
ENDBRANCH   1  19
TORSDOF 4
ENDMDL
MODEL 4
REMARK VINA RESULT:      -8.5      1.240      2.087
REMARK  Name = 
REMARK  5 active torsions:
REMARK  status: ('A' for Active; 'I' for Inactive)
REMARK    1  A    between atoms: C_1  and  C_2
REMARK    2  A    between atoms: C_2  and  N_3
REMARK    3  A    between atoms: C_8  and  C_9
REMARK    4  A    between atoms: N_11  and  C_12
REMARK    5  A    between atoms: C_16  and  C_17
REMARK                            x       y       z     vdW  Elec       q    Type
REMARK                         _______ _______ _______ _____ _____    ______ ____
ROOT
ATOM      1  C   UNL     1       0.644  10.685  19.363  0.00  0.00    +0.000 A 
ATOM      2  C   UNL     1       1.396  11.726  18.832  0.00  0.00    +0.000 A 
ATOM      3  C   UNL     1       0.831  13.003  18.721  0.00  0.00    +0.000 A 
ATOM      4  C   UNL     1      -0.454  13.273  19.225  0.00  0.00    +0.000 A 
ATOM      5  C   UNL     1      -1.200  12.253  19.816  0.00  0.00    +0.000 A 
ATOM      6  C   UNL     1      -0.647  10.956  19.811  0.00  0.00    +0.000 A 
ENDROOT
BRANCH   5   7
ATOM      7  C   UNL     1      -2.480  12.479  20.517  0.00  0.00    +0.000 A 
ATOM      8  N   UNL     1      -2.743  12.762  21.778  0.00  0.00    +0.000 NA
ATOM      9  N   UNL     1      -4.128  12.912  21.909  0.00  0.00    +0.000 NA
ATOM     10  C   UNL     1      -4.694  12.673  20.736  0.00  0.00    +0.000 A 
ATOM     11  N   UNL     1      -3.698  12.349  19.881  0.00  0.00    +0.000 N 
ATOM     12  C   UNL     1      -3.823  11.761  18.558  0.00  0.00    +0.000 C 
ATOM     13  C   UNL     1      -4.810  11.206  17.546  0.00  0.00    +0.000 C 
ATOM     14  C   UNL     1      -6.262  11.505  17.835  0.00  0.00    +0.000 C 
ATOM     15  C   UNL     1      -6.705  12.475  18.955  0.00  0.00    +0.000 C 
ATOM     16  C   UNL     1      -6.149  12.675  20.395  0.00  0.00    +0.000 C 
ENDBRANCH   5   7
BRANCH   1  19
ATOM     17  C   UNL     1       1.882   8.744  18.471  0.00  0.00    +0.000 C 
ATOM     18  O   UNL     1       2.182   9.204  17.375  0.00  0.00    +0.000 OA
ATOM     19  N   UNL     1       1.210   9.399  19.490  0.00  0.00    +0.000 N 
ATOM     20  H   UNL     1       1.256   9.003  20.422  0.00  0.00    +0.000 HD
BRANCH  17  26
ATOM     21  N   UNL     1       3.367   3.589  19.871  0.00  0.00    +0.000 N 
ATOM     22  N   UNL     1       2.723   3.467  21.038  0.00  0.00    +0.000 NA
ATOM     23  N   UNL     1       2.083   4.608  21.259  0.00  0.00    +0.000 NA
ATOM     24  C   UNL     1       2.343   5.448  20.215  0.00  0.00    +0.000 A 
ATOM     25  C   UNL     1       1.927   6.764  19.982  0.00  0.00    +0.000 A 
ATOM     26  C   UNL     1       2.339   7.378  18.790  0.00  0.00    +0.000 A 
ATOM     27  C   UNL     1       3.138   6.704  17.856  0.00  0.00    +0.000 A 
ATOM     28  C   UNL     1       3.579   5.407  18.091  0.00  0.00    +0.000 A 
ATOM     29  C   UNL     1       3.160   4.804  19.295  0.00  0.00    +0.000 A 
BRANCH  21  31
ATOM     30  C   UNL     1       3.521   1.616  18.389  0.00  0.00    +0.000 C 
ATOM     31  C   UNL     1       4.219   2.507  19.401  0.00  0.00    +0.000 C 
ENDBRANCH  21  31
ENDBRANCH  17  26
ENDBRANCH   1  19
TORSDOF 4
ENDMDL
MODEL 5
REMARK VINA RESULT:      -8.4      3.056     10.280
REMARK  Name = 
REMARK  5 active torsions:
REMARK  status: ('A' for Active; 'I' for Inactive)
REMARK    1  A    between atoms: C_1  and  C_2
REMARK    2  A    between atoms: C_2  and  N_3
REMARK    3  A    between atoms: C_8  and  C_9
REMARK    4  A    between atoms: N_11  and  C_12
REMARK    5  A    between atoms: C_16  and  C_17
REMARK                            x       y       z     vdW  Elec       q    Type
REMARK                         _______ _______ _______ _____ _____    ______ ____
ROOT
ATOM      1  C   UNL     1       2.211   5.535  20.499  0.00  0.00    +0.000 A 
ATOM      2  C   UNL     1       1.784   4.320  21.018  0.00  0.00    +0.000 A 
ATOM      3  C   UNL     1       2.539   3.162  20.783  0.00  0.00    +0.000 A 
ATOM      4  C   UNL     1       3.772   3.226  20.108  0.00  0.00    +0.000 A 
ATOM      5  C   UNL     1       4.244   4.449  19.632  0.00  0.00    +0.000 A 
ATOM      6  C   UNL     1       3.409   5.573  19.787  0.00  0.00    +0.000 A 
ENDROOT
BRANCH   5   7
ATOM      7  C   UNL     1       5.594   4.637  19.063  0.00  0.00    +0.000 A 
ATOM      8  N   UNL     1       6.740   4.960  19.631  0.00  0.00    +0.000 NA
ATOM      9  N   UNL     1       7.727   4.970  18.640  0.00  0.00    +0.000 NA
ATOM     10  C   UNL     1       7.162   4.698  17.474  0.00  0.00    +0.000 A 
ATOM     11  N   UNL     1       5.839   4.546  17.708  0.00  0.00    +0.000 N 
ATOM     12  C   UNL     1       4.767   4.494  16.728  0.00  0.00    +0.000 C 
ATOM     13  C   UNL     1       4.446   4.602  15.248  0.00  0.00    +0.000 C 
ATOM     14  C   UNL     1       5.642   4.553  14.327  0.00  0.00    +0.000 C 
ATOM     15  C   UNL     1       7.063   4.210  14.827  0.00  0.00    +0.000 C 
ATOM     16  C   UNL     1       7.806   4.635  16.127  0.00  0.00    +0.000 C 
ENDBRANCH   5   7
BRANCH   1  19
ATOM     17  C   UNL     1       1.591   7.873  20.004  0.00  0.00    +0.000 C 
ATOM     18  O   UNL     1       2.260   8.031  18.989  0.00  0.00    +0.000 OA
ATOM     19  N   UNL     1       1.464   6.708  20.742  0.00  0.00    +0.000 N 
ATOM     20  H   UNL     1       0.691   6.637  21.394  0.00  0.00    +0.000 HD
BRANCH  17  26
ATOM     21  N   UNL     1      -1.389  12.095  22.015  0.00  0.00    +0.000 N 
ATOM     22  N   UNL     1      -1.308  11.837  23.325  0.00  0.00    +0.000 NA
ATOM     23  N   UNL     1      -0.583  10.735  23.469  0.00  0.00    +0.000 NA
ATOM     24  C   UNL     1      -0.219  10.303  22.227  0.00  0.00    +0.000 A 
ATOM     25  C   UNL     1       0.525   9.184  21.835  0.00  0.00    +0.000 A 
ATOM     26  C   UNL     1       0.766   9.006  20.465  0.00  0.00    +0.000 A 
ATOM     27  C   UNL     1       0.283   9.914  19.511  0.00  0.00    +0.000 A 
ATOM     28  C   UNL     1      -0.479  11.013  19.888  0.00  0.00    +0.000 A 
ATOM     29  C   UNL     1      -0.716  11.177  21.269  0.00  0.00    +0.000 A 
BRANCH  21  31
ATOM     30  C   UNL     1      -3.680  12.926  21.599  0.00  0.00    +0.000 C 
ATOM     31  C   UNL     1      -2.190  13.216  21.548  0.00  0.00    +0.000 C 
ENDBRANCH  21  31
ENDBRANCH  17  26
ENDBRANCH   1  19
TORSDOF 4
ENDMDL
MODEL 6
REMARK VINA RESULT:      -8.4      3.970     10.337
REMARK  Name = 
REMARK  5 active torsions:
REMARK  status: ('A' for Active; 'I' for Inactive)
REMARK    1  A    between atoms: C_1  and  C_2
REMARK    2  A    between atoms: C_2  and  N_3
REMARK    3  A    between atoms: C_8  and  C_9
REMARK    4  A    between atoms: N_11  and  C_12
REMARK    5  A    between atoms: C_16  and  C_17
REMARK                            x       y       z     vdW  Elec       q    Type
REMARK                         _______ _______ _______ _____ _____    ______ ____
ROOT
ATOM      1  C   UNL     1       2.779   5.374  18.344  0.00  0.00    +0.000 A 
ATOM      2  C   UNL     1       2.514   4.041  18.632  0.00  0.00    +0.000 A 
ATOM      3  C   UNL     1       3.231   3.034  17.972  0.00  0.00    +0.000 A 
ATOM      4  C   UNL     1       4.280   3.351  17.090  0.00  0.00    +0.000 A 
ATOM      5  C   UNL     1       4.598   4.684  16.835  0.00  0.00    +0.000 A 
ATOM      6  C   UNL     1       3.786   5.672  17.428  0.00  0.00    +0.000 A 
ENDROOT
BRANCH   5   7
ATOM      7  C   UNL     1       5.782   5.106  16.060  0.00  0.00    +0.000 A 
ATOM      8  N   UNL     1       6.750   5.958  16.342  0.00  0.00    +0.000 NA
ATOM      9  N   UNL     1       7.650   5.963  15.271  0.00  0.00    +0.000 NA
ATOM     10  C   UNL     1       7.195   5.149  14.330  0.00  0.00    +0.000 A 
ATOM     11  N   UNL     1       6.017   4.658  14.775  0.00  0.00    +0.000 N 
ATOM     12  C   UNL     1       5.015   3.934  14.012  0.00  0.00    +0.000 C 
ATOM     13  C   UNL     1       4.648   3.433  12.627  0.00  0.00    +0.000 C 
ATOM     14  C   UNL     1       5.765   3.478  11.611  0.00  0.00    +0.000 C 
ATOM     15  C   UNL     1       7.225   3.809  11.995  0.00  0.00    +0.000 C 
ATOM     16  C   UNL     1       7.794   4.859  12.992  0.00  0.00    +0.000 C 
ENDBRANCH   5   7
BRANCH   1  19
ATOM     17  C   UNL     1       2.240   7.747  18.762  0.00  0.00    +0.000 C 
ATOM     18  O   UNL     1       2.917   8.250  17.872  0.00  0.00    +0.000 OA
ATOM     19  N   UNL     1       2.071   6.395  19.013  0.00  0.00    +0.000 N 
ATOM     20  H   UNL     1       1.294   6.112  19.599  0.00  0.00    +0.000 HD
BRANCH  17  26
ATOM     21  N   UNL     1      -0.557  11.056  22.222  0.00  0.00    +0.000 N 
ATOM     22  N   UNL     1      -0.255  10.481  23.392  0.00  0.00    +0.000 NA
ATOM     23  N   UNL     1       0.531   9.444  23.135  0.00  0.00    +0.000 NA
ATOM     24  C   UNL     1       0.708   9.373  21.783  0.00  0.00    +0.000 A 
ATOM     25  C   UNL     1       1.427   8.457  21.007  0.00  0.00    +0.000 A 
ATOM     26  C   UNL     1       1.451   8.653  19.619  0.00  0.00    +0.000 A 
ATOM     27  C   UNL     1       0.783   9.730  19.018  0.00  0.00    +0.000 A 
ATOM     28  C   UNL     1       0.044  10.630  19.777  0.00  0.00    +0.000 A 
ATOM     29  C   UNL     1       0.026  10.417  21.172  0.00  0.00    +0.000 A 
BRANCH  21  31
ATOM     30  C   UNL     1      -2.620  12.036  23.169  0.00  0.00    +0.000 C 
ATOM     31  C   UNL     1      -1.470  12.188  22.188  0.00  0.00    +0.000 C 
ENDBRANCH  21  31
ENDBRANCH  17  26
ENDBRANCH   1  19
TORSDOF 4
ENDMDL
MODEL 7
REMARK VINA RESULT:      -8.4      1.257      1.745
REMARK  Name = 
REMARK  5 active torsions:
REMARK  status: ('A' for Active; 'I' for Inactive)
REMARK    1  A    between atoms: C_1  and  C_2
REMARK    2  A    between atoms: C_2  and  N_3
REMARK    3  A    between atoms: C_8  and  C_9
REMARK    4  A    between atoms: N_11  and  C_12
REMARK    5  A    between atoms: C_16  and  C_17
REMARK                            x       y       z     vdW  Elec       q    Type
REMARK                         _______ _______ _______ _____ _____    ______ ____
ROOT
ATOM      1  C   UNL     1       0.510  10.296  18.489  0.00  0.00    +0.000 A 
ATOM      2  C   UNL     1       1.229  11.442  18.805  0.00  0.00    +0.000 A 
ATOM      3  C   UNL     1       0.606  12.694  18.726  0.00  0.00    +0.000 A 
ATOM      4  C   UNL     1      -0.763  12.805  18.421  0.00  0.00    +0.000 A 
ATOM      5  C   UNL     1      -1.514  11.659  18.159  0.00  0.00    +0.000 A 
ATOM      6  C   UNL     1      -0.832  10.426  18.137  0.00  0.00    +0.000 A 
ENDROOT
BRANCH   5   7
ATOM      7  C   UNL     1      -2.981  11.665  17.995  0.00  0.00    +0.000 A 
ATOM      8  N   UNL     1      -3.739  11.490  16.929  0.00  0.00    +0.000 NA
ATOM      9  N   UNL     1      -5.077  11.558  17.332  0.00  0.00    +0.000 NA
ATOM     10  C   UNL     1      -5.118  11.819  18.629  0.00  0.00    +0.000 A 
ATOM     11  N   UNL     1      -3.836  11.945  19.042  0.00  0.00    +0.000 N 
ATOM     12  C   UNL     1      -3.362  12.478  20.308  0.00  0.00    +0.000 C 
ATOM     13  C   UNL     1      -3.797  13.123  21.612  0.00  0.00    +0.000 C 
ATOM     14  C   UNL     1      -5.280  13.062  21.895  0.00  0.00    +0.000 C 
ATOM     15  C   UNL     1      -6.257  12.229  21.035  0.00  0.00    +0.000 C 
ATOM     16  C   UNL     1      -6.320  12.020  19.494  0.00  0.00    +0.000 C 
ENDBRANCH   5   7
BRANCH   1  19
ATOM     17  C   UNL     1       1.488   8.428  19.773  0.00  0.00    +0.000 C 
ATOM     18  O   UNL     1       1.237   8.829  20.904  0.00  0.00    +0.000 OA
ATOM     19  N   UNL     1       1.126   9.029  18.579  0.00  0.00    +0.000 N 
ATOM     20  H   UNL     1       1.164   8.472  17.733  0.00  0.00    +0.000 HD
BRANCH  17  26
ATOM     21  N   UNL     1       4.318   3.701  19.146  0.00  0.00    +0.000 N 
ATOM     22  N   UNL     1       5.173   4.065  18.182  0.00  0.00    +0.000 NA
ATOM     23  N   UNL     1       4.911   5.329  17.875  0.00  0.00    +0.000 NA
ATOM     24  C   UNL     1       3.873   5.748  18.657  0.00  0.00    +0.000 A 
ATOM     25  C   UNL     1       3.212   6.980  18.706  0.00  0.00    +0.000 A 
ATOM     26  C   UNL     1       2.180   7.131  19.643  0.00  0.00    +0.000 A 
ATOM     27  C   UNL     1       1.817   6.089  20.509  0.00  0.00    +0.000 A 
ATOM     28  C   UNL     1       2.450   4.853  20.450  0.00  0.00    +0.000 A 
ATOM     29  C   UNL     1       3.483   4.715  19.500  0.00  0.00    +0.000 A 
BRANCH  21  31
ATOM     30  C   UNL     1       3.595   1.378  18.707  0.00  0.00    +0.000 C 
ATOM     31  C   UNL     1       4.324   2.332  19.636  0.00  0.00    +0.000 C 
ENDBRANCH  21  31
ENDBRANCH  17  26
ENDBRANCH   1  19
TORSDOF 4
ENDMDL
MODEL 8
REMARK VINA RESULT:      -8.4      2.966      4.140
REMARK  Name = 
REMARK  5 active torsions:
REMARK  status: ('A' for Active; 'I' for Inactive)
REMARK    1  A    between atoms: C_1  and  C_2
REMARK    2  A    between atoms: C_2  and  N_3
REMARK    3  A    between atoms: C_8  and  C_9
REMARK    4  A    between atoms: N_11  and  C_12
REMARK    5  A    between atoms: C_16  and  C_17
REMARK                            x       y       z     vdW  Elec       q    Type
REMARK                         _______ _______ _______ _____ _____    ______ ____
ROOT
ATOM      1  C   UNL     1      -0.011  10.367  19.347  0.00  0.00    +0.000 A 
ATOM      2  C   UNL     1      -0.787  10.682  18.239  0.00  0.00    +0.000 A 
ATOM      3  C   UNL     1      -1.574  11.841  18.251  0.00  0.00    +0.000 A 
ATOM      4  C   UNL     1      -1.520  12.743  19.330  0.00  0.00    +0.000 A 
ATOM      5  C   UNL     1      -0.700  12.471  20.425  0.00  0.00    +0.000 A 
ATOM      6  C   UNL     1      -0.008  11.243  20.431  0.00  0.00    +0.000 A 
ENDROOT
BRANCH   5   7
ATOM      7  C   UNL     1      -0.455  13.432  21.519  0.00  0.00    +0.000 A 
ATOM      8  N   UNL     1       0.582  14.203  21.784  0.00  0.00    +0.000 NA
ATOM      9  N   UNL     1       0.285  14.953  22.927  0.00  0.00    +0.000 NA
ATOM     10  C   UNL     1      -0.912  14.598  23.369  0.00  0.00    +0.000 A 
ATOM     11  N   UNL     1      -1.357  13.621  22.547  0.00  0.00    +0.000 N 
ATOM     12  C   UNL     1      -2.489  12.734  22.757  0.00  0.00    +0.000 C 
ATOM     13  C   UNL     1      -3.579  12.342  23.738  0.00  0.00    +0.000 C 
ATOM     14  C   UNL     1      -3.783  13.299  24.889  0.00  0.00    +0.000 C 
ATOM     15  C   UNL     1      -3.086  14.677  24.957  0.00  0.00    +0.000 C 
ATOM     16  C   UNL     1      -1.635  15.095  24.579  0.00  0.00    +0.000 C 
ENDBRANCH   5   7
BRANCH   1  19
ATOM     17  C   UNL     1       1.794   8.968  18.409  0.00  0.00    +0.000 C 
ATOM     18  O   UNL     1       2.201   9.742  17.549  0.00  0.00    +0.000 OA
ATOM     19  N   UNL     1       0.795   9.209  19.338  0.00  0.00    +0.000 N 
ATOM     20  H   UNL     1       0.737   8.598  20.145  0.00  0.00    +0.000 HD
BRANCH  17  26
ATOM     21  N   UNL     1       4.575   4.180  18.708  0.00  0.00    +0.000 N 
ATOM     22  N   UNL     1       5.375   4.306  17.643  0.00  0.00    +0.000 NA
ATOM     23  N   UNL     1       5.100   5.473  17.075  0.00  0.00    +0.000 NA
ATOM     24  C   UNL     1       4.108   6.071  17.797  0.00  0.00    +0.000 A 
ATOM     25  C   UNL     1       3.453   7.293  17.603  0.00  0.00    +0.000 A 
ATOM     26  C   UNL     1       2.475   7.665  18.536  0.00  0.00    +0.000 A 
ATOM     27  C   UNL     1       2.158   6.849  19.632  0.00  0.00    +0.000 A 
ATOM     28  C   UNL     1       2.784   5.622  19.818  0.00  0.00    +0.000 A 
ATOM     29  C   UNL     1       3.763   5.260  18.869  0.00  0.00    +0.000 A 
BRANCH  21  31
ATOM     30  C   UNL     1       3.632   1.910  18.976  0.00  0.00    +0.000 C 
ATOM     31  C   UNL     1       4.605   2.955  19.493  0.00  0.00    +0.000 C 
ENDBRANCH  21  31
ENDBRANCH  17  26
ENDBRANCH   1  19
TORSDOF 4
ENDMDL
MODEL 9
REMARK VINA RESULT:      -8.3      1.088      1.206
REMARK  Name = 
REMARK  5 active torsions:
REMARK  status: ('A' for Active; 'I' for Inactive)
REMARK    1  A    between atoms: C_1  and  C_2
REMARK    2  A    between atoms: C_2  and  N_3
REMARK    3  A    between atoms: C_8  and  C_9
REMARK    4  A    between atoms: N_11  and  C_12
REMARK    5  A    between atoms: C_16  and  C_17
REMARK                            x       y       z     vdW  Elec       q    Type
REMARK                         _______ _______ _______ _____ _____    ______ ____
ROOT
ATOM      1  C   UNL     1       0.579  10.119  18.620  0.00  0.00    +0.000 A 
ATOM      2  C   UNL     1       1.395  11.228  18.809  0.00  0.00    +0.000 A 
ATOM      3  C   UNL     1       0.868  12.514  18.631  0.00  0.00    +0.000 A 
ATOM      4  C   UNL     1      -0.497  12.706  18.355  0.00  0.00    +0.000 A 
ATOM      5  C   UNL     1      -1.343  11.606  18.220  0.00  0.00    +0.000 A 
ATOM      6  C   UNL     1      -0.761  10.324  18.294  0.00  0.00    +0.000 A 
ENDROOT
BRANCH   5   7
ATOM      7  C   UNL     1      -2.811  11.715  18.096  0.00  0.00    +0.000 A 
ATOM      8  N   UNL     1      -3.606  11.613  17.048  0.00  0.00    +0.000 NA
ATOM      9  N   UNL     1      -4.925  11.764  17.488  0.00  0.00    +0.000 NA
ATOM     10  C   UNL     1      -4.914  12.000  18.791  0.00  0.00    +0.000 A 
ATOM     11  N   UNL     1      -3.617  12.030  19.171  0.00  0.00    +0.000 N 
ATOM     12  C   UNL     1      -3.075  12.503  20.434  0.00  0.00    +0.000 C 
ATOM     13  C   UNL     1      -3.431  13.149  21.761  0.00  0.00    +0.000 C 
ATOM     14  C   UNL     1      -4.906  13.184  22.083  0.00  0.00    +0.000 C 
ATOM     15  C   UNL     1      -5.960  12.437  21.234  0.00  0.00    +0.000 C 
ATOM     16  C   UNL     1      -6.077  12.264  19.692  0.00  0.00    +0.000 C 
ENDBRANCH   5   7
BRANCH   1  19
ATOM     17  C   UNL     1       1.445   8.300  20.046  0.00  0.00    +0.000 C 
ATOM     18  O   UNL     1       1.259   8.818  21.141  0.00  0.00    +0.000 OA
ATOM     19  N   UNL     1       1.097   8.821  18.810  0.00  0.00    +0.000 N 
ATOM     20  H   UNL     1       1.068   8.190  18.018  0.00  0.00    +0.000 HD
BRANCH  17  26
ATOM     21  N   UNL     1       3.421   3.119  20.127  0.00  0.00    +0.000 N 
ATOM     22  N   UNL     1       2.806   2.650  21.220  0.00  0.00    +0.000 NA
ATOM     23  N   UNL     1       2.065   3.634  21.712  0.00  0.00    +0.000 NA
ATOM     24  C   UNL     1       2.233   4.730  20.915  0.00  0.00    +0.000 A 
ATOM     25  C   UNL     1       1.694   6.017  21.014  0.00  0.00    +0.000 A 
ATOM     26  C   UNL     1       2.031   6.946  20.018  0.00  0.00    +0.000 A 
ATOM     27  C   UNL     1       2.878   6.605  18.954  0.00  0.00    +0.000 A 
ATOM     28  C   UNL     1       3.440   5.337  18.861  0.00  0.00    +0.000 A 
ATOM     29  C   UNL     1       3.094   4.415  19.872  0.00  0.00    +0.000 A 
BRANCH  21  31
ATOM     30  C   UNL     1       3.704   1.486  18.293  0.00  0.00    +0.000 C 
ATOM     31  C   UNL     1       4.364   2.274  19.410  0.00  0.00    +0.000 C 
ENDBRANCH  21  31
ENDBRANCH  17  26
ENDBRANCH   1  19
TORSDOF 4
ENDMDL
