MODEL 1
REMARK VINA RESULT:      -9.1      0.000      0.000
REMARK  Name = 
REMARK  2 active torsions:
REMARK  status: ('A' for Active; 'I' for Inactive)
REMARK    1  A    between atoms: C_7  and  C_8
REMARK    2  A    between atoms: N_19  and  C_20
REMARK                            x       y       z     vdW  Elec       q    Type
REMARK                         _______ _______ _______ _____ _____    ______ ____
ROOT
ATOM      1  C   UNL     1       1.229   8.758  18.942  0.00  0.00    +0.000 C 
ATOM      2  O   UNL     1       1.713   8.658  20.072  0.00  0.00    +0.000 OA
ATOM      3  N   UNL     1       1.763   8.185  17.792  0.00  0.00    +0.000 N 
ATOM      4  C   UNL     1       2.980   7.504  17.871  0.00  0.00    +0.000 A 
ATOM      5  N   UNL     1       4.053   7.845  17.190  0.00  0.00    +0.000 NA
ATOM      6  C   UNL     1       5.028   6.932  17.543  0.00  0.00    +0.000 A 
ATOM      7  C   UNL     1       6.389   6.879  17.202  0.00  0.00    +0.000 A 
ATOM      8  C   UNL     1       7.174   5.810  17.653  0.00  0.00    +0.000 A 
ATOM      9  C   UNL     1       6.617   4.799  18.431  0.00  0.00    +0.000 A 
ATOM     10  C   UNL     1       5.270   4.843  18.795  0.00  0.00    +0.000 A 
ATOM     11  C   UNL     1       4.497   5.933  18.356  0.00  0.00    +0.000 A 
ATOM     12  N   UNL     1       3.174   6.303  18.532  0.00  0.00    +0.000 N 
ATOM     13  H   UNL     1       1.665   8.729  16.943  0.00  0.00    +0.000 HD
ENDROOT
BRANCH   1  20
ATOM     14  O   UNL     1      -5.303  12.506  16.956  0.00  0.00    +0.000 OA
ATOM     15  C   UNL     1      -4.332  11.759  17.114  0.00  0.00    +0.000 C 
ATOM     16  C   UNL     1      -4.149  10.490  16.320  0.00  0.00    +0.000 C 
ATOM     17  C   UNL     1      -2.674  10.204  16.072  0.00  0.00    +0.000 C 
ATOM     18  C   UNL     1      -1.897  10.274  17.362  0.00  0.00    +0.000 A 
ATOM     19  C   UNL     1      -0.750   9.492  17.581  0.00  0.00    +0.000 A 
ATOM     20  C   UNL     1      -0.007   9.601  18.776  0.00  0.00    +0.000 A 
ATOM     21  C   UNL     1      -0.403  10.556  19.724  0.00  0.00    +0.000 A 
ATOM     22  C   UNL     1      -1.533  11.362  19.494  0.00  0.00    +0.000 A 
ATOM     23  C   UNL     1      -2.287  11.203  18.330  0.00  0.00    +0.000 A 
ATOM     24  N   UNL     1      -3.424  11.983  18.122  0.00  0.00    +0.000 N 
ATOM     25  H   UNL     1      -3.638  12.763  18.733  0.00  0.00    +0.000 HD
ENDBRANCH   1  20
BRANCH  12  26
ATOM     26  C   UNL     1       2.157   5.492  19.162  0.00  0.00    +0.000 C 
ATOM     27  C   UNL     1       2.467   5.086  20.604  0.00  0.00    +0.000 C 
ATOM     28  C   UNL     1       1.556   3.896  20.881  0.00  0.00    +0.000 C 
ATOM     29  C   UNL     1       1.077   3.378  19.525  0.00  0.00    +0.000 C 
ATOM     30  C   UNL     1       1.857   4.153  18.469  0.00  0.00    +0.000 C 
ENDBRANCH  12  26
TORSDOF 2
ENDMDL
MODEL 2
REMARK VINA RESULT:      -8.8      2.382      2.749
REMARK  Name = 
REMARK  2 active torsions:
REMARK  status: ('A' for Active; 'I' for Inactive)
REMARK    1  A    between atoms: C_7  and  C_8
REMARK    2  A    between atoms: N_19  and  C_20
REMARK                            x       y       z     vdW  Elec       q    Type
REMARK                         _______ _______ _______ _____ _____    ______ ____
ROOT
ATOM      1  C   UNL     1       1.760   7.958  20.235  0.00  0.00    +0.000 C 
ATOM      2  O   UNL     1       2.462   7.289  20.997  0.00  0.00    +0.000 OA
ATOM      3  N   UNL     1       1.812   7.900  18.846  0.00  0.00    +0.000 N 
ATOM      4  C   UNL     1       2.776   7.097  18.233  0.00  0.00    +0.000 A 
ATOM      5  N   UNL     1       3.697   7.557  17.413  0.00  0.00    +0.000 NA
ATOM      6  C   UNL     1       4.440   6.457  17.027  0.00  0.00    +0.000 A 
ATOM      7  C   UNL     1       5.605   6.377  16.248  0.00  0.00    +0.000 A 
ATOM      8  C   UNL     1       6.153   5.122  15.951  0.00  0.00    +0.000 A 
ATOM      9  C   UNL     1       5.551   3.957  16.416  0.00  0.00    +0.000 A 
ATOM     10  C   UNL     1       4.402   4.017  17.207  0.00  0.00    +0.000 A 
ATOM     11  C   UNL     1       3.874   5.283  17.519  0.00  0.00    +0.000 A 
ATOM     12  N   UNL     1       2.791   5.712  18.267  0.00  0.00    +0.000 N 
ATOM     13  H   UNL     1       1.660   8.778  18.363  0.00  0.00    +0.000 HD
ENDROOT
BRANCH   1  20
ATOM     14  O   UNL     1      -3.317  13.532  22.185  0.00  0.00    +0.000 OA
ATOM     15  C   UNL     1      -2.589  12.682  21.664  0.00  0.00    +0.000 C 
ATOM     16  C   UNL     1      -2.607  12.399  20.182  0.00  0.00    +0.000 C 
ATOM     17  C   UNL     1      -1.226  12.000  19.681  0.00  0.00    +0.000 C 
ATOM     18  C   UNL     1      -0.648  10.904  20.539  0.00  0.00    +0.000 A 
ATOM     19  C   UNL     1       0.232   9.940  20.018  0.00  0.00    +0.000 A 
ATOM     20  C   UNL     1       0.801   8.946  20.843  0.00  0.00    +0.000 A 
ATOM     21  C   UNL     1       0.518   8.975  22.217  0.00  0.00    +0.000 A 
ATOM     22  C   UNL     1      -0.338   9.958  22.747  0.00  0.00    +0.000 A 
ATOM     23  C   UNL     1      -0.934  10.900  21.906  0.00  0.00    +0.000 A 
ATOM     24  N   UNL     1      -1.807  11.852  22.433  0.00  0.00    +0.000 N 
ATOM     25  H   UNL     1      -1.910  11.965  23.434  0.00  0.00    +0.000 HD
ENDBRANCH   1  20
BRANCH  12  26
ATOM     26  C   UNL     1       1.780   4.854  18.841  0.00  0.00    +0.000 C 
ATOM     27  C   UNL     1       2.185   4.179  20.153  0.00  0.00    +0.000 C 
ATOM     28  C   UNL     1       1.224   3.007  20.305  0.00  0.00    +0.000 C 
ATOM     29  C   UNL     1       0.596   2.766  18.932  0.00  0.00    +0.000 C 
ATOM     30  C   UNL     1       1.332   3.678  17.957  0.00  0.00    +0.000 C 
ENDBRANCH  12  26
TORSDOF 2
ENDMDL
MODEL 3
REMARK VINA RESULT:      -8.8      1.401      2.279
REMARK  Name = 
REMARK  2 active torsions:
REMARK  status: ('A' for Active; 'I' for Inactive)
REMARK    1  A    between atoms: C_7  and  C_8
REMARK    2  A    between atoms: N_19  and  C_20
REMARK                            x       y       z     vdW  Elec       q    Type
REMARK                         _______ _______ _______ _____ _____    ______ ____
ROOT
ATOM      1  C   UNL     1       1.526   8.709  19.231  0.00  0.00    +0.000 C 
ATOM      2  O   UNL     1       2.019   8.372  20.310  0.00  0.00    +0.000 OA
ATOM      3  N   UNL     1       1.955   8.265  17.985  0.00  0.00    +0.000 N 
ATOM      4  C   UNL     1       3.078   7.438  17.904  0.00  0.00    +0.000 A 
ATOM      5  N   UNL     1       4.169   7.750  17.238  0.00  0.00    +0.000 NA
ATOM      6  C   UNL     1       5.029   6.681  17.404  0.00  0.00    +0.000 A 
ATOM      7  C   UNL     1       6.364   6.519  17.000  0.00  0.00    +0.000 A 
ATOM      8  C   UNL     1       7.018   5.304  17.246  0.00  0.00    +0.000 A 
ATOM      9  C   UNL     1       6.356   4.257  17.881  0.00  0.00    +0.000 A 
ATOM     10  C   UNL     1       5.034   4.406  18.306  0.00  0.00    +0.000 A 
ATOM     11  C   UNL     1       4.395   5.638  18.075  0.00  0.00    +0.000 A 
ATOM     12  N   UNL     1       3.134   6.133  18.362  0.00  0.00    +0.000 N 
ATOM     13  H   UNL     1       1.907   8.945  17.234  0.00  0.00    +0.000 HD
ENDROOT
BRANCH   1  20
ATOM     14  O   UNL     1      -4.020  14.006  20.588  0.00  0.00    +0.000 OA
ATOM     15  C   UNL     1      -3.050  13.241  20.569  0.00  0.00    +0.000 C 
ATOM     16  C   UNL     1      -2.008  13.227  21.659  0.00  0.00    +0.000 C 
ATOM     17  C   UNL     1      -1.453  11.826  21.872  0.00  0.00    +0.000 C 
ATOM     18  C   UNL     1      -1.021  11.222  20.560  0.00  0.00    +0.000 A 
ATOM     19  C   UNL     1       0.037  10.301  20.479  0.00  0.00    +0.000 A 
ATOM     20  C   UNL     1       0.402   9.710  19.250  0.00  0.00    +0.000 A 
ATOM     21  C   UNL     1      -0.358  10.016  18.111  0.00  0.00    +0.000 A 
ATOM     22  C   UNL     1      -1.437  10.913  18.194  0.00  0.00    +0.000 A 
ATOM     23  C   UNL     1      -1.749  11.529  19.408  0.00  0.00    +0.000 A 
ATOM     24  N   UNL     1      -2.801  12.442  19.477  0.00  0.00    +0.000 N 
ATOM     25  H   UNL     1      -3.436  12.565  18.697  0.00  0.00    +0.000 HD
ENDBRANCH   1  20
BRANCH  12  26
ATOM     26  C   UNL     1       2.037   5.361  18.902  0.00  0.00    +0.000 C 
ATOM     27  C   UNL     1       2.221   4.922  20.356  0.00  0.00    +0.000 C 
ATOM     28  C   UNL     1       1.240   3.772  20.546  0.00  0.00    +0.000 C 
ATOM     29  C   UNL     1       0.839   3.295  19.150  0.00  0.00    +0.000 C 
ATOM     30  C   UNL     1       1.730   4.047  18.167  0.00  0.00    +0.000 C 
ENDBRANCH  12  26
TORSDOF 2
ENDMDL
MODEL 4
REMARK VINA RESULT:      -8.2      2.602      8.338
REMARK  Name = 
REMARK  2 active torsions:
REMARK  status: ('A' for Active; 'I' for Inactive)
REMARK    1  A    between atoms: C_7  and  C_8
REMARK    2  A    between atoms: N_19  and  C_20
REMARK                            x       y       z     vdW  Elec       q    Type
REMARK                         _______ _______ _______ _____ _____    ______ ____
ROOT
ATOM      1  C   UNL     1       1.890   8.938  18.384  0.00  0.00    +0.000 C 
ATOM      2  O   UNL     1       2.100   9.780  17.508  0.00  0.00    +0.000 OA
ATOM      3  N   UNL     1       1.200   9.173  19.568  0.00  0.00    +0.000 N 
ATOM      4  C   UNL     1       0.767  10.468  19.859  0.00  0.00    +0.000 A 
ATOM      5  N   UNL     1       1.144  11.143  20.925  0.00  0.00    +0.000 NA
ATOM      6  C   UNL     1       0.499  12.363  20.845  0.00  0.00    +0.000 A 
ATOM      7  C   UNL     1       0.613  13.504  21.654  0.00  0.00    +0.000 A 
ATOM      8  C   UNL     1      -0.195  14.619  21.395  0.00  0.00    +0.000 A 
ATOM      9  C   UNL     1      -1.112  14.603  20.348  0.00  0.00    +0.000 A 
ATOM     10  C   UNL     1      -1.227  13.483  19.521  0.00  0.00    +0.000 A 
ATOM     11  C   UNL     1      -0.394  12.379  19.776  0.00  0.00    +0.000 A 
ATOM     12  N   UNL     1      -0.229  11.144  19.173  0.00  0.00    +0.000 N 
ATOM     13  H   UNL     1       1.540   8.675  20.382  0.00  0.00    +0.000 HD
ENDROOT
BRANCH   1  20
ATOM     14  O   UNL     1       3.774   1.392  17.969  0.00  0.00    +0.000 OA
ATOM     15  C   UNL     1       3.264   2.512  18.073  0.00  0.00    +0.000 C 
ATOM     16  C   UNL     1       1.794   2.710  18.351  0.00  0.00    +0.000 C 
ATOM     17  C   UNL     1       1.557   3.958  19.190  0.00  0.00    +0.000 C 
ATOM     18  C   UNL     1       2.263   5.144  18.586  0.00  0.00    +0.000 A 
ATOM     19  C   UNL     1       1.764   6.451  18.718  0.00  0.00    +0.000 A 
ATOM     20  C   UNL     1       2.459   7.558  18.186  0.00  0.00    +0.000 A 
ATOM     21  C   UNL     1       3.700   7.334  17.569  0.00  0.00    +0.000 A 
ATOM     22  C   UNL     1       4.217   6.031  17.463  0.00  0.00    +0.000 A 
ATOM     23  C   UNL     1       3.489   4.942  17.948  0.00  0.00    +0.000 A 
ATOM     24  N   UNL     1       3.993   3.649  17.812  0.00  0.00    +0.000 N 
ATOM     25  H   UNL     1       4.941   3.491  17.493  0.00  0.00    +0.000 HD
ENDBRANCH   1  20
BRANCH  12  26
ATOM     26  C   UNL     1      -1.060  10.612  18.117  0.00  0.00    +0.000 C 
ATOM     27  C   UNL     1      -1.540  11.647  17.099  0.00  0.00    +0.000 C 
ATOM     28  C   UNL     1      -2.733  10.998  16.410  0.00  0.00    +0.000 C 
ATOM     29  C   UNL     1      -3.180   9.836  17.297  0.00  0.00    +0.000 C 
ATOM     30  C   UNL     1      -2.360   9.934  18.579  0.00  0.00    +0.000 C 
ENDBRANCH  12  26
TORSDOF 2
ENDMDL
MODEL 5
REMARK VINA RESULT:      -8.1      2.945      4.565
REMARK  Name = 
REMARK  2 active torsions:
REMARK  status: ('A' for Active; 'I' for Inactive)
REMARK    1  A    between atoms: C_7  and  C_8
REMARK    2  A    between atoms: N_19  and  C_20
REMARK                            x       y       z     vdW  Elec       q    Type
REMARK                         _______ _______ _______ _____ _____    ______ ____
ROOT
ATOM      1  C   UNL     1       1.944   8.268  18.587  0.00  0.00    +0.000 C 
ATOM      2  O   UNL     1       1.900   7.938  17.400  0.00  0.00    +0.000 OA
ATOM      3  N   UNL     1       2.207   7.405  19.646  0.00  0.00    +0.000 N 
ATOM      4  C   UNL     1       2.356   6.040  19.392  0.00  0.00    +0.000 A 
ATOM      5  N   UNL     1       1.588   5.110  19.920  0.00  0.00    +0.000 NA
ATOM      6  C   UNL     1       2.060   3.909  19.426  0.00  0.00    +0.000 A 
ATOM      7  C   UNL     1       1.556   2.607  19.574  0.00  0.00    +0.000 A 
ATOM      8  C   UNL     1       2.250   1.529  19.008  0.00  0.00    +0.000 A 
ATOM      9  C   UNL     1       3.434   1.736  18.307  0.00  0.00    +0.000 A 
ATOM     10  C   UNL     1       3.941   3.026  18.135  0.00  0.00    +0.000 A 
ATOM     11  C   UNL     1       3.224   4.103  18.687  0.00  0.00    +0.000 A 
ATOM     12  N   UNL     1       3.414   5.475  18.700  0.00  0.00    +0.000 N 
ATOM     13  H   UNL     1       1.705   7.598  20.505  0.00  0.00    +0.000 HD
ENDROOT
BRANCH   1  20
ATOM     14  O   UNL     1      -0.359  15.208  21.269  0.00  0.00    +0.000 OA
ATOM     15  C   UNL     1      -0.070  14.029  21.044  0.00  0.00    +0.000 C 
ATOM     16  C   UNL     1      -0.343  12.924  22.035  0.00  0.00    +0.000 C 
ATOM     17  C   UNL     1      -0.671  11.618  21.326  0.00  0.00    +0.000 C 
ATOM     18  C   UNL     1       0.371  11.304  20.283  0.00  0.00    +0.000 A 
ATOM     19  C   UNL     1       0.704   9.983  19.941  0.00  0.00    +0.000 A 
ATOM     20  C   UNL     1       1.650   9.704  18.931  0.00  0.00    +0.000 A 
ATOM     21  C   UNL     1       2.213  10.780  18.227  0.00  0.00    +0.000 A 
ATOM     22  C   UNL     1       1.858  12.103  18.547  0.00  0.00    +0.000 A 
ATOM     23  C   UNL     1       0.961  12.361  19.585  0.00  0.00    +0.000 A 
ATOM     24  N   UNL     1       0.638  13.676  19.919  0.00  0.00    +0.000 N 
ATOM     25  H   UNL     1       0.932  14.448  19.333  0.00  0.00    +0.000 HD
ENDBRANCH   1  20
BRANCH  12  26
ATOM     26  C   UNL     1       4.588   6.160  18.212  0.00  0.00    +0.000 C 
ATOM     27  C   UNL     1       4.788   6.084  16.697  0.00  0.00    +0.000 C 
ATOM     28  C   UNL     1       6.256   6.423  16.476  0.00  0.00    +0.000 C 
ATOM     29  C   UNL     1       6.956   6.263  17.826  0.00  0.00    +0.000 C 
ATOM     30  C   UNL     1       5.928   5.658  18.775  0.00  0.00    +0.000 C 
ENDBRANCH  12  26
TORSDOF 2
ENDMDL
MODEL 6
REMARK VINA RESULT:      -8.1      2.609      8.695
REMARK  Name = 
REMARK  2 active torsions:
REMARK  status: ('A' for Active; 'I' for Inactive)
REMARK    1  A    between atoms: C_7  and  C_8
REMARK    2  A    between atoms: N_19  and  C_20
REMARK                            x       y       z     vdW  Elec       q    Type
REMARK                         _______ _______ _______ _____ _____    ______ ____
ROOT
ATOM      1  C   UNL     1       1.458   9.019  19.358  0.00  0.00    +0.000 C 
ATOM      2  O   UNL     1       1.813   9.943  18.621  0.00  0.00    +0.000 OA
ATOM      3  N   UNL     1       0.509   9.126  20.368  0.00  0.00    +0.000 N 
ATOM      4  C   UNL     1      -0.046  10.375  20.654  0.00  0.00    +0.000 A 
ATOM      5  N   UNL     1       0.046  10.966  21.827  0.00  0.00    +0.000 NA
ATOM      6  C   UNL     1      -0.628  12.165  21.698  0.00  0.00    +0.000 A 
ATOM      7  C   UNL     1      -0.758  13.234  22.599  0.00  0.00    +0.000 A 
ATOM      8  C   UNL     1      -1.546  14.339  22.250  0.00  0.00    +0.000 A 
ATOM      9  C   UNL     1      -2.204  14.384  21.025  0.00  0.00    +0.000 A 
ATOM     10  C   UNL     1      -2.071  13.339  20.108  0.00  0.00    +0.000 A 
ATOM     11  C   UNL     1      -1.259  12.245  20.459  0.00  0.00    +0.000 A 
ATOM     12  N   UNL     1      -0.897  11.074  19.814  0.00  0.00    +0.000 N 
ATOM     13  H   UNL     1       0.684   8.569  21.198  0.00  0.00    +0.000 HD
ENDROOT
BRANCH   1  20
ATOM     14  O   UNL     1       4.313   1.776  19.557  0.00  0.00    +0.000 OA
ATOM     15  C   UNL     1       3.701   2.843  19.667  0.00  0.00    +0.000 C 
ATOM     16  C   UNL     1       2.472   2.986  20.530  0.00  0.00    +0.000 C 
ATOM     17  C   UNL     1       2.386   4.379  21.138  0.00  0.00    +0.000 C 
ATOM     18  C   UNL     1       2.552   5.433  20.074  0.00  0.00    +0.000 A 
ATOM     19  C   UNL     1       1.929   6.689  20.169  0.00  0.00    +0.000 A 
ATOM     20  C   UNL     1       2.129   7.683  19.187  0.00  0.00    +0.000 A 
ATOM     21  C   UNL     1       3.018   7.413  18.135  0.00  0.00    +0.000 A 
ATOM     22  C   UNL     1       3.668   6.168  18.053  0.00  0.00    +0.000 A 
ATOM     23  C   UNL     1       3.415   5.178  19.005  0.00  0.00    +0.000 A 
ATOM     24  N   UNL     1       4.039   3.934  18.902  0.00  0.00    +0.000 N 
ATOM     25  H   UNL     1       4.779   3.779  18.228  0.00  0.00    +0.000 HD
ENDBRANCH   1  20
BRANCH  12  26
ATOM     26  C   UNL     1      -1.442  10.609  18.559  0.00  0.00    +0.000 C 
ATOM     27  C   UNL     1      -1.579  11.688  17.484  0.00  0.00    +0.000 C 
ATOM     28  C   UNL     1      -2.576  11.121  16.481  0.00  0.00    +0.000 C 
ATOM     29  C   UNL     1      -3.302   9.971  17.180  0.00  0.00    +0.000 C 
ATOM     30  C   UNL     1      -2.852  10.000  18.637  0.00  0.00    +0.000 C 
ENDBRANCH  12  26
TORSDOF 2
ENDMDL
MODEL 7
REMARK VINA RESULT:      -8.0      2.555      8.624
REMARK  Name = 
REMARK  2 active torsions:
REMARK  status: ('A' for Active; 'I' for Inactive)
REMARK    1  A    between atoms: C_7  and  C_8
REMARK    2  A    between atoms: N_19  and  C_20
REMARK                            x       y       z     vdW  Elec       q    Type
REMARK                         _______ _______ _______ _____ _____    ______ ____
ROOT
ATOM      1  C   UNL     1       1.587   9.106  19.000  0.00  0.00    +0.000 C 
ATOM      2  O   UNL     1       1.849  10.159  18.414  0.00  0.00    +0.000 OA
ATOM      3  N   UNL     1       0.620   8.964  19.990  0.00  0.00    +0.000 N 
ATOM      4  C   UNL     1      -0.070  10.093  20.436  0.00  0.00    +0.000 A 
ATOM      5  N   UNL     1      -0.055  10.514  21.684  0.00  0.00    +0.000 NA
ATOM      6  C   UNL     1      -0.853  11.642  21.710  0.00  0.00    +0.000 A 
ATOM      7  C   UNL     1      -1.108  12.548  22.751  0.00  0.00    +0.000 A 
ATOM      8  C   UNL     1      -2.006  13.604  22.544  0.00  0.00    +0.000 A 
ATOM      9  C   UNL     1      -2.650  13.758  21.320  0.00  0.00    +0.000 A 
ATOM     10  C   UNL     1      -2.396  12.876  20.267  0.00  0.00    +0.000 A 
ATOM     11  C   UNL     1      -1.474  11.834  20.479  0.00  0.00    +0.000 A 
ATOM     12  N   UNL     1      -0.981  10.814  19.683  0.00  0.00    +0.000 N 
ATOM     13  H   UNL     1       0.844   8.315  20.735  0.00  0.00    +0.000 HD
ENDROOT
BRANCH   1  20
ATOM     14  O   UNL     1       6.297   3.525  16.295  0.00  0.00    +0.000 OA
ATOM     15  C   UNL     1       5.690   4.552  16.612  0.00  0.00    +0.000 C 
ATOM     16  C   UNL     1       6.124   5.924  16.158  0.00  0.00    +0.000 C 
ATOM     17  C   UNL     1       4.927   6.841  15.955  0.00  0.00    +0.000 C 
ATOM     18  C   UNL     1       4.030   6.818  17.166  0.00  0.00    +0.000 A 
ATOM     19  C   UNL     1       3.268   7.936  17.546  0.00  0.00    +0.000 A 
ATOM     20  C   UNL     1       2.399   7.886  18.658  0.00  0.00    +0.000 A 
ATOM     21  C   UNL     1       2.263   6.671  19.345  0.00  0.00    +0.000 A 
ATOM     22  C   UNL     1       3.001   5.541  18.948  0.00  0.00    +0.000 A 
ATOM     23  C   UNL     1       3.896   5.625  17.879  0.00  0.00    +0.000 A 
ATOM     24  N   UNL     1       4.648   4.510  17.510  0.00  0.00    +0.000 N 
ATOM     25  H   UNL     1       4.458   3.599  17.910  0.00  0.00    +0.000 HD
ENDBRANCH   1  20
BRANCH  12  26
ATOM     26  C   UNL     1      -1.459  10.482  18.360  0.00  0.00    +0.000 C 
ATOM     27  C   UNL     1      -1.674  11.684  17.439  0.00  0.00    +0.000 C 
ATOM     28  C   UNL     1      -2.596  11.176  16.338  0.00  0.00    +0.000 C 
ATOM     29  C   UNL     1      -3.227   9.881  16.850  0.00  0.00    +0.000 C 
ATOM     30  C   UNL     1      -2.808   9.747  18.310  0.00  0.00    +0.000 C 
ENDBRANCH  12  26
TORSDOF 2
ENDMDL
MODEL 8
REMARK VINA RESULT:      -7.9      3.147      4.568
REMARK  Name = 
REMARK  2 active torsions:
REMARK  status: ('A' for Active; 'I' for Inactive)
REMARK    1  A    between atoms: C_7  and  C_8
REMARK    2  A    between atoms: N_19  and  C_20
REMARK                            x       y       z     vdW  Elec       q    Type
REMARK                         _______ _______ _______ _____ _____    ______ ____
ROOT
ATOM      1  C   UNL     1       1.809   8.146  19.044  0.00  0.00    +0.000 C 
ATOM      2  O   UNL     1       1.770   7.939  17.829  0.00  0.00    +0.000 OA
ATOM      3  N   UNL     1       2.104   7.186  20.006  0.00  0.00    +0.000 N 
ATOM      4  C   UNL     1       2.296   5.861  19.612  0.00  0.00    +0.000 A 
ATOM      5  N   UNL     1       1.562   4.856  20.041  0.00  0.00    +0.000 NA
ATOM      6  C   UNL     1       2.070   3.729  19.424  0.00  0.00    +0.000 A 
ATOM      7  C   UNL     1       1.609   2.402  19.436  0.00  0.00    +0.000 A 
ATOM      8  C   UNL     1       2.335   1.412  18.761  0.00  0.00    +0.000 A 
ATOM      9  C   UNL     1       3.509   1.730  18.084  0.00  0.00    +0.000 A 
ATOM     10  C   UNL     1       3.973   3.047  18.046  0.00  0.00    +0.000 A 
ATOM     11  C   UNL     1       3.224   4.036  18.707  0.00  0.00    +0.000 A 
ATOM     12  N   UNL     1       3.369   5.405  18.864  0.00  0.00    +0.000 N 
ATOM     13  H   UNL     1       1.601   7.272  20.882  0.00  0.00    +0.000 HD
ENDROOT
BRANCH   1  20
ATOM     14  O   UNL     1       0.516  15.695  20.457  0.00  0.00    +0.000 OA
ATOM     15  C   UNL     1       0.731  14.562  20.014  0.00  0.00    +0.000 C 
ATOM     16  C   UNL     1       0.917  14.290  18.542  0.00  0.00    +0.000 C 
ATOM     17  C   UNL     1       1.897  13.148  18.313  0.00  0.00    +0.000 C 
ATOM     18  C   UNL     1       1.519  11.950  19.147  0.00  0.00    +0.000 A 
ATOM     19  C   UNL     1       1.789  10.637  18.725  0.00  0.00    +0.000 A 
ATOM     20  C   UNL     1       1.470   9.527  19.536  0.00  0.00    +0.000 A 
ATOM     21  C   UNL     1       0.928   9.763  20.809  0.00  0.00    +0.000 A 
ATOM     22  C   UNL     1       0.686  11.078  21.247  0.00  0.00    +0.000 A 
ATOM     23  C   UNL     1       0.958  12.161  20.409  0.00  0.00    +0.000 A 
ATOM     24  N   UNL     1       0.686  13.461  20.836  0.00  0.00    +0.000 N 
ATOM     25  H   UNL     1       0.425  13.648  21.797  0.00  0.00    +0.000 HD
ENDBRANCH   1  20
BRANCH  12  26
ATOM     26  C   UNL     1       4.518   6.176  18.447  0.00  0.00    +0.000 C 
ATOM     27  C   UNL     1       4.654   6.353  16.934  0.00  0.00    +0.000 C 
ATOM     28  C   UNL     1       6.111   6.740  16.713  0.00  0.00    +0.000 C 
ATOM     29  C   UNL     1       6.867   6.370  17.989  0.00  0.00    +0.000 C 
ATOM     30  C   UNL     1       5.883   5.604  18.865  0.00  0.00    +0.000 C 
ENDBRANCH  12  26
TORSDOF 2
ENDMDL
MODEL 9
REMARK VINA RESULT:      -7.9      2.864      8.359
REMARK  Name = 
REMARK  2 active torsions:
REMARK  status: ('A' for Active; 'I' for Inactive)
REMARK    1  A    between atoms: C_7  and  C_8
REMARK    2  A    between atoms: N_19  and  C_20
REMARK                            x       y       z     vdW  Elec       q    Type
REMARK                         _______ _______ _______ _____ _____    ______ ____
ROOT
ATOM      1  C   UNL     1       1.717   8.793  19.247  0.00  0.00    +0.000 C 
ATOM      2  O   UNL     1       2.162   9.387  18.262  0.00  0.00    +0.000 OA
ATOM      3  N   UNL     1       0.985   9.384  20.271  0.00  0.00    +0.000 N 
ATOM      4  C   UNL     1       0.787  10.766  20.258  0.00  0.00    +0.000 A 
ATOM      5  N   UNL     1       1.194  11.572  21.217  0.00  0.00    +0.000 NA
ATOM      6  C   UNL     1       0.807  12.841  20.831  0.00  0.00    +0.000 A 
ATOM      7  C   UNL     1       1.069  14.088  21.420  0.00  0.00    +0.000 A 
ATOM      8  C   UNL     1       0.518  15.247  20.858  0.00  0.00    +0.000 A 
ATOM      9  C   UNL     1      -0.290  15.173  19.727  0.00  0.00    +0.000 A 
ATOM     10  C   UNL     1      -0.547  13.944  19.117  0.00  0.00    +0.000 A 
ATOM     11  C   UNL     1       0.031  12.789  19.676  0.00  0.00    +0.000 A 
ATOM     12  N   UNL     1       0.006  11.446  19.339  0.00  0.00    +0.000 N 
ATOM     13  H   UNL     1       1.149   9.014  21.200  0.00  0.00    +0.000 HD
ENDROOT
BRANCH   1  20
ATOM     14  O   UNL     1       3.762   1.294  18.753  0.00  0.00    +0.000 OA
ATOM     15  C   UNL     1       3.582   2.512  18.657  0.00  0.00    +0.000 C 
ATOM     16  C   UNL     1       4.285   3.356  17.622  0.00  0.00    +0.000 C 
ATOM     17  C   UNL     1       3.404   4.507  17.161  0.00  0.00    +0.000 C 
ATOM     18  C   UNL     1       2.857   5.263  18.344  0.00  0.00    +0.000 A 
ATOM     19  C   UNL     1       2.577   6.639  18.281  0.00  0.00    +0.000 A 
ATOM     20  C   UNL     1       2.023   7.325  19.383  0.00  0.00    +0.000 A 
ATOM     21  C   UNL     1       1.697   6.590  20.533  0.00  0.00    +0.000 A 
ATOM     22  C   UNL     1       1.948   5.206  20.588  0.00  0.00    +0.000 A 
ATOM     23  C   UNL     1       2.546   4.555  19.508  0.00  0.00    +0.000 A 
ATOM     24  N   UNL     1       2.820   3.190  19.580  0.00  0.00    +0.000 N 
ATOM     25  H   UNL     1       2.468   2.629  20.346  0.00  0.00    +0.000 HD
ENDBRANCH   1  20
BRANCH  12  26
ATOM     26  C   UNL     1      -0.818  10.859  18.307  0.00  0.00    +0.000 C 
ATOM     27  C   UNL     1      -1.525  11.869  17.403  0.00  0.00    +0.000 C 
ATOM     28  C   UNL     1      -2.659  11.088  16.751  0.00  0.00    +0.000 C 
ATOM     29  C   UNL     1      -2.855   9.818  17.579  0.00  0.00    +0.000 C 
ATOM     30  C   UNL     1      -1.962   9.962  18.806  0.00  0.00    +0.000 C 
ENDBRANCH  12  26
TORSDOF 2
ENDMDL
