MODEL 1
REMARK VINA RESULT:      -7.4      0.000      0.000
REMARK  Name = 
REMARK  9 active torsions:
REMARK  status: ('A' for Active; 'I' for Inactive)
REMARK    1  A    between atoms: C_1  and  N_2
REMARK    2  A    between atoms: C_6  and  C_7
REMARK    3  A    between atoms: C_7  and  C_8
REMARK    4  A    between atoms: C_8  and  N_9
REMARK    5  A    between atoms: N_9  and  C_10
REMARK    6  A    between atoms: C_10  and  C_11
REMARK    7  A    between atoms: C_11  and  N_12
REMARK    8  A    between atoms: C_15  and  N_16
REMARK    9  A    between atoms: C_23  and  C_24
REMARK                            x       y       z     vdW  Elec       q    Type
REMARK                         _______ _______ _______ _____ _____    ______ ____
ROOT
ATOM      1  N   UNL     1       3.485   5.858  19.482  0.00  0.00    +0.000 NA
ATOM      2  C   UNL     1       2.652   6.817  19.623  0.00  0.00    +0.000 C 
ATOM      3  C   UNL     1       2.248   8.017  18.902  0.00  0.00    +0.000 C 
ATOM      4  C   UNL     1       1.372   8.365  19.881  0.00  0.00    +0.000 C 
ATOM      5  C   UNL     1       1.668   7.112  20.721  0.00  0.00    +0.000 C 
ENDROOT
BRANCH   4   6
ATOM      6  N   UNL     1       0.521   9.441  20.059  0.00  0.00    +0.000 N 
ATOM      7  C   UNL     1      -0.537   9.782  19.127  0.00  0.00    +0.000 C 
ATOM      8  C   UNL     1      -1.160  10.992  19.750  0.00  0.00    +0.000 A 
ATOM      9  C   UNL     1      -0.484  11.304  20.931  0.00  0.00    +0.000 A 
ATOM     10  C   UNL     1      -0.827  12.379  21.730  0.00  0.00    +0.000 A 
ATOM     11  C   UNL     1      -1.897  13.168  21.317  0.00  0.00    +0.000 A 
ATOM     12  C   UNL     1      -2.594  12.865  20.133  0.00  0.00    +0.000 A 
ATOM     13  C   UNL     1      -2.236  11.765  19.325  0.00  0.00    +0.000 A 
ATOM     14  C   UNL     1       0.589  10.323  21.133  0.00  0.00    +0.000 C 
ATOM     15  O   UNL     1       1.352  10.329  22.080  0.00  0.00    +0.000 OA
BRANCH  13  16
ATOM     16  C   UNL     1      -3.014  11.467  18.070  0.00  0.00    +0.000 C 
ATOM     17  F   UNL     1      -2.325  11.730  16.925  0.00  0.00    +0.000 F 
ATOM     18  F   UNL     1      -3.382  10.159  17.989  0.00  0.00    +0.000 F 
ATOM     19  F   UNL     1      -4.163  12.189  17.987  0.00  0.00    +0.000 F 
ENDBRANCH  13  16
ENDBRANCH   4   6
BRANCH   1  20
ATOM     20  C   UNL     1       4.290   5.898  18.255  0.00  0.00    +0.000 C 
BRANCH  20  21
ATOM     21  C   UNL     1       5.553   5.060  18.488  0.00  0.00    +0.000 C 
BRANCH  21  22
ATOM     22  N   UNL     1       5.223   3.693  18.913  0.00  0.00    +0.000 NA
ATOM     23  H   UNL     1       6.109   3.194  19.066  0.00  0.00    +0.000 HD
BRANCH  22  24
ATOM     24  C   UNL     1       4.477   2.963  17.878  0.00  0.00    +0.000 C 
BRANCH  24  25
ATOM     25  C   UNL     1       3.400   1.978  18.370  0.00  0.00    +0.000 C 
BRANCH  25  31
ATOM     26  C   UNL     1       0.471   2.827  19.046  0.00  0.00    +0.000 C 
ATOM     27  N   UNL     1       1.560   2.701  19.977  0.00  0.00    +0.000 N 
ATOM     28  C   UNL     1       1.492   2.915  21.319  0.00  0.00    +0.000 A 
ATOM     29  N   UNL     1       2.668   2.705  21.858  0.00  0.00    +0.000 NA
ATOM     30  N   UNL     1       3.524   2.337  20.851  0.00  0.00    +0.000 NA
ATOM     31  C   UNL     1       2.855   2.339  19.713  0.00  0.00    +0.000 A 
ENDBRANCH  25  31
ENDBRANCH  24  25
ENDBRANCH  22  24
ENDBRANCH  21  22
ENDBRANCH  20  21
ENDBRANCH   1  20
TORSDOF 8
ENDMDL
MODEL 2
REMARK VINA RESULT:      -7.4      8.084      9.582
REMARK  Name = 
REMARK  9 active torsions:
REMARK  status: ('A' for Active; 'I' for Inactive)
REMARK    1  A    between atoms: C_1  and  N_2
REMARK    2  A    between atoms: C_6  and  C_7
REMARK    3  A    between atoms: C_7  and  C_8
REMARK    4  A    between atoms: C_8  and  N_9
REMARK    5  A    between atoms: N_9  and  C_10
REMARK    6  A    between atoms: C_10  and  C_11
REMARK    7  A    between atoms: C_11  and  N_12
REMARK    8  A    between atoms: C_15  and  N_16
REMARK    9  A    between atoms: C_23  and  C_24
REMARK                            x       y       z     vdW  Elec       q    Type
REMARK                         _______ _______ _______ _____ _____    ______ ____
ROOT
ATOM      1  N   UNL     1       8.397   7.833  18.664  0.00  0.00    +0.000 NA
ATOM      2  C   UNL     1       8.626   9.082  18.534  0.00  0.00    +0.000 C 
ATOM      3  C   UNL     1       8.282  10.159  17.614  0.00  0.00    +0.000 C 
ATOM      4  C   UNL     1       9.044  11.050  18.300  0.00  0.00    +0.000 C 
ATOM      5  C   UNL     1       9.448  10.024  19.371  0.00  0.00    +0.000 C 
ENDROOT
BRANCH   4   6
ATOM      6  N   UNL     1       9.343  12.389  18.116  0.00  0.00    +0.000 N 
ATOM      7  C   UNL     1       8.408  13.460  18.403  0.00  0.00    +0.000 C 
ATOM      8  C   UNL     1       9.184  14.689  18.049  0.00  0.00    +0.000 A 
ATOM      9  C   UNL     1      10.448  14.322  17.585  0.00  0.00    +0.000 A 
ATOM     10  C   UNL     1      11.394  15.242  17.175  0.00  0.00    +0.000 A 
ATOM     11  C   UNL     1      11.047  16.589  17.239  0.00  0.00    +0.000 A 
ATOM     12  C   UNL     1       9.779  16.979  17.709  0.00  0.00    +0.000 A 
ATOM     13  C   UNL     1       8.821  16.031  18.126  0.00  0.00    +0.000 A 
ATOM     14  C   UNL     1      10.556  12.858  17.623  0.00  0.00    +0.000 C 
ATOM     15  O   UNL     1      11.543  12.236  17.282  0.00  0.00    +0.000 OA
BRANCH  13  16
ATOM     16  C   UNL     1       7.479  16.489  18.633  0.00  0.00    +0.000 C 
ATOM     17  F   UNL     1       7.218  16.102  19.913  0.00  0.00    +0.000 F 
ATOM     18  F   UNL     1       7.357  17.844  18.623  0.00  0.00    +0.000 F 
ATOM     19  F   UNL     1       6.450  16.010  17.884  0.00  0.00    +0.000 F 
ENDBRANCH  13  16
ENDBRANCH   4   6
BRANCH   1  20
ATOM     20  C   UNL     1       7.526   7.242  17.640  0.00  0.00    +0.000 C 
BRANCH  20  21
ATOM     21  C   UNL     1       6.668   6.163  18.311  0.00  0.00    +0.000 C 
BRANCH  21  22
ATOM     22  N   UNL     1       6.661   4.917  17.533  0.00  0.00    +0.000 NA
ATOM     23  H   UNL     1       7.569   4.844  17.058  0.00  0.00    +0.000 HD
BRANCH  22  24
ATOM     24  C   UNL     1       5.618   4.924  16.498  0.00  0.00    +0.000 C 
BRANCH  24  25
ATOM     25  C   UNL     1       5.827   3.975  15.301  0.00  0.00    +0.000 C 
BRANCH  25  31
ATOM     26  C   UNL     1       5.911   3.236  12.268  0.00  0.00    +0.000 C 
ATOM     27  N   UNL     1       6.739   4.205  12.934  0.00  0.00    +0.000 N 
ATOM     28  C   UNL     1       7.691   4.980  12.346  0.00  0.00    +0.000 A 
ATOM     29  N   UNL     1       8.246   5.753  13.248  0.00  0.00    +0.000 NA
ATOM     30  N   UNL     1       7.640   5.486  14.450  0.00  0.00    +0.000 NA
ATOM     31  C   UNL     1       6.732   4.547  14.261  0.00  0.00    +0.000 A 
ENDBRANCH  25  31
ENDBRANCH  24  25
ENDBRANCH  22  24
ENDBRANCH  21  22
ENDBRANCH  20  21
ENDBRANCH   1  20
TORSDOF 8
ENDMDL
MODEL 3
REMARK VINA RESULT:      -7.4      1.160      1.832
REMARK  Name = 
REMARK  9 active torsions:
REMARK  status: ('A' for Active; 'I' for Inactive)
REMARK    1  A    between atoms: C_1  and  N_2
REMARK    2  A    between atoms: C_6  and  C_7
REMARK    3  A    between atoms: C_7  and  C_8
REMARK    4  A    between atoms: C_8  and  N_9
REMARK    5  A    between atoms: N_9  and  C_10
REMARK    6  A    between atoms: C_10  and  C_11
REMARK    7  A    between atoms: C_11  and  N_12
REMARK    8  A    between atoms: C_15  and  N_16
REMARK    9  A    between atoms: C_23  and  C_24
REMARK                            x       y       z     vdW  Elec       q    Type
REMARK                         _______ _______ _______ _____ _____    ______ ____
ROOT
ATOM      1  N   UNL     1       3.765   7.292  17.535  0.00  0.00    +0.000 NA
ATOM      2  C   UNL     1       2.848   8.054  17.992  0.00  0.00    +0.000 C 
ATOM      3  C   UNL     1       1.757   7.982  18.956  0.00  0.00    +0.000 C 
ATOM      4  C   UNL     1       1.359   9.250  18.669  0.00  0.00    +0.000 C 
ATOM      5  C   UNL     1       2.496   9.479  17.660  0.00  0.00    +0.000 C 
ENDROOT
BRANCH   4   6
ATOM      6  N   UNL     1       0.323  10.048  19.121  0.00  0.00    +0.000 N 
ATOM      7  C   UNL     1      -0.900  10.263  18.372  0.00  0.00    +0.000 C 
ATOM      8  C   UNL     1      -1.685  11.176  19.262  0.00  0.00    +0.000 A 
ATOM      9  C   UNL     1      -0.941  11.455  20.410  0.00  0.00    +0.000 A 
ATOM     10  C   UNL     1      -1.402  12.277  21.421  0.00  0.00    +0.000 A 
ATOM     11  C   UNL     1      -2.666  12.839  21.263  0.00  0.00    +0.000 A 
ATOM     12  C   UNL     1      -3.432  12.565  20.115  0.00  0.00    +0.000 A 
ATOM     13  C   UNL     1      -2.953  11.723  19.090  0.00  0.00    +0.000 A 
ATOM     14  C   UNL     1       0.339  10.741  20.327  0.00  0.00    +0.000 C 
ATOM     15  O   UNL     1       1.203  10.784  21.181  0.00  0.00    +0.000 OA
BRANCH  13  16
ATOM     16  C   UNL     1      -3.807  11.445  17.881  0.00  0.00    +0.000 C 
ATOM     17  F   UNL     1      -4.951  12.184  17.838  0.00  0.00    +0.000 F 
ATOM     18  F   UNL     1      -3.154  11.704  16.716  0.00  0.00    +0.000 F 
ATOM     19  F   UNL     1      -4.202  10.146  17.812  0.00  0.00    +0.000 F 
ENDBRANCH  13  16
ENDBRANCH   4   6
BRANCH   1  20
ATOM     20  C   UNL     1       3.808   5.943  18.112  0.00  0.00    +0.000 C 
BRANCH  20  21
ATOM     21  C   UNL     1       4.461   5.008  17.086  0.00  0.00    +0.000 C 
BRANCH  21  22
ATOM     22  N   UNL     1       5.251   3.956  17.739  0.00  0.00    +0.000 NA
ATOM     23  H   UNL     1       4.967   3.057  17.331  0.00  0.00    +0.000 HD
BRANCH  22  24
ATOM     24  C   UNL     1       4.988   3.892  19.183  0.00  0.00    +0.000 C 
BRANCH  24  25
ATOM     25  C   UNL     1       4.302   2.613  19.703  0.00  0.00    +0.000 C 
BRANCH  25  31
ATOM     26  C   UNL     1       1.958   3.161  21.692  0.00  0.00    +0.000 C 
ATOM     27  N   UNL     1       1.835   2.832  20.298  0.00  0.00    +0.000 N 
ATOM     28  C   UNL     1       0.669   2.721  19.604  0.00  0.00    +0.000 A 
ATOM     29  N   UNL     1       0.930   2.415  18.356  0.00  0.00    +0.000 NA
ATOM     30  N   UNL     1       2.292   2.332  18.226  0.00  0.00    +0.000 NA
ATOM     31  C   UNL     1       2.840   2.579  19.401  0.00  0.00    +0.000 A 
ENDBRANCH  25  31
ENDBRANCH  24  25
ENDBRANCH  22  24
ENDBRANCH  21  22
ENDBRANCH  20  21
ENDBRANCH   1  20
TORSDOF 8
ENDMDL
MODEL 4
REMARK VINA RESULT:      -7.3      3.020      4.783
REMARK  Name = 
REMARK  9 active torsions:
REMARK  status: ('A' for Active; 'I' for Inactive)
REMARK    1  A    between atoms: C_1  and  N_2
REMARK    2  A    between atoms: C_6  and  C_7
REMARK    3  A    between atoms: C_7  and  C_8
REMARK    4  A    between atoms: C_8  and  N_9
REMARK    5  A    between atoms: N_9  and  C_10
REMARK    6  A    between atoms: C_10  and  C_11
REMARK    7  A    between atoms: C_11  and  N_12
REMARK    8  A    between atoms: C_15  and  N_16
REMARK    9  A    between atoms: C_23  and  C_24
REMARK                            x       y       z     vdW  Elec       q    Type
REMARK                         _______ _______ _______ _____ _____    ______ ____
ROOT
ATOM      1  N   UNL     1       3.582   3.596  18.482  0.00  0.00    +0.000 NA
ATOM      2  C   UNL     1       3.100   4.754  18.721  0.00  0.00    +0.000 C 
ATOM      3  C   UNL     1       3.406   5.904  19.563  0.00  0.00    +0.000 C 
ATOM      4  C   UNL     1       2.297   6.566  19.140  0.00  0.00    +0.000 C 
ATOM      5  C   UNL     1       1.884   5.447  18.171  0.00  0.00    +0.000 C 
ENDROOT
BRANCH   4   6
ATOM      6  N   UNL     1       1.744   7.795  19.454  0.00  0.00    +0.000 N 
ATOM      7  C   UNL     1       1.111   8.082  20.727  0.00  0.00    +0.000 C 
ATOM      8  C   UNL     1       0.686   9.509  20.579  0.00  0.00    +0.000 A 
ATOM      9  C   UNL     1       1.045   9.970  19.311  0.00  0.00    +0.000 A 
ATOM     10  C   UNL     1       0.778  11.255  18.877  0.00  0.00    +0.000 A 
ATOM     11  C   UNL     1       0.124  12.108  19.762  0.00  0.00    +0.000 A 
ATOM     12  C   UNL     1      -0.241  11.662  21.046  0.00  0.00    +0.000 A 
ATOM     13  C   UNL     1       0.037  10.349  21.479  0.00  0.00    +0.000 A 
ATOM     14  C   UNL     1       1.717   8.884  18.588  0.00  0.00    +0.000 C 
ATOM     15  O   UNL     1       2.150   8.981  17.456  0.00  0.00    +0.000 OA
BRANCH  13  16
ATOM     16  C   UNL     1      -0.360   9.913  22.866  0.00  0.00    +0.000 C 
ATOM     17  F   UNL     1      -1.138   8.795  22.886  0.00  0.00    +0.000 F 
ATOM     18  F   UNL     1       0.718   9.628  23.645  0.00  0.00    +0.000 F 
ATOM     19  F   UNL     1      -1.064  10.868  23.529  0.00  0.00    +0.000 F 
ENDBRANCH  13  16
ENDBRANCH   4   6
BRANCH   1  20
ATOM     20  C   UNL     1       4.809   3.260  19.215  0.00  0.00    +0.000 C 
BRANCH  20  21
ATOM     21  C   UNL     1       5.985   3.954  18.516  0.00  0.00    +0.000 C 
BRANCH  21  22
ATOM     22  N   UNL     1       6.700   4.856  19.429  0.00  0.00    +0.000 NA
ATOM     23  H   UNL     1       6.043   5.592  19.715  0.00  0.00    +0.000 HD
BRANCH  22  24
ATOM     24  C   UNL     1       7.839   5.510  18.770  0.00  0.00    +0.000 C 
BRANCH  24  25
ATOM     25  C   UNL     1       7.506   6.488  17.627  0.00  0.00    +0.000 C 
BRANCH  25  31
ATOM     26  C   UNL     1       4.729   6.921  16.266  0.00  0.00    +0.000 C 
ATOM     27  N   UNL     1       5.760   6.017  15.832  0.00  0.00    +0.000 N 
ATOM     28  C   UNL     1       5.705   5.207  14.740  0.00  0.00    +0.000 A 
ATOM     29  N   UNL     1       6.820   4.524  14.643  0.00  0.00    +0.000 NA
ATOM     30  N   UNL     1       7.626   4.899  15.688  0.00  0.00    +0.000 NA
ATOM     31  C   UNL     1       6.984   5.798  16.410  0.00  0.00    +0.000 A 
ENDBRANCH  25  31
ENDBRANCH  24  25
ENDBRANCH  22  24
ENDBRANCH  21  22
ENDBRANCH  20  21
ENDBRANCH   1  20
TORSDOF 8
ENDMDL
MODEL 5
REMARK VINA RESULT:      -7.3      3.932      9.040
REMARK  Name = 
REMARK  9 active torsions:
REMARK  status: ('A' for Active; 'I' for Inactive)
REMARK    1  A    between atoms: C_1  and  N_2
REMARK    2  A    between atoms: C_6  and  C_7
REMARK    3  A    between atoms: C_7  and  C_8
REMARK    4  A    between atoms: C_8  and  N_9
REMARK    5  A    between atoms: N_9  and  C_10
REMARK    6  A    between atoms: C_10  and  C_11
REMARK    7  A    between atoms: C_11  and  N_12
REMARK    8  A    between atoms: C_15  and  N_16
REMARK    9  A    between atoms: C_23  and  C_24
REMARK                            x       y       z     vdW  Elec       q    Type
REMARK                         _______ _______ _______ _____ _____    ______ ____
ROOT
ATOM      1  N   UNL     1      -0.172  10.909  22.988  0.00  0.00    +0.000 NA
ATOM      2  C   UNL     1       0.327   9.976  22.273  0.00  0.00    +0.000 C 
ATOM      3  C   UNL     1       0.020   9.277  21.031  0.00  0.00    +0.000 C 
ATOM      4  C   UNL     1       1.092   8.455  21.175  0.00  0.00    +0.000 C 
ATOM      5  C   UNL     1       1.560   9.137  22.472  0.00  0.00    +0.000 C 
ENDROOT
BRANCH   4   6
ATOM      6  N   UNL     1       1.591   7.401  20.431  0.00  0.00    +0.000 N 
ATOM      7  C   UNL     1       1.501   6.015  20.852  0.00  0.00    +0.000 C 
ATOM      8  C   UNL     1       2.167   5.279  19.732  0.00  0.00    +0.000 A 
ATOM      9  C   UNL     1       2.605   6.192  18.772  0.00  0.00    +0.000 A 
ATOM     10  C   UNL     1       3.264   5.810  17.618  0.00  0.00    +0.000 A 
ATOM     11  C   UNL     1       3.487   4.449  17.429  0.00  0.00    +0.000 A 
ATOM     12  C   UNL     1       3.048   3.513  18.384  0.00  0.00    +0.000 A 
ATOM     13  C   UNL     1       2.375   3.913  19.557  0.00  0.00    +0.000 A 
ATOM     14  C   UNL     1       2.243   7.545  19.210  0.00  0.00    +0.000 C 
ATOM     15  O   UNL     1       2.489   8.557  18.582  0.00  0.00    +0.000 OA
BRANCH  13  16
ATOM     16  C   UNL     1       1.911   2.880  20.550  0.00  0.00    +0.000 C 
ATOM     17  F   UNL     1       1.836   1.622  20.035  0.00  0.00    +0.000 F 
ATOM     18  F   UNL     1       2.736   2.792  21.628  0.00  0.00    +0.000 F 
ATOM     19  F   UNL     1       0.673   3.153  21.043  0.00  0.00    +0.000 F 
ENDBRANCH  13  16
ENDBRANCH   4   6
BRANCH   1  20
ATOM     20  C   UNL     1      -1.402  11.515  22.463  0.00  0.00    +0.000 C 
BRANCH  20  21
ATOM     21  C   UNL     1      -1.014  12.776  21.681  0.00  0.00    +0.000 C 
BRANCH  21  22
ATOM     22  N   UNL     1      -2.159  13.326  20.942  0.00  0.00    +0.000 NA
ATOM     23  H   UNL     1      -3.014  12.990  21.402  0.00  0.00    +0.000 HD
BRANCH  22  24
ATOM     24  C   UNL     1      -2.189  12.855  19.550  0.00  0.00    +0.000 C 
BRANCH  24  25
ATOM     25  C   UNL     1      -3.295  11.845  19.188  0.00  0.00    +0.000 C 
BRANCH  25  31
ATOM     26  C   UNL     1      -5.456  12.105  16.948  0.00  0.00    +0.000 C 
ATOM     27  N   UNL     1      -4.160  11.495  16.818  0.00  0.00    +0.000 N 
ATOM     28  C   UNL     1      -3.650  10.940  15.685  0.00  0.00    +0.000 A 
ATOM     29  N   UNL     1      -2.444  10.484  15.924  0.00  0.00    +0.000 NA
ATOM     30  N   UNL     1      -2.155  10.751  17.238  0.00  0.00    +0.000 NA
ATOM     31  C   UNL     1      -3.194  11.358  17.780  0.00  0.00    +0.000 A 
ENDBRANCH  25  31
ENDBRANCH  24  25
ENDBRANCH  22  24
ENDBRANCH  21  22
ENDBRANCH  20  21
ENDBRANCH   1  20
TORSDOF 8
ENDMDL
MODEL 6
REMARK VINA RESULT:      -7.3      0.743      1.378
REMARK  Name = 
REMARK  9 active torsions:
REMARK  status: ('A' for Active; 'I' for Inactive)
REMARK    1  A    between atoms: C_1  and  N_2
REMARK    2  A    between atoms: C_6  and  C_7
REMARK    3  A    between atoms: C_7  and  C_8
REMARK    4  A    between atoms: C_8  and  N_9
REMARK    5  A    between atoms: N_9  and  C_10
REMARK    6  A    between atoms: C_10  and  C_11
REMARK    7  A    between atoms: C_11  and  N_12
REMARK    8  A    between atoms: C_15  and  N_16
REMARK    9  A    between atoms: C_23  and  C_24
REMARK                            x       y       z     vdW  Elec       q    Type
REMARK                         _______ _______ _______ _____ _____    ______ ____
ROOT
ATOM      1  N   UNL     1       3.671   5.793  19.352  0.00  0.00    +0.000 NA
ATOM      2  C   UNL     1       2.818   6.733  19.489  0.00  0.00    +0.000 C 
ATOM      3  C   UNL     1       2.356   7.897  18.743  0.00  0.00    +0.000 C 
ATOM      4  C   UNL     1       1.505   8.255  19.740  0.00  0.00    +0.000 C 
ATOM      5  C   UNL     1       1.863   7.039  20.610  0.00  0.00    +0.000 C 
ENDROOT
BRANCH   4   6
ATOM      6  N   UNL     1       0.630   9.313  19.911  0.00  0.00    +0.000 N 
ATOM      7  C   UNL     1      -0.403   9.655  18.952  0.00  0.00    +0.000 C 
ATOM      8  C   UNL     1      -1.065  10.842  19.578  0.00  0.00    +0.000 A 
ATOM      9  C   UNL     1      -0.433  11.142  20.786  0.00  0.00    +0.000 A 
ATOM     10  C   UNL     1      -0.820  12.194  21.595  0.00  0.00    +0.000 A 
ATOM     11  C   UNL     1      -1.890  12.974  21.163  0.00  0.00    +0.000 A 
ATOM     12  C   UNL     1      -2.542  12.684  19.951  0.00  0.00    +0.000 A 
ATOM     13  C   UNL     1      -2.141  11.607  19.134  0.00  0.00    +0.000 A 
ATOM     14  C   UNL     1       0.649  10.174  21.004  0.00  0.00    +0.000 C 
ATOM     15  O   UNL     1       1.381  10.173  21.975  0.00  0.00    +0.000 OA
BRANCH  13  16
ATOM     16  C   UNL     1      -2.872  11.321  17.849  0.00  0.00    +0.000 C 
ATOM     17  F   UNL     1      -3.282  10.027  17.728  0.00  0.00    +0.000 F 
ATOM     18  F   UNL     1      -3.994  12.079  17.713  0.00  0.00    +0.000 F 
ATOM     19  F   UNL     1      -2.110  11.573  16.751  0.00  0.00    +0.000 F 
ENDBRANCH  13  16
ENDBRANCH   4   6
BRANCH   1  20
ATOM     20  C   UNL     1       4.434   5.812  18.097  0.00  0.00    +0.000 C 
BRANCH  20  21
ATOM     21  C   UNL     1       5.243   4.512  18.012  0.00  0.00    +0.000 C 
BRANCH  21  22
ATOM     22  N   UNL     1       4.711   3.612  16.980  0.00  0.00    +0.000 NA
ATOM     23  H   UNL     1       4.894   4.046  16.067  0.00  0.00    +0.000 HD
BRANCH  22  24
ATOM     24  C   UNL     1       3.258   3.433  17.105  0.00  0.00    +0.000 C 
BRANCH  24  25
ATOM     25  C   UNL     1       2.780   2.225  17.933  0.00  0.00    +0.000 C 
BRANCH  25  31
ATOM     26  C   UNL     1       4.405   2.090  20.596  0.00  0.00    +0.000 C 
ATOM     27  N   UNL     1       3.049   2.544  20.446  0.00  0.00    +0.000 N 
ATOM     28  C   UNL     1       2.248   3.010  21.442  0.00  0.00    +0.000 A 
ATOM     29  N   UNL     1       1.080   3.341  20.948  0.00  0.00    +0.000 NA
ATOM     30  N   UNL     1       1.118   3.095  19.599  0.00  0.00    +0.000 NA
ATOM     31  C   UNL     1       2.306   2.608  19.296  0.00  0.00    +0.000 A 
ENDBRANCH  25  31
ENDBRANCH  24  25
ENDBRANCH  22  24
ENDBRANCH  21  22
ENDBRANCH  20  21
ENDBRANCH   1  20
TORSDOF 8
ENDMDL
MODEL 7
REMARK VINA RESULT:      -7.2      1.362      1.770
REMARK  Name = 
REMARK  9 active torsions:
REMARK  status: ('A' for Active; 'I' for Inactive)
REMARK    1  A    between atoms: C_1  and  N_2
REMARK    2  A    between atoms: C_6  and  C_7
REMARK    3  A    between atoms: C_7  and  C_8
REMARK    4  A    between atoms: C_8  and  N_9
REMARK    5  A    between atoms: N_9  and  C_10
REMARK    6  A    between atoms: C_10  and  C_11
REMARK    7  A    between atoms: C_11  and  N_12
REMARK    8  A    between atoms: C_15  and  N_16
REMARK    9  A    between atoms: C_23  and  C_24
REMARK                            x       y       z     vdW  Elec       q    Type
REMARK                         _______ _______ _______ _____ _____    ______ ____
ROOT
ATOM      1  N   UNL     1       3.753   6.901  17.246  0.00  0.00    +0.000 NA
ATOM      2  C   UNL     1       3.003   7.596  18.011  0.00  0.00    +0.000 C 
ATOM      3  C   UNL     1       2.256   7.422  19.250  0.00  0.00    +0.000 C 
ATOM      4  C   UNL     1       1.765   8.687  19.186  0.00  0.00    +0.000 C 
ATOM      5  C   UNL     1       2.538   9.023  17.900  0.00  0.00    +0.000 C 
ENDROOT
BRANCH   4   6
ATOM      6  N   UNL     1       0.897   9.413  19.983  0.00  0.00    +0.000 N 
ATOM      7  C   UNL     1      -0.010  10.419  19.462  0.00  0.00    +0.000 C 
ATOM      8  C   UNL     1      -0.716  10.903  20.689  0.00  0.00    +0.000 A 
ATOM      9  C   UNL     1      -0.223  10.226  21.806  0.00  0.00    +0.000 A 
ATOM     10  C   UNL     1      -0.680  10.463  23.089  0.00  0.00    +0.000 A 
ATOM     11  C   UNL     1      -1.676  11.423  23.247  0.00  0.00    +0.000 A 
ATOM     12  C   UNL     1      -2.189  12.111  22.133  0.00  0.00    +0.000 A 
ATOM     13  C   UNL     1      -1.717  11.861  20.827  0.00  0.00    +0.000 A 
ATOM     14  C   UNL     1       0.806   9.277  21.364  0.00  0.00    +0.000 C 
ATOM     15  O   UNL     1       1.419   8.538  22.110  0.00  0.00    +0.000 OA
BRANCH  13  16
ATOM     16  C   UNL     1      -2.299  12.611  19.658  0.00  0.00    +0.000 C 
ATOM     17  F   UNL     1      -2.881  11.806  18.727  0.00  0.00    +0.000 F 
ATOM     18  F   UNL     1      -3.261  13.495  20.038  0.00  0.00    +0.000 F 
ATOM     19  F   UNL     1      -1.363  13.337  18.989  0.00  0.00    +0.000 F 
ENDBRANCH  13  16
ENDBRANCH   4   6
BRANCH   1  20
ATOM     20  C   UNL     1       3.997   5.522  17.688  0.00  0.00    +0.000 C 
BRANCH  20  21
ATOM     21  C   UNL     1       5.413   5.454  18.274  0.00  0.00    +0.000 C 
BRANCH  21  22
ATOM     22  N   UNL     1       5.716   4.117  18.799  0.00  0.00    +0.000 NA
ATOM     23  H   UNL     1       6.518   3.751  18.271  0.00  0.00    +0.000 HD
BRANCH  22  24
ATOM     24  C   UNL     1       4.596   3.185  18.605  0.00  0.00    +0.000 C 
BRANCH  24  25
ATOM     25  C   UNL     1       4.331   2.179  19.742  0.00  0.00    +0.000 C 
BRANCH  25  31
ATOM     26  C   UNL     1       1.446   2.458  18.578  0.00  0.00    +0.000 C 
ATOM     27  N   UNL     1       1.826   2.588  19.959  0.00  0.00    +0.000 N 
ATOM     28  C   UNL     1       0.984   2.839  20.998  0.00  0.00    +0.000 A 
ATOM     29  N   UNL     1       1.668   2.887  22.116  0.00  0.00    +0.000 NA
ATOM     30  N   UNL     1       2.984   2.655  21.805  0.00  0.00    +0.000 NA
ATOM     31  C   UNL     1       3.080   2.479  20.500  0.00  0.00    +0.000 A 
ENDBRANCH  25  31
ENDBRANCH  24  25
ENDBRANCH  22  24
ENDBRANCH  21  22
ENDBRANCH  20  21
ENDBRANCH   1  20
TORSDOF 8
ENDMDL
MODEL 8
REMARK VINA RESULT:      -7.2      1.200      1.453
REMARK  Name = 
REMARK  9 active torsions:
REMARK  status: ('A' for Active; 'I' for Inactive)
REMARK    1  A    between atoms: C_1  and  N_2
REMARK    2  A    between atoms: C_6  and  C_7
REMARK    3  A    between atoms: C_7  and  C_8
REMARK    4  A    between atoms: C_8  and  N_9
REMARK    5  A    between atoms: N_9  and  C_10
REMARK    6  A    between atoms: C_10  and  C_11
REMARK    7  A    between atoms: C_11  and  N_12
REMARK    8  A    between atoms: C_15  and  N_16
REMARK    9  A    between atoms: C_23  and  C_24
REMARK                            x       y       z     vdW  Elec       q    Type
REMARK                         _______ _______ _______ _____ _____    ______ ____
ROOT
ATOM      1  N   UNL     1       4.115   6.637  18.144  0.00  0.00    +0.000 NA
ATOM      2  C   UNL     1       3.121   7.411  18.353  0.00  0.00    +0.000 C 
ATOM      3  C   UNL     1       2.438   8.508  17.678  0.00  0.00    +0.000 C 
ATOM      4  C   UNL     1       1.581   8.675  18.719  0.00  0.00    +0.000 C 
ATOM      5  C   UNL     1       2.175   7.504  19.519  0.00  0.00    +0.000 C 
ENDROOT
BRANCH   4   6
ATOM      6  N   UNL     1       0.547   9.560  18.968  0.00  0.00    +0.000 N 
ATOM      7  C   UNL     1      -0.524   9.821  18.024  0.00  0.00    +0.000 C 
ATOM      8  C   UNL     1      -1.370  10.825  18.743  0.00  0.00    +0.000 A 
ATOM      9  C   UNL     1      -0.799  11.108  19.985  0.00  0.00    +0.000 A 
ATOM     10  C   UNL     1      -1.352  12.007  20.877  0.00  0.00    +0.000 A 
ATOM     11  C   UNL     1      -2.531  12.644  20.498  0.00  0.00    +0.000 A 
ATOM     12  C   UNL     1      -3.124  12.366  19.252  0.00  0.00    +0.000 A 
ATOM     13  C   UNL     1      -2.552  11.446  18.349  0.00  0.00    +0.000 A 
ATOM     14  C   UNL     1       0.423  10.309  20.134  0.00  0.00    +0.000 C 
ATOM     15  O   UNL     1       1.142  10.335  21.115  0.00  0.00    +0.000 OA
BRANCH  13  16
ATOM     16  C   UNL     1      -3.222  11.168  17.030  0.00  0.00    +0.000 C 
ATOM     17  F   UNL     1      -3.637   9.878  16.889  0.00  0.00    +0.000 F 
ATOM     18  F   UNL     1      -4.329  11.936  16.841  0.00  0.00    +0.000 F 
ATOM     19  F   UNL     1      -2.406  11.413  15.970  0.00  0.00    +0.000 F 
ENDBRANCH  13  16
ENDBRANCH   4   6
BRANCH   1  20
ATOM     20  C   UNL     1       4.810   6.836  16.866  0.00  0.00    +0.000 C 
BRANCH  20  21
ATOM     21  C   UNL     1       5.156   5.456  16.293  0.00  0.00    +0.000 C 
BRANCH  21  22
ATOM     22  N   UNL     1       5.079   4.410  17.322  0.00  0.00    +0.000 NA
ATOM     23  H   UNL     1       5.977   3.910  17.323  0.00  0.00    +0.000 HD
BRANCH  22  24
ATOM     24  C   UNL     1       4.026   3.429  17.026  0.00  0.00    +0.000 C 
BRANCH  24  25
ATOM     25  C   UNL     1       3.637   2.469  18.168  0.00  0.00    +0.000 C 
BRANCH  25  31
ATOM     26  C   UNL     1       0.582   2.231  18.770  0.00  0.00    +0.000 C 
ATOM     27  N   UNL     1       1.538   3.016  19.503  0.00  0.00    +0.000 N 
ATOM     28  C   UNL     1       1.273   3.778  20.600  0.00  0.00    +0.000 A 
ATOM     29  N   UNL     1       2.377   4.351  21.013  0.00  0.00    +0.000 NA
ATOM     30  N   UNL     1       3.388   3.952  20.177  0.00  0.00    +0.000 NA
ATOM     31  C   UNL     1       2.880   3.149  19.261  0.00  0.00    +0.000 A 
ENDBRANCH  25  31
ENDBRANCH  24  25
ENDBRANCH  22  24
ENDBRANCH  21  22
ENDBRANCH  20  21
ENDBRANCH   1  20
TORSDOF 8
ENDMDL
MODEL 9
REMARK VINA RESULT:      -7.2      2.857      4.353
REMARK  Name = 
REMARK  9 active torsions:
REMARK  status: ('A' for Active; 'I' for Inactive)
REMARK    1  A    between atoms: C_1  and  N_2
REMARK    2  A    between atoms: C_6  and  C_7
REMARK    3  A    between atoms: C_7  and  C_8
REMARK    4  A    between atoms: C_8  and  N_9
REMARK    5  A    between atoms: N_9  and  C_10
REMARK    6  A    between atoms: C_10  and  C_11
REMARK    7  A    between atoms: C_11  and  N_12
REMARK    8  A    between atoms: C_15  and  N_16
REMARK    9  A    between atoms: C_23  and  C_24
REMARK                            x       y       z     vdW  Elec       q    Type
REMARK                         _______ _______ _______ _____ _____    ______ ____
ROOT
ATOM      1  N   UNL     1       3.749   7.039  17.881  0.00  0.00    +0.000 NA
ATOM      2  C   UNL     1       2.861   7.874  18.263  0.00  0.00    +0.000 C 
ATOM      3  C   UNL     1       1.755   7.925  19.211  0.00  0.00    +0.000 C 
ATOM      4  C   UNL     1       1.418   9.182  18.820  0.00  0.00    +0.000 C 
ATOM      5  C   UNL     1       2.578   9.282  17.815  0.00  0.00    +0.000 C 
ENDROOT
BRANCH   4   6
ATOM      6  N   UNL     1       0.412  10.057  19.190  0.00  0.00    +0.000 N 
ATOM      7  C   UNL     1      -0.823  10.213  18.445  0.00  0.00    +0.000 C 
ATOM      8  C   UNL     1      -1.563  11.248  19.232  0.00  0.00    +0.000 A 
ATOM      9  C   UNL     1      -0.786  11.646  20.322  0.00  0.00    +0.000 A 
ATOM     10  C   UNL     1      -1.203  12.599  21.232  0.00  0.00    +0.000 A 
ATOM     11  C   UNL     1      -2.457  13.171  21.032  0.00  0.00    +0.000 A 
ATOM     12  C   UNL     1      -3.256  12.779  19.943  0.00  0.00    +0.000 A 
ATOM     13  C   UNL     1      -2.822  11.805  19.020  0.00  0.00    +0.000 A 
ATOM     14  C   UNL     1       0.474  10.894  20.301  0.00  0.00    +0.000 C 
ATOM     15  O   UNL     1       1.358  11.018  21.126  0.00  0.00    +0.000 OA
BRANCH  13  16
ATOM     16  C   UNL     1      -3.711  11.403  17.872  0.00  0.00    +0.000 C 
ATOM     17  F   UNL     1      -3.180  11.676  16.648  0.00  0.00    +0.000 F 
ATOM     18  F   UNL     1      -3.982  10.070  17.871  0.00  0.00    +0.000 F 
ATOM     19  F   UNL     1      -4.916  12.034  17.904  0.00  0.00    +0.000 F 
ENDBRANCH  13  16
ENDBRANCH   4   6
BRANCH   1  20
ATOM     20  C   UNL     1       3.724   5.739  18.562  0.00  0.00    +0.000 C 
BRANCH  20  21
ATOM     21  C   UNL     1       4.072   4.657  17.532  0.00  0.00    +0.000 C 
BRANCH  21  22
ATOM     22  N   UNL     1       5.377   4.044  17.812  0.00  0.00    +0.000 NA
ATOM     23  H   UNL     1       5.737   4.465  18.678  0.00  0.00    +0.000 HD
BRANCH  22  24
ATOM     24  C   UNL     1       6.351   4.320  16.747  0.00  0.00    +0.000 C 
BRANCH  24  25
ATOM     25  C   UNL     1       6.054   3.704  15.366  0.00  0.00    +0.000 C 
BRANCH  25  31
ATOM     26  C   UNL     1       5.712   3.228  12.298  0.00  0.00    +0.000 C 
ATOM     27  N   UNL     1       6.632   4.140  12.923  0.00  0.00    +0.000 N 
ATOM     28  C   UNL     1       7.500   4.966  12.278  0.00  0.00    +0.000 A 
ATOM     29  N   UNL     1       8.181   5.660  13.157  0.00  0.00    +0.000 NA
ATOM     30  N   UNL     1       7.745   5.290  14.403  0.00  0.00    +0.000 NA
ATOM     31  C   UNL     1       6.812   4.367  14.262  0.00  0.00    +0.000 A 
ENDBRANCH  25  31
ENDBRANCH  24  25
ENDBRANCH  22  24
ENDBRANCH  21  22
ENDBRANCH  20  21
ENDBRANCH   1  20
TORSDOF 8
ENDMDL
