MODEL 1
REMARK VINA RESULT:      -8.6      0.000      0.000
REMARK  Name = 
REMARK  6 active torsions:
REMARK  status: ('A' for Active; 'I' for Inactive)
REMARK    1  A    between atoms: C_1  and  C_2
REMARK    2  A    between atoms: C_4  and  C_5
REMARK    3  A    between atoms: N_7  and  C_8
REMARK    4  A    between atoms: C_10  and  C_11
REMARK    5  A    between atoms: N_16  and  C_17
REMARK    6  A    between atoms: N_19  and  C_20
REMARK                            x       y       z     vdW  Elec       q    Type
REMARK                         _______ _______ _______ _____ _____    ______ ____
ROOT
ATOM      1  C   UNL     1       0.458   9.104  21.505  0.00  0.00    +0.000 C 
ATOM      2  C   UNL     1       1.264   8.761  20.300  0.00  0.00    +0.000 A 
ATOM      3  C   UNL     1       1.960   7.595  20.064  0.00  0.00    +0.000 A 
ATOM      4  C   UNL     1       2.433   7.684  18.739  0.00  0.00    +0.000 A 
ATOM      5  N   UNL     1       2.066   8.847  18.171  0.00  0.00    +0.000 NA
ATOM      6  N   UNL     1       1.366   9.521  19.139  0.00  0.00    +0.000 N 
ENDROOT
BRANCH   6   7
ATOM      7  C   UNL     1       0.887  10.835  18.888  0.00  0.00    +0.000 A 
ATOM      8  C   UNL     1       1.758  11.936  18.867  0.00  0.00    +0.000 A 
ATOM      9  C   UNL     1       1.263  13.223  18.640  0.00  0.00    +0.000 A 
ATOM     10  C   UNL     1      -0.096  13.411  18.432  0.00  0.00    +0.000 A 
ATOM     11  F   UNL     1      -0.567  14.646  18.218  0.00  0.00    +0.000 F 
ATOM     12  C   UNL     1      -0.972  12.335  18.427  0.00  0.00    +0.000 A 
ATOM     13  C   UNL     1      -0.476  11.049  18.640  0.00  0.00    +0.000 A 
ATOM     14  F   UNL     1      -1.360  10.040  18.669  0.00  0.00    +0.000 F 
ENDBRANCH   6   7
BRANCH   4  15
ATOM     15  C   UNL     1       3.226   6.671  18.042  0.00  0.00    +0.000 C 
ATOM     16  O   UNL     1       3.060   5.463  18.095  0.00  0.00    +0.000 OA
ATOM     17  N   UNL     1       4.298   7.303  17.327  0.00  0.00    +0.000 N 
ATOM     18  H   UNL     1       4.342   8.316  17.414  0.00  0.00    +0.000 HD
BRANCH  17  19
ATOM     19  C   UNL     1       5.265   6.594  16.623  0.00  0.00    +0.000 A 
ATOM     20  C   UNL     1       5.072   5.622  15.664  0.00  0.00    +0.000 A 
ATOM     21  C   UNL     1       6.367   5.187  15.309  0.00  0.00    +0.000 A 
ATOM     22  N   UNL     1       7.317   5.851  15.969  0.00  0.00    +0.000 NA
ATOM     23  N   UNL     1       6.630   6.712  16.746  0.00  0.00    +0.000 N 
ATOM     24  C   UNL     1       7.360   7.557  17.660  0.00  0.00    +0.000 C 
BRANCH  21  25
ATOM     25  C   UNL     1       6.630   4.066  14.310  0.00  0.00    +0.000 C 
ATOM     26  C   UNL     1       7.342   4.556  13.010  0.00  0.00    +0.000 C 
ATOM     27  C   UNL     1       6.443   3.588  12.222  0.00  0.00    +0.000 C 
ATOM     28  C   UNL     1       5.436   3.704  13.379  0.00  0.00    +0.000 C 
ENDBRANCH  21  25
ENDBRANCH  17  19
ENDBRANCH   4  15
TORSDOF 4
ENDMDL
MODEL 2
REMARK VINA RESULT:      -8.3      1.799      2.466
REMARK  Name = 
REMARK  6 active torsions:
REMARK  status: ('A' for Active; 'I' for Inactive)
REMARK    1  A    between atoms: C_1  and  C_2
REMARK    2  A    between atoms: C_4  and  C_5
REMARK    3  A    between atoms: N_7  and  C_8
REMARK    4  A    between atoms: C_10  and  C_11
REMARK    5  A    between atoms: N_16  and  C_17
REMARK    6  A    between atoms: N_19  and  C_20
REMARK                            x       y       z     vdW  Elec       q    Type
REMARK                         _______ _______ _______ _____ _____    ______ ____
ROOT
ATOM      1  C   UNL     1      -0.235  10.123  22.677  0.00  0.00    +0.000 C 
ATOM      2  C   UNL     1       0.541   9.415  21.622  0.00  0.00    +0.000 A 
ATOM      3  C   UNL     1       1.061   8.139  21.681  0.00  0.00    +0.000 A 
ATOM      4  C   UNL     1       1.577   7.869  20.397  0.00  0.00    +0.000 A 
ATOM      5  N   UNL     1       1.403   8.918  19.574  0.00  0.00    +0.000 NA
ATOM      6  N   UNL     1       0.787   9.879  20.334  0.00  0.00    +0.000 N 
ENDROOT
BRANCH   6   7
ATOM      7  C   UNL     1       0.517  11.161  19.781  0.00  0.00    +0.000 A 
ATOM      8  C   UNL     1       1.342  12.262  20.058  0.00  0.00    +0.000 A 
ATOM      9  C   UNL     1       1.046  13.518  19.522  0.00  0.00    +0.000 A 
ATOM     10  C   UNL     1      -0.068  13.674  18.710  0.00  0.00    +0.000 A 
ATOM     11  F   UNL     1      -0.350  14.880  18.201  0.00  0.00    +0.000 F 
ATOM     12  C   UNL     1      -0.885  12.595  18.405  0.00  0.00    +0.000 A 
ATOM     13  C   UNL     1      -0.582  11.339  18.929  0.00  0.00    +0.000 A 
ATOM     14  F   UNL     1      -1.419  10.330  18.645  0.00  0.00    +0.000 F 
ENDBRANCH   6   7
BRANCH   4  15
ATOM     15  C   UNL     1       2.227   6.626  19.980  0.00  0.00    +0.000 C 
ATOM     16  O   UNL     1       2.570   5.711  20.711  0.00  0.00    +0.000 OA
ATOM     17  N   UNL     1       2.477   6.662  18.567  0.00  0.00    +0.000 N 
ATOM     18  H   UNL     1       2.180   7.512  18.094  0.00  0.00    +0.000 HD
BRANCH  17  19
ATOM     19  C   UNL     1       3.146   5.650  17.887  0.00  0.00    +0.000 A 
ATOM     20  C   UNL     1       4.389   5.709  17.292  0.00  0.00    +0.000 A 
ATOM     21  C   UNL     1       4.576   4.443  16.696  0.00  0.00    +0.000 A 
ATOM     22  N   UNL     1       3.544   3.627  16.918  0.00  0.00    +0.000 NA
ATOM     23  N   UNL     1       2.698   4.371  17.657  0.00  0.00    +0.000 N 
ATOM     24  C   UNL     1       1.421   3.808  18.026  0.00  0.00    +0.000 C 
BRANCH  21  25
ATOM     25  C   UNL     1       5.805   4.079  15.871  0.00  0.00    +0.000 C 
ATOM     26  C   UNL     1       6.822   5.256  15.731  0.00  0.00    +0.000 C 
ATOM     27  C   UNL     1       7.044   4.815  14.275  0.00  0.00    +0.000 C 
ATOM     28  C   UNL     1       5.636   4.199  14.327  0.00  0.00    +0.000 C 
ENDBRANCH  21  25
ENDBRANCH  17  19
ENDBRANCH   4  15
TORSDOF 4
ENDMDL
MODEL 3
REMARK VINA RESULT:      -7.8      3.930      9.665
REMARK  Name = 
REMARK  6 active torsions:
REMARK  status: ('A' for Active; 'I' for Inactive)
REMARK    1  A    between atoms: C_1  and  C_2
REMARK    2  A    between atoms: C_4  and  C_5
REMARK    3  A    between atoms: N_7  and  C_8
REMARK    4  A    between atoms: C_10  and  C_11
REMARK    5  A    between atoms: N_16  and  C_17
REMARK    6  A    between atoms: N_19  and  C_20
REMARK                            x       y       z     vdW  Elec       q    Type
REMARK                         _______ _______ _______ _____ _____    ______ ____
ROOT
ATOM      1  C   UNL     1       5.527   6.066  16.155  0.00  0.00    +0.000 C 
ATOM      2  C   UNL     1       4.418   6.626  16.977  0.00  0.00    +0.000 A 
ATOM      3  C   UNL     1       4.032   7.947  17.072  0.00  0.00    +0.000 A 
ATOM      4  C   UNL     1       2.856   7.954  17.848  0.00  0.00    +0.000 A 
ATOM      5  N   UNL     1       2.521   6.709  18.233  0.00  0.00    +0.000 NA
ATOM      6  N   UNL     1       3.495   5.894  17.717  0.00  0.00    +0.000 N 
ENDROOT
BRANCH   6   7
ATOM      7  C   UNL     1       3.482   4.501  17.999  0.00  0.00    +0.000 A 
ATOM      8  C   UNL     1       2.597   3.633  17.341  0.00  0.00    +0.000 A 
ATOM      9  C   UNL     1       2.585   2.270  17.650  0.00  0.00    +0.000 A 
ATOM     10  C   UNL     1       3.455   1.774  18.609  0.00  0.00    +0.000 A 
ATOM     11  F   UNL     1       3.438   0.469  18.905  0.00  0.00    +0.000 F 
ATOM     12  C   UNL     1       4.354   2.610  19.257  0.00  0.00    +0.000 A 
ATOM     13  C   UNL     1       4.374   3.967  18.939  0.00  0.00    +0.000 A 
ATOM     14  F   UNL     1       5.228   4.750  19.616  0.00  0.00    +0.000 F 
ENDBRANCH   6   7
BRANCH   4  15
ATOM     15  C   UNL     1       2.078   9.139  18.213  0.00  0.00    +0.000 C 
ATOM     16  O   UNL     1       2.164  10.243  17.702  0.00  0.00    +0.000 OA
ATOM     17  N   UNL     1       1.231   8.835  19.330  0.00  0.00    +0.000 N 
ATOM     18  H   UNL     1       1.301   7.884  19.685  0.00  0.00    +0.000 HD
BRANCH  17  19
ATOM     19  C   UNL     1       0.420   9.781  19.950  0.00  0.00    +0.000 A 
ATOM     20  C   UNL     1       0.529  10.280  21.231  0.00  0.00    +0.000 A 
ATOM     21  C   UNL     1      -0.563  11.161  21.380  0.00  0.00    +0.000 A 
ATOM     22  N   UNL     1      -1.298  11.242  20.270  0.00  0.00    +0.000 NA
ATOM     23  N   UNL     1      -0.675  10.412  19.409  0.00  0.00    +0.000 N 
ATOM     24  C   UNL     1      -1.254  10.204  18.105  0.00  0.00    +0.000 C 
BRANCH  21  25
ATOM     25  C   UNL     1      -0.871  11.902  22.677  0.00  0.00    +0.000 C 
ATOM     26  C   UNL     1      -2.400  12.097  22.924  0.00  0.00    +0.000 C 
ATOM     27  C   UNL     1      -2.076  13.501  23.461  0.00  0.00    +0.000 C 
ATOM     28  C   UNL     1      -0.807  13.455  22.594  0.00  0.00    +0.000 C 
ENDBRANCH  21  25
ENDBRANCH  17  19
ENDBRANCH   4  15
TORSDOF 4
ENDMDL
MODEL 4
REMARK VINA RESULT:      -7.8      2.200      2.851
REMARK  Name = 
REMARK  6 active torsions:
REMARK  status: ('A' for Active; 'I' for Inactive)
REMARK    1  A    between atoms: C_1  and  C_2
REMARK    2  A    between atoms: C_4  and  C_5
REMARK    3  A    between atoms: N_7  and  C_8
REMARK    4  A    between atoms: C_10  and  C_11
REMARK    5  A    between atoms: N_16  and  C_17
REMARK    6  A    between atoms: N_19  and  C_20
REMARK                            x       y       z     vdW  Elec       q    Type
REMARK                         _______ _______ _______ _____ _____    ______ ____
ROOT
ATOM      1  C   UNL     1      -0.091   9.527  22.757  0.00  0.00    +0.000 C 
ATOM      2  C   UNL     1       0.538   9.507  21.407  0.00  0.00    +0.000 A 
ATOM      3  C   UNL     1       1.220   8.464  20.816  0.00  0.00    +0.000 A 
ATOM      4  C   UNL     1       1.492   8.874  19.496  0.00  0.00    +0.000 A 
ATOM      5  N   UNL     1       1.019  10.111  19.265  0.00  0.00    +0.000 NA
ATOM      6  N   UNL     1       0.452  10.511  20.447  0.00  0.00    +0.000 N 
ENDROOT
BRANCH   6   7
ATOM      7  C   UNL     1      -0.090  11.820  20.572  0.00  0.00    +0.000 A 
ATOM      8  C   UNL     1       0.606  12.834  21.248  0.00  0.00    +0.000 A 
ATOM      9  C   UNL     1       0.046  14.108  21.378  0.00  0.00    +0.000 A 
ATOM     10  C   UNL     1      -1.203  14.370  20.834  0.00  0.00    +0.000 A 
ATOM     11  F   UNL     1      -1.738  15.590  20.963  0.00  0.00    +0.000 F 
ATOM     12  C   UNL     1      -1.899  13.387  20.143  0.00  0.00    +0.000 A 
ATOM     13  C   UNL     1      -1.335  12.121  20.002  0.00  0.00    +0.000 A 
ATOM     14  F   UNL     1      -2.056  11.187  19.364  0.00  0.00    +0.000 F 
ENDBRANCH   6   7
BRANCH   4  15
ATOM     15  C   UNL     1       2.198   8.087  18.484  0.00  0.00    +0.000 C 
ATOM     16  O   UNL     1       2.396   8.414  17.325  0.00  0.00    +0.000 OA
ATOM     17  N   UNL     1       2.574   6.816  19.035  0.00  0.00    +0.000 N 
ATOM     18  H   UNL     1       2.298   6.662  20.002  0.00  0.00    +0.000 HD
BRANCH  17  19
ATOM     19  C   UNL     1       3.200   5.820  18.293  0.00  0.00    +0.000 A 
ATOM     20  C   UNL     1       4.457   5.850  17.726  0.00  0.00    +0.000 A 
ATOM     21  C   UNL     1       4.585   4.623  17.041  0.00  0.00    +0.000 A 
ATOM     22  N   UNL     1       3.504   3.855  17.182  0.00  0.00    +0.000 NA
ATOM     23  N   UNL     1       2.685   4.590  17.959  0.00  0.00    +0.000 N 
ATOM     24  C   UNL     1       1.370   4.077  18.262  0.00  0.00    +0.000 C 
BRANCH  21  25
ATOM     25  C   UNL     1       5.810   4.250  16.213  0.00  0.00    +0.000 C 
ATOM     26  C   UNL     1       6.802   5.438  16.014  0.00  0.00    +0.000 C 
ATOM     27  C   UNL     1       7.014   4.946  14.573  0.00  0.00    +0.000 C 
ATOM     28  C   UNL     1       5.618   4.306  14.669  0.00  0.00    +0.000 C 
ENDBRANCH  21  25
ENDBRANCH  17  19
ENDBRANCH   4  15
TORSDOF 4
ENDMDL
MODEL 5
REMARK VINA RESULT:      -7.8      1.097      1.374
REMARK  Name = 
REMARK  6 active torsions:
REMARK  status: ('A' for Active; 'I' for Inactive)
REMARK    1  A    between atoms: C_1  and  C_2
REMARK    2  A    between atoms: C_4  and  C_5
REMARK    3  A    between atoms: N_7  and  C_8
REMARK    4  A    between atoms: C_10  and  C_11
REMARK    5  A    between atoms: N_16  and  C_17
REMARK    6  A    between atoms: N_19  and  C_20
REMARK                            x       y       z     vdW  Elec       q    Type
REMARK                         _______ _______ _______ _____ _____    ______ ____
ROOT
ATOM      1  C   UNL     1       0.065   8.178  21.752  0.00  0.00    +0.000 C 
ATOM      2  C   UNL     1       1.071   8.009  20.667  0.00  0.00    +0.000 A 
ATOM      3  C   UNL     1       1.949   6.960  20.496  0.00  0.00    +0.000 A 
ATOM      4  C   UNL     1       2.585   7.182  19.258  0.00  0.00    +0.000 A 
ATOM      5  N   UNL     1       2.144   8.314  18.682  0.00  0.00    +0.000 NA
ATOM      6  N   UNL     1       1.228   8.837  19.559  0.00  0.00    +0.000 N 
ENDROOT
BRANCH   6   7
ATOM      7  C   UNL     1       0.611  10.088  19.285  0.00  0.00    +0.000 A 
ATOM      8  C   UNL     1      -0.341  10.221  18.262  0.00  0.00    +0.000 A 
ATOM      9  C   UNL     1      -0.918  11.466  17.995  0.00  0.00    +0.000 A 
ATOM     10  C   UNL     1      -0.550  12.572  18.747  0.00  0.00    +0.000 A 
ATOM     11  F   UNL     1      -1.103  13.762  18.485  0.00  0.00    +0.000 F 
ATOM     12  C   UNL     1       0.374  12.458  19.776  0.00  0.00    +0.000 A 
ATOM     13  C   UNL     1       0.940  11.214  20.052  0.00  0.00    +0.000 A 
ATOM     14  F   UNL     1       1.859  11.153  21.028  0.00  0.00    +0.000 F 
ENDBRANCH   6   7
BRANCH   4  15
ATOM     15  C   UNL     1       3.601   6.321  18.651  0.00  0.00    +0.000 C 
ATOM     16  O   UNL     1       4.012   5.264  19.101  0.00  0.00    +0.000 OA
ATOM     17  N   UNL     1       4.111   6.940  17.461  0.00  0.00    +0.000 N 
ATOM     18  H   UNL     1       3.708   7.846  17.234  0.00  0.00    +0.000 HD
BRANCH  17  19
ATOM     19  C   UNL     1       5.139   6.394  16.699  0.00  0.00    +0.000 A 
ATOM     20  C   UNL     1       5.046   5.429  15.719  0.00  0.00    +0.000 A 
ATOM     21  C   UNL     1       6.373   5.192  15.303  0.00  0.00    +0.000 A 
ATOM     22  N   UNL     1       7.246   5.966  15.949  0.00  0.00    +0.000 NA
ATOM     23  N   UNL     1       6.477   6.700  16.776  0.00  0.00    +0.000 N 
ATOM     24  C   UNL     1       7.117   7.616  17.689  0.00  0.00    +0.000 C 
BRANCH  21  25
ATOM     25  C   UNL     1       6.750   4.145  14.261  0.00  0.00    +0.000 C 
ATOM     26  C   UNL     1       7.324   4.765  12.948  0.00  0.00    +0.000 C 
ATOM     27  C   UNL     1       6.540   3.696  12.168  0.00  0.00    +0.000 C 
ATOM     28  C   UNL     1       5.580   3.635  13.369  0.00  0.00    +0.000 C 
ENDBRANCH  21  25
ENDBRANCH  17  19
ENDBRANCH   4  15
TORSDOF 4
ENDMDL
MODEL 6
REMARK VINA RESULT:      -7.8      1.112      1.232
REMARK  Name = 
REMARK  6 active torsions:
REMARK  status: ('A' for Active; 'I' for Inactive)
REMARK    1  A    between atoms: C_1  and  C_2
REMARK    2  A    between atoms: C_4  and  C_5
REMARK    3  A    between atoms: N_7  and  C_8
REMARK    4  A    between atoms: C_10  and  C_11
REMARK    5  A    between atoms: N_16  and  C_17
REMARK    6  A    between atoms: N_19  and  C_20
REMARK                            x       y       z     vdW  Elec       q    Type
REMARK                         _______ _______ _______ _____ _____    ______ ____
ROOT
ATOM      1  C   UNL     1       0.794   9.503  21.761  0.00  0.00    +0.000 C 
ATOM      2  C   UNL     1       1.311   8.956  20.476  0.00  0.00    +0.000 A 
ATOM      3  C   UNL     1       1.853   7.707  20.257  0.00  0.00    +0.000 A 
ATOM      4  C   UNL     1       2.055   7.608  18.866  0.00  0.00    +0.000 A 
ATOM      5  N   UNL     1       1.672   8.735  18.239  0.00  0.00    +0.000 NA
ATOM      6  N   UNL     1       1.236   9.574  19.232  0.00  0.00    +0.000 N 
ENDROOT
BRANCH   6   7
ATOM      7  C   UNL     1       0.819  10.896  18.917  0.00  0.00    +0.000 A 
ATOM      8  C   UNL     1       1.743  11.949  18.831  0.00  0.00    +0.000 A 
ATOM      9  C   UNL     1       1.309  13.246  18.542  0.00  0.00    +0.000 A 
ATOM     10  C   UNL     1      -0.041  13.491  18.336  0.00  0.00    +0.000 A 
ATOM     11  F   UNL     1      -0.453  14.735  18.062  0.00  0.00    +0.000 F 
ATOM     12  C   UNL     1      -0.969  12.460  18.395  0.00  0.00    +0.000 A 
ATOM     13  C   UNL     1      -0.535  11.165  18.670  0.00  0.00    +0.000 A 
ATOM     14  F   UNL     1      -1.466  10.203  18.759  0.00  0.00    +0.000 F 
ENDBRANCH   6   7
BRANCH   4  15
ATOM     15  C   UNL     1       2.610   6.452  18.161  0.00  0.00    +0.000 C 
ATOM     16  O   UNL     1       2.015   5.424  17.881  0.00  0.00    +0.000 OA
ATOM     17  N   UNL     1       4.004   6.669  17.900  0.00  0.00    +0.000 N 
ATOM     18  H   UNL     1       4.378   7.554  18.235  0.00  0.00    +0.000 HD
BRANCH  17  19
ATOM     19  C   UNL     1       4.824   5.717  17.303  0.00  0.00    +0.000 A 
ATOM     20  C   UNL     1       5.258   5.673  15.995  0.00  0.00    +0.000 A 
ATOM     21  C   UNL     1       6.011   4.485  15.892  0.00  0.00    +0.000 A 
ATOM     22  N   UNL     1       6.079   3.832  17.053  0.00  0.00    +0.000 NA
ATOM     23  N   UNL     1       5.369   4.604  17.899  0.00  0.00    +0.000 N 
ATOM     24  C   UNL     1       5.177   4.152  19.256  0.00  0.00    +0.000 C 
BRANCH  21  25
ATOM     25  C   UNL     1       6.640   4.001  14.590  0.00  0.00    +0.000 C 
ATOM     26  C   UNL     1       7.279   5.153  13.752  0.00  0.00    +0.000 C 
ATOM     27  C   UNL     1       6.737   4.459  12.491  0.00  0.00    +0.000 C 
ATOM     28  C   UNL     1       5.658   3.834  13.393  0.00  0.00    +0.000 C 
ENDBRANCH  21  25
ENDBRANCH  17  19
ENDBRANCH   4  15
TORSDOF 4
ENDMDL
MODEL 7
REMARK VINA RESULT:      -7.8      2.048      2.891
REMARK  Name = 
REMARK  6 active torsions:
REMARK  status: ('A' for Active; 'I' for Inactive)
REMARK    1  A    between atoms: C_1  and  C_2
REMARK    2  A    between atoms: C_4  and  C_5
REMARK    3  A    between atoms: N_7  and  C_8
REMARK    4  A    between atoms: C_10  and  C_11
REMARK    5  A    between atoms: N_16  and  C_17
REMARK    6  A    between atoms: N_19  and  C_20
REMARK                            x       y       z     vdW  Elec       q    Type
REMARK                         _______ _______ _______ _____ _____    ______ ____
ROOT
ATOM      1  C   UNL     1       1.421  11.950  18.339  0.00  0.00    +0.000 C 
ATOM      2  C   UNL     1       1.511  10.480  18.559  0.00  0.00    +0.000 A 
ATOM      3  C   UNL     1       2.194   9.559  17.792  0.00  0.00    +0.000 A 
ATOM      4  C   UNL     1       2.102   8.333  18.481  0.00  0.00    +0.000 A 
ATOM      5  N   UNL     1       1.392   8.466  19.615  0.00  0.00    +0.000 NA
ATOM      6  N   UNL     1       1.008   9.782  19.653  0.00  0.00    +0.000 N 
ENDROOT
BRANCH   6   7
ATOM      7  C   UNL     1       0.171  10.251  20.702  0.00  0.00    +0.000 A 
ATOM      8  C   UNL     1      -0.826  11.209  20.465  0.00  0.00    +0.000 A 
ATOM      9  C   UNL     1      -1.623  11.674  21.515  0.00  0.00    +0.000 A 
ATOM     10  C   UNL     1      -1.426  11.182  22.798  0.00  0.00    +0.000 A 
ATOM     11  F   UNL     1      -2.189  11.631  23.802  0.00  0.00    +0.000 F 
ATOM     12  C   UNL     1      -0.460  10.218  23.051  0.00  0.00    +0.000 A 
ATOM     13  C   UNL     1       0.326   9.746  22.001  0.00  0.00    +0.000 A 
ATOM     14  F   UNL     1       1.276   8.845  22.293  0.00  0.00    +0.000 F 
ENDBRANCH   6   7
BRANCH   4  15
ATOM     15  C   UNL     1       2.683   7.062  18.047  0.00  0.00    +0.000 C 
ATOM     16  O   UNL     1       2.170   5.960  18.154  0.00  0.00    +0.000 OA
ATOM     17  N   UNL     1       4.003   7.286  17.531  0.00  0.00    +0.000 N 
ATOM     18  H   UNL     1       4.321   8.253  17.549  0.00  0.00    +0.000 HD
BRANCH  17  19
ATOM     19  C   UNL     1       4.838   6.258  17.104  0.00  0.00    +0.000 A 
ATOM     20  C   UNL     1       5.152   5.905  15.809  0.00  0.00    +0.000 A 
ATOM     21  C   UNL     1       5.985   4.772  15.924  0.00  0.00    +0.000 A 
ATOM     22  N   UNL     1       6.210   4.442  17.196  0.00  0.00    +0.000 NA
ATOM     23  N   UNL     1       5.522   5.365  17.896  0.00  0.00    +0.000 N 
ATOM     24  C   UNL     1       5.490   5.265  19.335  0.00  0.00    +0.000 C 
BRANCH  21  25
ATOM     25  C   UNL     1       6.528   4.006  14.722  0.00  0.00    +0.000 C 
ATOM     26  C   UNL     1       7.310   4.912  13.719  0.00  0.00    +0.000 C 
ATOM     27  C   UNL     1       6.665   4.107  12.579  0.00  0.00    +0.000 C 
ATOM     28  C   UNL     1       5.521   3.786  13.556  0.00  0.00    +0.000 C 
ENDBRANCH  21  25
ENDBRANCH  17  19
ENDBRANCH   4  15
TORSDOF 4
ENDMDL
MODEL 8
REMARK VINA RESULT:      -7.8      2.426      3.144
REMARK  Name = 
REMARK  6 active torsions:
REMARK  status: ('A' for Active; 'I' for Inactive)
REMARK    1  A    between atoms: C_1  and  C_2
REMARK    2  A    between atoms: C_4  and  C_5
REMARK    3  A    between atoms: N_7  and  C_8
REMARK    4  A    between atoms: C_10  and  C_11
REMARK    5  A    between atoms: N_16  and  C_17
REMARK    6  A    between atoms: N_19  and  C_20
REMARK                            x       y       z     vdW  Elec       q    Type
REMARK                         _______ _______ _______ _____ _____    ______ ____
ROOT
ATOM      1  C   UNL     1       0.061   9.486  22.749  0.00  0.00    +0.000 C 
ATOM      2  C   UNL     1       0.645   9.435  21.379  0.00  0.00    +0.000 A 
ATOM      3  C   UNL     1       1.326   8.386  20.799  0.00  0.00    +0.000 A 
ATOM      4  C   UNL     1       1.547   8.758  19.458  0.00  0.00    +0.000 A 
ATOM      5  N   UNL     1       1.043   9.979  19.205  0.00  0.00    +0.000 NA
ATOM      6  N   UNL     1       0.508  10.407  20.393  0.00  0.00    +0.000 N 
ENDROOT
BRANCH   6   7
ATOM      7  C   UNL     1      -0.053  11.709  20.495  0.00  0.00    +0.000 A 
ATOM      8  C   UNL     1      -1.437  11.915  20.385  0.00  0.00    +0.000 A 
ATOM      9  C   UNL     1      -1.966  13.207  20.466  0.00  0.00    +0.000 A 
ATOM     10  C   UNL     1      -1.117  14.287  20.658  0.00  0.00    +0.000 A 
ATOM     11  F   UNL     1      -1.627  15.523  20.732  0.00  0.00    +0.000 F 
ATOM     12  C   UNL     1       0.252  14.103  20.790  0.00  0.00    +0.000 A 
ATOM     13  C   UNL     1       0.778  12.814  20.723  0.00  0.00    +0.000 A 
ATOM     14  F   UNL     1       2.110  12.682  20.813  0.00  0.00    +0.000 F 
ENDBRANCH   6   7
BRANCH   4  15
ATOM     15  C   UNL     1       2.233   7.952  18.448  0.00  0.00    +0.000 C 
ATOM     16  O   UNL     1       2.508   8.301  17.311  0.00  0.00    +0.000 OA
ATOM     17  N   UNL     1       2.482   6.637  18.966  0.00  0.00    +0.000 N 
ATOM     18  H   UNL     1       2.153   6.472  19.914  0.00  0.00    +0.000 HD
BRANCH  17  19
ATOM     19  C   UNL     1       3.061   5.620  18.214  0.00  0.00    +0.000 A 
ATOM     20  C   UNL     1       4.266   5.642  17.544  0.00  0.00    +0.000 A 
ATOM     21  C   UNL     1       4.356   4.390  16.899  0.00  0.00    +0.000 A 
ATOM     22  N   UNL     1       3.302   3.615  17.159  0.00  0.00    +0.000 NA
ATOM     23  N   UNL     1       2.538   4.371  17.972  0.00  0.00    +0.000 N 
ATOM     24  C   UNL     1       1.262   3.855  18.403  0.00  0.00    +0.000 C 
BRANCH  21  25
ATOM     25  C   UNL     1       5.514   3.999  15.988  0.00  0.00    +0.000 C 
ATOM     26  C   UNL     1       6.877   4.624  16.423  0.00  0.00    +0.000 C 
ATOM     27  C   UNL     1       7.189   4.838  14.933  0.00  0.00    +0.000 C 
ATOM     28  C   UNL     1       5.669   4.854  14.696  0.00  0.00    +0.000 C 
ENDBRANCH  21  25
ENDBRANCH  17  19
ENDBRANCH   4  15
TORSDOF 4
ENDMDL
MODEL 9
REMARK VINA RESULT:      -7.7      3.650      9.192
REMARK  Name = 
REMARK  6 active torsions:
REMARK  status: ('A' for Active; 'I' for Inactive)
REMARK    1  A    between atoms: C_1  and  C_2
REMARK    2  A    between atoms: C_4  and  C_5
REMARK    3  A    between atoms: N_7  and  C_8
REMARK    4  A    between atoms: C_10  and  C_11
REMARK    5  A    between atoms: N_16  and  C_17
REMARK    6  A    between atoms: N_19  and  C_20
REMARK                            x       y       z     vdW  Elec       q    Type
REMARK                         _______ _______ _______ _____ _____    ______ ____
ROOT
ATOM      1  C   UNL     1       4.278   2.872  19.679  0.00  0.00    +0.000 C 
ATOM      2  C   UNL     1       3.648   4.217  19.560  0.00  0.00    +0.000 A 
ATOM      3  C   UNL     1       2.672   4.758  20.370  0.00  0.00    +0.000 A 
ATOM      4  C   UNL     1       2.513   6.094  19.949  0.00  0.00    +0.000 A 
ATOM      5  N   UNL     1       3.334   6.380  18.923  0.00  0.00    +0.000 NA
ATOM      6  N   UNL     1       4.017   5.219  18.667  0.00  0.00    +0.000 N 
ENDROOT
BRANCH   6   7
ATOM      7  C   UNL     1       4.931   5.153  17.581  0.00  0.00    +0.000 A 
ATOM      8  C   UNL     1       6.131   5.881  17.594  0.00  0.00    +0.000 A 
ATOM      9  C   UNL     1       7.005   5.820  16.505  0.00  0.00    +0.000 A 
ATOM     10  C   UNL     1       6.685   5.034  15.408  0.00  0.00    +0.000 A 
ATOM     11  F   UNL     1       7.523   4.980  14.366  0.00  0.00    +0.000 F 
ATOM     12  C   UNL     1       5.513   4.289  15.383  0.00  0.00    +0.000 A 
ATOM     13  C   UNL     1       4.648   4.340  16.475  0.00  0.00    +0.000 A 
ATOM     14  F   UNL     1       3.507   3.639  16.395  0.00  0.00    +0.000 F 
ENDBRANCH   6   7
BRANCH   4  15
ATOM     15  C   UNL     1       1.583   7.067  20.524  0.00  0.00    +0.000 C 
ATOM     16  O   UNL     1       0.738   6.842  21.374  0.00  0.00    +0.000 OA
ATOM     17  N   UNL     1       1.758   8.339  19.882  0.00  0.00    +0.000 N 
ATOM     18  H   UNL     1       2.468   8.366  19.153  0.00  0.00    +0.000 HD
BRANCH  17  19
ATOM     19  C   UNL     1       0.969   9.449  20.165  0.00  0.00    +0.000 A 
ATOM     20  C   UNL     1       0.823  10.098  21.372  0.00  0.00    +0.000 A 
ATOM     21  C   UNL     1      -0.126  11.116  21.135  0.00  0.00    +0.000 A 
ATOM     22  N   UNL     1      -0.535  11.134  19.866  0.00  0.00    +0.000 NA
ATOM     23  N   UNL     1       0.154  10.129  19.290  0.00  0.00    +0.000 N 
ATOM     24  C   UNL     1      -0.099   9.818  17.904  0.00  0.00    +0.000 C 
BRANCH  21  25
ATOM     25  C   UNL     1      -0.638  12.054  22.223  0.00  0.00    +0.000 C 
ATOM     26  C   UNL     1      -1.690  11.387  23.163  0.00  0.00    +0.000 C 
ATOM     27  C   UNL     1      -2.456  12.721  23.157  0.00  0.00    +0.000 C 
ATOM     28  C   UNL     1      -1.795  13.005  21.797  0.00  0.00    +0.000 C 
ENDBRANCH  21  25
ENDBRANCH  17  19
ENDBRANCH   4  15
TORSDOF 4
ENDMDL
