MODEL 1
REMARK VINA RESULT:      -8.8      0.000      0.000
REMARK  Name = 
REMARK  5 active torsions:
REMARK  status: ('A' for Active; 'I' for Inactive)
REMARK    1  A    between atoms: C_2  and  C_3
REMARK    2  A    between atoms: C_3  and  O_4
REMARK    3  A    between atoms: O_4  and  C_5
REMARK    4  A    between atoms: C_5  and  C_7
REMARK    5  A    between atoms: N_21  and  C_22
REMARK                            x       y       z     vdW  Elec       q    Type
REMARK                         _______ _______ _______ _____ _____    ______ ____
ROOT
ATOM      1  C   UNL     1       2.383   7.068  18.893  0.00  0.00    +0.000 C 
ATOM      2  O   UNL     1       2.568   7.502  20.016  0.00  0.00    +0.000 OA
ENDROOT
BRANCH   1   3
ATOM      3  C   UNL     1       2.853   5.738  18.406  0.00  0.00    +0.000 A 
ATOM      4  C   UNL     1       2.317   4.564  18.987  0.00  0.00    +0.000 A 
ATOM      5  C   UNL     1       2.748   3.349  18.458  0.00  0.00    +0.000 A 
ATOM      6  N   UNL     1       3.659   3.262  17.462  0.00  0.00    +0.000 NA
ATOM      7  C   UNL     1       4.200   4.372  16.953  0.00  0.00    +0.000 A 
ATOM      8  C   UNL     1       5.153   4.209  15.955  0.00  0.00    +0.000 A 
ATOM      9  C   UNL     1       5.798   5.292  15.359  0.00  0.00    +0.000 A 
ATOM     10  C   UNL     1       5.500   6.575  15.784  0.00  0.00    +0.000 A 
ATOM     11  C   UNL     1       4.555   6.758  16.794  0.00  0.00    +0.000 A 
ATOM     12  C   UNL     1       3.857   5.664  17.389  0.00  0.00    +0.000 A 
ATOM     13  C   UNL     1       2.298   2.015  19.001  0.00  0.00    +0.000 C 
ATOM     14  C   UNL     1       1.097   2.080  19.934  0.00  0.00    +0.000 C 
ATOM     15  C   UNL     1       1.223   3.263  20.874  0.00  0.00    +0.000 C 
ATOM     16  C   UNL     1       1.267   4.566  20.076  0.00  0.00    +0.000 C 
ENDBRANCH   1   3
BRANCH   1  17
ATOM     17  O   UNL     1       1.689   7.711  17.918  0.00  0.00    +0.000 OA
BRANCH  17  18
ATOM     18  C   UNL     1       1.946   9.118  17.831  0.00  0.00    +0.000 C 
BRANCH  18  20
ATOM     19  O   UNL     1      -0.222  10.102  18.045  0.00  0.00    +0.000 OA
ATOM     20  C   UNL     1       0.881   9.928  18.555  0.00  0.00    +0.000 C 
ATOM     21  N   UNL     1       1.293  10.322  19.816  0.00  0.00    +0.000 N 
ATOM     22  H   UNL     1       2.238  10.081  20.097  0.00  0.00    +0.000 HD
BRANCH  21  23
ATOM     23  C   UNL     1       0.516  11.040  20.734  0.00  0.00    +0.000 A 
ATOM     24  N   UNL     1       0.536  12.387  20.701  0.00  0.00    +0.000 NA
ATOM     25  C   UNL     1      -0.217  13.060  21.601  0.00  0.00    +0.000 A 
ATOM     26  C   UNL     1      -1.008  12.439  22.550  0.00  0.00    +0.000 A 
ATOM     27 CL   UNL     1      -1.933  13.361  23.661  0.00  0.00    +0.000 Cl
ATOM     28  C   UNL     1      -1.033  11.051  22.583  0.00  0.00    +0.000 A 
ATOM     29  C   UNL     1      -0.261  10.339  21.664  0.00  0.00    +0.000 A 
ATOM     30 CL   UNL     1      -0.299   8.612  21.708  0.00  0.00    +0.000 Cl
ENDBRANCH  21  23
ENDBRANCH  18  20
ENDBRANCH  17  18
ENDBRANCH   1  17
TORSDOF 5
ENDMDL
MODEL 2
REMARK VINA RESULT:      -8.6      0.473      3.441
REMARK  Name = 
REMARK  5 active torsions:
REMARK  status: ('A' for Active; 'I' for Inactive)
REMARK    1  A    between atoms: C_2  and  C_3
REMARK    2  A    between atoms: C_3  and  O_4
REMARK    3  A    between atoms: O_4  and  C_5
REMARK    4  A    between atoms: C_5  and  C_7
REMARK    5  A    between atoms: N_21  and  C_22
REMARK                            x       y       z     vdW  Elec       q    Type
REMARK                         _______ _______ _______ _____ _____    ______ ____
ROOT
ATOM      1  C   UNL     1       2.516   7.032  18.800  0.00  0.00    +0.000 C 
ATOM      2  O   UNL     1       2.681   7.473  19.923  0.00  0.00    +0.000 OA
ENDROOT
BRANCH   1   3
ATOM      3  C   UNL     1       2.965   5.685  18.341  0.00  0.00    +0.000 A 
ATOM      4  C   UNL     1       3.982   5.595  17.361  0.00  0.00    +0.000 A 
ATOM      5  C   UNL     1       4.403   4.314  17.008  0.00  0.00    +0.000 A 
ATOM      6  N   UNL     1       3.861   3.191  17.533  0.00  0.00    +0.000 NA
ATOM      7  C   UNL     1       2.866   3.281  18.419  0.00  0.00    +0.000 A 
ATOM      8  C   UNL     1       2.334   2.089  18.894  0.00  0.00    +0.000 A 
ATOM      9  C   UNL     1       1.283   2.055  19.809  0.00  0.00    +0.000 A 
ATOM     10  C   UNL     1       0.731   3.246  20.250  0.00  0.00    +0.000 A 
ATOM     11  C   UNL     1       1.243   4.453  19.775  0.00  0.00    +0.000 A 
ATOM     12  C   UNL     1       2.343   4.507  18.867  0.00  0.00    +0.000 A 
ATOM     13  C   UNL     1       5.447   4.060  15.949  0.00  0.00    +0.000 C 
ATOM     14  C   UNL     1       6.245   5.287  15.532  0.00  0.00    +0.000 C 
ATOM     15  C   UNL     1       5.331   6.490  15.404  0.00  0.00    +0.000 C 
ATOM     16  C   UNL     1       4.671   6.795  16.749  0.00  0.00    +0.000 C 
ENDBRANCH   1   3
BRANCH   1  17
ATOM     17  O   UNL     1       1.868   7.681  17.799  0.00  0.00    +0.000 OA
BRANCH  17  18
ATOM     18  C   UNL     1       2.017   9.107  17.817  0.00  0.00    +0.000 C 
BRANCH  18  20
ATOM     19  O   UNL     1      -0.271   9.784  17.946  0.00  0.00    +0.000 OA
ATOM     20  C   UNL     1       0.831   9.786  18.485  0.00  0.00    +0.000 C 
ATOM     21  N   UNL     1       1.151  10.281  19.737  0.00  0.00    +0.000 N 
ATOM     22  H   UNL     1       2.113  10.186  20.047  0.00  0.00    +0.000 HD
BRANCH  21  23
ATOM     23  C   UNL     1       0.259  10.917  20.609  0.00  0.00    +0.000 A 
ATOM     24  N   UNL     1      -0.289  12.094  20.247  0.00  0.00    +0.000 NA
ATOM     25  C   UNL     1      -1.143  12.693  21.107  0.00  0.00    +0.000 A 
ATOM     26  C   UNL     1      -1.488  12.161  22.336  0.00  0.00    +0.000 A 
ATOM     27 CL   UNL     1      -2.578  12.983  23.374  0.00  0.00    +0.000 Cl
ATOM     28  C   UNL     1      -0.928  10.946  22.709  0.00  0.00    +0.000 A 
ATOM     29  C   UNL     1      -0.042  10.313  21.836  0.00  0.00    +0.000 A 
ATOM     30 CL   UNL     1       0.648   8.800  22.305  0.00  0.00    +0.000 Cl
ENDBRANCH  21  23
ENDBRANCH  18  20
ENDBRANCH  17  18
ENDBRANCH   1  17
TORSDOF 5
ENDMDL
MODEL 3
REMARK VINA RESULT:      -8.5      2.450      2.605
REMARK  Name = 
REMARK  5 active torsions:
REMARK  status: ('A' for Active; 'I' for Inactive)
REMARK    1  A    between atoms: C_2  and  C_3
REMARK    2  A    between atoms: C_3  and  O_4
REMARK    3  A    between atoms: O_4  and  C_5
REMARK    4  A    between atoms: C_5  and  C_7
REMARK    5  A    between atoms: N_21  and  C_22
REMARK                            x       y       z     vdW  Elec       q    Type
REMARK                         _______ _______ _______ _____ _____    ______ ____
ROOT
ATOM      1  C   UNL     1       2.467   7.060  18.794  0.00  0.00    +0.000 C 
ATOM      2  O   UNL     1       2.686   7.465  19.922  0.00  0.00    +0.000 OA
ENDROOT
BRANCH   1   3
ATOM      3  C   UNL     1       2.900   5.732  18.269  0.00  0.00    +0.000 A 
ATOM      4  C   UNL     1       2.272   4.561  18.757  0.00  0.00    +0.000 A 
ATOM      5  C   UNL     1       2.674   3.352  18.194  0.00  0.00    +0.000 A 
ATOM      6  N   UNL     1       3.639   3.265  17.249  0.00  0.00    +0.000 NA
ATOM      7  C   UNL     1       4.264   4.368  16.829  0.00  0.00    +0.000 A 
ATOM      8  C   UNL     1       5.266   4.203  15.881  0.00  0.00    +0.000 A 
ATOM      9  C   UNL     1       5.999   5.278  15.380  0.00  0.00    +0.000 A 
ATOM     10  C   UNL     1       5.739   6.553  15.851  0.00  0.00    +0.000 A 
ATOM     11  C   UNL     1       4.746   6.737  16.812  0.00  0.00    +0.000 A 
ATOM     12  C   UNL     1       3.959   5.654  17.309  0.00  0.00    +0.000 A 
ATOM     13  C   UNL     1       2.126   2.019  18.641  0.00  0.00    +0.000 C 
ATOM     14  C   UNL     1       0.875   2.102  19.505  0.00  0.00    +0.000 C 
ATOM     15  C   UNL     1       1.003   3.231  20.509  0.00  0.00    +0.000 C 
ATOM     16  C   UNL     1       1.159   4.567  19.782  0.00  0.00    +0.000 C 
ENDBRANCH   1   3
BRANCH   1  17
ATOM     17  O   UNL     1       1.766   7.737  17.849  0.00  0.00    +0.000 OA
BRANCH  17  18
ATOM     18  C   UNL     1       1.846   9.164  17.954  0.00  0.00    +0.000 C 
BRANCH  18  20
ATOM     19  O   UNL     1       0.605   9.862  19.873  0.00  0.00    +0.000 OA
ATOM     20  C   UNL     1       0.626   9.745  18.652  0.00  0.00    +0.000 C 
ATOM     21  N   UNL     1      -0.336  10.170  17.752  0.00  0.00    +0.000 N 
ATOM     22  H   UNL     1      -0.157  10.014  16.766  0.00  0.00    +0.000 HD
BRANCH  21  23
ATOM     23  C   UNL     1      -1.547  10.785  18.093  0.00  0.00    +0.000 A 
ATOM     24  N   UNL     1      -1.608  11.552  19.200  0.00  0.00    +0.000 NA
ATOM     25  C   UNL     1      -2.789  12.131  19.513  0.00  0.00    +0.000 A 
ATOM     26  C   UNL     1      -3.937  11.982  18.756  0.00  0.00    +0.000 A 
ATOM     27 CL   UNL     1      -5.400  12.747  19.220  0.00  0.00    +0.000 Cl
ATOM     28  C   UNL     1      -3.875  11.197  17.612  0.00  0.00    +0.000 A 
ATOM     29  C   UNL     1      -2.666  10.588  17.274  0.00  0.00    +0.000 A 
ATOM     30 CL   UNL     1      -2.595   9.615  15.848  0.00  0.00    +0.000 Cl
ENDBRANCH  21  23
ENDBRANCH  18  20
ENDBRANCH  17  18
ENDBRANCH   1  17
TORSDOF 5
ENDMDL
MODEL 4
REMARK VINA RESULT:      -8.4      2.371      4.243
REMARK  Name = 
REMARK  5 active torsions:
REMARK  status: ('A' for Active; 'I' for Inactive)
REMARK    1  A    between atoms: C_2  and  C_3
REMARK    2  A    between atoms: C_3  and  O_4
REMARK    3  A    between atoms: O_4  and  C_5
REMARK    4  A    between atoms: C_5  and  C_7
REMARK    5  A    between atoms: N_21  and  C_22
REMARK                            x       y       z     vdW  Elec       q    Type
REMARK                         _______ _______ _______ _____ _____    ______ ____
ROOT
ATOM      1  C   UNL     1       2.537   7.017  18.825  0.00  0.00    +0.000 C 
ATOM      2  O   UNL     1       2.753   7.442  19.945  0.00  0.00    +0.000 OA
ENDROOT
BRANCH   1   3
ATOM      3  C   UNL     1       2.966   5.677  18.327  0.00  0.00    +0.000 A 
ATOM      4  C   UNL     1       3.978   5.600  17.340  0.00  0.00    +0.000 A 
ATOM      5  C   UNL     1       4.380   4.324  16.950  0.00  0.00    +0.000 A 
ATOM      6  N   UNL     1       3.825   3.194  17.446  0.00  0.00    +0.000 NA
ATOM      7  C   UNL     1       2.834   3.273  18.338  0.00  0.00    +0.000 A 
ATOM      8  C   UNL     1       2.288   2.076  18.782  0.00  0.00    +0.000 A 
ATOM      9  C   UNL     1       1.239   2.031  19.699  0.00  0.00    +0.000 A 
ATOM     10  C   UNL     1       0.705   3.216  20.175  0.00  0.00    +0.000 A 
ATOM     11  C   UNL     1       1.232   4.428  19.732  0.00  0.00    +0.000 A 
ATOM     12  C   UNL     1       2.330   4.493  18.823  0.00  0.00    +0.000 A 
ATOM     13  C   UNL     1       5.417   4.085  15.881  0.00  0.00    +0.000 C 
ATOM     14  C   UNL     1       6.230   5.313  15.496  0.00  0.00    +0.000 C 
ATOM     15  C   UNL     1       5.333   6.531  15.404  0.00  0.00    +0.000 C 
ATOM     16  C   UNL     1       4.681   6.808  16.760  0.00  0.00    +0.000 C 
ENDBRANCH   1   3
BRANCH   1  17
ATOM     17  O   UNL     1       1.842   7.678  17.864  0.00  0.00    +0.000 OA
BRANCH  17  18
ATOM     18  C   UNL     1       1.994   9.103  17.891  0.00  0.00    +0.000 C 
BRANCH  18  20
ATOM     19  O   UNL     1       0.942  10.078  19.803  0.00  0.00    +0.000 OA
ATOM     20  C   UNL     1       0.840   9.776  18.618  0.00  0.00    +0.000 C 
ATOM     21  N   UNL     1      -0.219  10.052  17.770  0.00  0.00    +0.000 N 
ATOM     22  H   UNL     1      -0.139   9.749  16.806  0.00  0.00    +0.000 HD
BRANCH  21  23
ATOM     23  C   UNL     1      -1.402  10.705  18.139  0.00  0.00    +0.000 A 
ATOM     24  N   UNL     1      -1.413  11.472  19.247  0.00  0.00    +0.000 NA
ATOM     25  C   UNL     1      -2.568  12.087  19.588  0.00  0.00    +0.000 A 
ATOM     26  C   UNL     1      -3.737  11.975  18.858  0.00  0.00    +0.000 A 
ATOM     27 CL   UNL     1      -5.164  12.785  19.356  0.00  0.00    +0.000 Cl
ATOM     28  C   UNL     1      -3.727  11.189  17.714  0.00  0.00    +0.000 A 
ATOM     29  C   UNL     1      -2.546  10.543  17.347  0.00  0.00    +0.000 A 
ATOM     30 CL   UNL     1      -2.539   9.568  15.920  0.00  0.00    +0.000 Cl
ENDBRANCH  21  23
ENDBRANCH  18  20
ENDBRANCH  17  18
ENDBRANCH   1  17
TORSDOF 5
ENDMDL
MODEL 5
REMARK VINA RESULT:      -8.3      2.517      4.381
REMARK  Name = 
REMARK  5 active torsions:
REMARK  status: ('A' for Active; 'I' for Inactive)
REMARK    1  A    between atoms: C_2  and  C_3
REMARK    2  A    between atoms: C_3  and  O_4
REMARK    3  A    between atoms: O_4  and  C_5
REMARK    4  A    between atoms: C_5  and  C_7
REMARK    5  A    between atoms: N_21  and  C_22
REMARK                            x       y       z     vdW  Elec       q    Type
REMARK                         _______ _______ _______ _____ _____    ______ ____
ROOT
ATOM      1  C   UNL     1       2.598   6.929  18.788  0.00  0.00    +0.000 C 
ATOM      2  O   UNL     1       2.714   7.296  19.944  0.00  0.00    +0.000 OA
ENDROOT
BRANCH   1   3
ATOM      3  C   UNL     1       3.026   5.597  18.271  0.00  0.00    +0.000 A 
ATOM      4  C   UNL     1       4.042   5.535  17.287  0.00  0.00    +0.000 A 
ATOM      5  C   UNL     1       4.444   4.265  16.878  0.00  0.00    +0.000 A 
ATOM      6  N   UNL     1       3.886   3.128  17.355  0.00  0.00    +0.000 NA
ATOM      7  C   UNL     1       2.893   3.193  18.245  0.00  0.00    +0.000 A 
ATOM      8  C   UNL     1       2.344   1.990  18.668  0.00  0.00    +0.000 A 
ATOM      9  C   UNL     1       1.292   1.932  19.581  0.00  0.00    +0.000 A 
ATOM     10  C   UNL     1       0.758   3.110  20.073  0.00  0.00    +0.000 A 
ATOM     11  C   UNL     1       1.287   4.329  19.651  0.00  0.00    +0.000 A 
ATOM     12  C   UNL     1       2.388   4.407  18.746  0.00  0.00    +0.000 A 
ATOM     13  C   UNL     1       5.484   4.041  15.809  0.00  0.00    +0.000 C 
ATOM     14  C   UNL     1       6.300   5.274  15.445  0.00  0.00    +0.000 C 
ATOM     15  C   UNL     1       5.404   6.495  15.370  0.00  0.00    +0.000 C 
ATOM     16  C   UNL     1       4.748   6.751  16.727  0.00  0.00    +0.000 C 
ENDBRANCH   1   3
BRANCH   1  17
ATOM     17  O   UNL     1       2.028   7.661  17.796  0.00  0.00    +0.000 OA
BRANCH  17  18
ATOM     18  C   UNL     1       2.000   9.074  18.036  0.00  0.00    +0.000 C 
BRANCH  18  20
ATOM     19  O   UNL     1       0.476   9.531  19.819  0.00  0.00    +0.000 OA
ATOM     20  C   UNL     1       0.663   9.520  18.606  0.00  0.00    +0.000 C 
ATOM     21  N   UNL     1      -0.203   9.962  17.621  0.00  0.00    +0.000 N 
ATOM     22  H   UNL     1       0.113   9.902  16.658  0.00  0.00    +0.000 HD
BRANCH  21  23
ATOM     23  C   UNL     1      -1.487  10.474  17.841  0.00  0.00    +0.000 A 
ATOM     24  N   UNL     1      -2.560   9.716  17.536  0.00  0.00    +0.000 NA
ATOM     25  C   UNL     1      -3.790  10.233  17.751  0.00  0.00    +0.000 A 
ATOM     26  C   UNL     1      -4.008  11.496  18.272  0.00  0.00    +0.000 A 
ATOM     27 CL   UNL     1      -5.600  12.083  18.514  0.00  0.00    +0.000 Cl
ATOM     28  C   UNL     1      -2.904  12.276  18.592  0.00  0.00    +0.000 A 
ATOM     29  C   UNL     1      -1.626  11.762  18.374  0.00  0.00    +0.000 A 
ATOM     30 CL   UNL     1      -0.257  12.736  18.777  0.00  0.00    +0.000 Cl
ENDBRANCH  21  23
ENDBRANCH  18  20
ENDBRANCH  17  18
ENDBRANCH   1  17
TORSDOF 5
ENDMDL
MODEL 6
REMARK VINA RESULT:      -8.3      1.119      1.352
REMARK  Name = 
REMARK  5 active torsions:
REMARK  status: ('A' for Active; 'I' for Inactive)
REMARK    1  A    between atoms: C_2  and  C_3
REMARK    2  A    between atoms: C_3  and  O_4
REMARK    3  A    between atoms: O_4  and  C_5
REMARK    4  A    between atoms: C_5  and  C_7
REMARK    5  A    between atoms: N_21  and  C_22
REMARK                            x       y       z     vdW  Elec       q    Type
REMARK                         _______ _______ _______ _____ _____    ______ ____
ROOT
ATOM      1  C   UNL     1       2.431   7.090  18.812  0.00  0.00    +0.000 C 
ATOM      2  O   UNL     1       2.568   7.516  19.945  0.00  0.00    +0.000 OA
ENDROOT
BRANCH   1   3
ATOM      3  C   UNL     1       2.896   5.752  18.344  0.00  0.00    +0.000 A 
ATOM      4  C   UNL     1       2.347   4.588  18.933  0.00  0.00    +0.000 A 
ATOM      5  C   UNL     1       2.774   3.364  18.422  0.00  0.00    +0.000 A 
ATOM      6  N   UNL     1       3.693   3.259  17.435  0.00  0.00    +0.000 NA
ATOM      7  C   UNL     1       4.246   4.359  16.918  0.00  0.00    +0.000 A 
ATOM      8  C   UNL     1       5.205   4.179  15.930  0.00  0.00    +0.000 A 
ATOM      9  C   UNL     1       5.863   5.250  15.328  0.00  0.00    +0.000 A 
ATOM     10  C   UNL     1       5.571   6.540  15.735  0.00  0.00    +0.000 A 
ATOM     11  C   UNL     1       4.619   6.741  16.735  0.00  0.00    +0.000 A 
ATOM     12  C   UNL     1       3.909   5.659  17.336  0.00  0.00    +0.000 A 
ATOM     13  C   UNL     1       2.309   2.040  18.976  0.00  0.00    +0.000 C 
ATOM     14  C   UNL     1       1.101   2.123  19.898  0.00  0.00    +0.000 C 
ATOM     15  C   UNL     1       1.228   3.316  20.826  0.00  0.00    +0.000 C 
ATOM     16  C   UNL     1       1.287   4.610  20.013  0.00  0.00    +0.000 C 
ENDBRANCH   1   3
BRANCH   1  17
ATOM     17  O   UNL     1       1.803   7.751  17.805  0.00  0.00    +0.000 OA
BRANCH  17  18
ATOM     18  C   UNL     1       1.987   9.173  17.817  0.00  0.00    +0.000 C 
BRANCH  18  20
ATOM     19  O   UNL     1      -0.283   9.888  18.026  0.00  0.00    +0.000 OA
ATOM     20  C   UNL     1       0.840   9.881  18.520  0.00  0.00    +0.000 C 
ATOM     21  N   UNL     1       1.218  10.392  19.750  0.00  0.00    +0.000 N 
ATOM     22  H   UNL     1       2.189  10.287  20.023  0.00  0.00    +0.000 HD
BRANCH  21  23
ATOM     23  C   UNL     1       0.371  11.056  20.646  0.00  0.00    +0.000 A 
ATOM     24  N   UNL     1      -0.143  10.379  21.692  0.00  0.00    +0.000 NA
ATOM     25  C   UNL     1      -0.963  11.039  22.540  0.00  0.00    +0.000 A 
ATOM     26  C   UNL     1      -1.302  12.372  22.393  0.00  0.00    +0.000 A 
ATOM     27 CL   UNL     1      -2.352  13.140  23.510  0.00  0.00    +0.000 Cl
ATOM     28  C   UNL     1      -0.770  13.072  21.318  0.00  0.00    +0.000 A 
ATOM     29  C   UNL     1       0.077  12.408  20.430  0.00  0.00    +0.000 A 
ATOM     30 CL   UNL     1       0.737  13.286  19.097  0.00  0.00    +0.000 Cl
ENDBRANCH  21  23
ENDBRANCH  18  20
ENDBRANCH  17  18
ENDBRANCH   1  17
TORSDOF 5
ENDMDL
MODEL 7
REMARK VINA RESULT:      -8.3      1.900      2.010
REMARK  Name = 
REMARK  5 active torsions:
REMARK  status: ('A' for Active; 'I' for Inactive)
REMARK    1  A    between atoms: C_2  and  C_3
REMARK    2  A    between atoms: C_3  and  O_4
REMARK    3  A    between atoms: O_4  and  C_5
REMARK    4  A    between atoms: C_5  and  C_7
REMARK    5  A    between atoms: N_21  and  C_22
REMARK                            x       y       z     vdW  Elec       q    Type
REMARK                         _______ _______ _______ _____ _____    ______ ____
ROOT
ATOM      1  C   UNL     1       2.543   6.958  18.927  0.00  0.00    +0.000 C 
ATOM      2  O   UNL     1       2.622   7.316  20.088  0.00  0.00    +0.000 OA
ENDROOT
BRANCH   1   3
ATOM      3  C   UNL     1       3.088   5.676  18.393  0.00  0.00    +0.000 A 
ATOM      4  C   UNL     1       2.401   4.468  18.667  0.00  0.00    +0.000 A 
ATOM      5  C   UNL     1       2.921   3.307  18.099  0.00  0.00    +0.000 A 
ATOM      6  N   UNL     1       4.046   3.296  17.347  0.00  0.00    +0.000 NA
ATOM      7  C   UNL     1       4.719   4.430  17.134  0.00  0.00    +0.000 A 
ATOM      8  C   UNL     1       5.882   4.342  16.380  0.00  0.00    +0.000 A 
ATOM      9  C   UNL     1       6.676   5.454  16.106  0.00  0.00    +0.000 A 
ATOM     10  C   UNL     1       6.312   6.688  16.615  0.00  0.00    +0.000 A 
ATOM     11  C   UNL     1       5.155   6.794  17.385  0.00  0.00    +0.000 A 
ATOM     12  C   UNL     1       4.309   5.675  17.644  0.00  0.00    +0.000 A 
ATOM     13  C   UNL     1       2.323   1.943  18.335  0.00  0.00    +0.000 C 
ATOM     14  C   UNL     1       0.932   1.955  18.955  0.00  0.00    +0.000 C 
ATOM     15  C   UNL     1       0.852   3.004  20.047  0.00  0.00    +0.000 C 
ATOM     16  C   UNL     1       1.117   4.392  19.464  0.00  0.00    +0.000 C 
ENDBRANCH   1   3
BRANCH   1  17
ATOM     17  O   UNL     1       1.916   7.652  17.942  0.00  0.00    +0.000 OA
BRANCH  17  18
ATOM     18  C   UNL     1       2.518   8.913  17.623  0.00  0.00    +0.000 C 
BRANCH  18  20
ATOM     19  O   UNL     1       2.145  11.215  18.146  0.00  0.00    +0.000 OA
ATOM     20  C   UNL     1       1.686  10.077  18.139  0.00  0.00    +0.000 C 
ATOM     21  N   UNL     1       0.402   9.689  18.481  0.00  0.00    +0.000 N 
ATOM     22  H   UNL     1       0.173   8.704  18.401  0.00  0.00    +0.000 HD
BRANCH  21  23
ATOM     23  C   UNL     1      -0.605  10.544  18.944  0.00  0.00    +0.000 A 
ATOM     24  N   UNL     1      -0.435  11.190  20.115  0.00  0.00    +0.000 NA
ATOM     25  C   UNL     1      -1.423  12.005  20.546  0.00  0.00    +0.000 A 
ATOM     26  C   UNL     1      -2.599  12.214  19.848  0.00  0.00    +0.000 A 
ATOM     27 CL   UNL     1      -3.809  13.263  20.461  0.00  0.00    +0.000 Cl
ATOM     28  C   UNL     1      -2.775  11.553  18.640  0.00  0.00    +0.000 A 
ATOM     29  C   UNL     1      -1.767  10.705  18.180  0.00  0.00    +0.000 A 
ATOM     30 CL   UNL     1      -1.991   9.888  16.674  0.00  0.00    +0.000 Cl
ENDBRANCH  21  23
ENDBRANCH  18  20
ENDBRANCH  17  18
ENDBRANCH   1  17
TORSDOF 5
ENDMDL
MODEL 8
REMARK VINA RESULT:      -8.3      1.155      3.672
REMARK  Name = 
REMARK  5 active torsions:
REMARK  status: ('A' for Active; 'I' for Inactive)
REMARK    1  A    between atoms: C_2  and  C_3
REMARK    2  A    between atoms: C_3  and  O_4
REMARK    3  A    between atoms: O_4  and  C_5
REMARK    4  A    between atoms: C_5  and  C_7
REMARK    5  A    between atoms: N_21  and  C_22
REMARK                            x       y       z     vdW  Elec       q    Type
REMARK                         _______ _______ _______ _____ _____    ______ ____
ROOT
ATOM      1  C   UNL     1       2.506   6.938  18.781  0.00  0.00    +0.000 C 
ATOM      2  O   UNL     1       2.679   7.374  19.905  0.00  0.00    +0.000 OA
ENDROOT
BRANCH   1   3
ATOM      3  C   UNL     1       2.969   5.601  18.306  0.00  0.00    +0.000 A 
ATOM      4  C   UNL     1       3.996   5.534  17.333  0.00  0.00    +0.000 A 
ATOM      5  C   UNL     1       4.429   4.262  16.966  0.00  0.00    +0.000 A 
ATOM      6  N   UNL     1       3.892   3.127  17.470  0.00  0.00    +0.000 NA
ATOM      7  C   UNL     1       2.889   3.195  18.349  0.00  0.00    +0.000 A 
ATOM      8  C   UNL     1       2.363   1.993  18.802  0.00  0.00    +0.000 A 
ATOM      9  C   UNL     1       1.304   1.938  19.707  0.00  0.00    +0.000 A 
ATOM     10  C   UNL     1       0.739   3.117  20.160  0.00  0.00    +0.000 A 
ATOM     11  C   UNL     1       1.245   4.335  19.707  0.00  0.00    +0.000 A 
ATOM     12  C   UNL     1       2.353   4.411  18.810  0.00  0.00    +0.000 A 
ATOM     13  C   UNL     1       5.484   4.030  15.913  0.00  0.00    +0.000 C 
ATOM     14  C   UNL     1       6.276   5.270  15.520  0.00  0.00    +0.000 C 
ATOM     15  C   UNL     1       5.354   6.467  15.401  0.00  0.00    +0.000 C 
ATOM     16  C   UNL     1       4.680   6.748  16.745  0.00  0.00    +0.000 C 
ENDBRANCH   1   3
BRANCH   1  17
ATOM     17  O   UNL     1       1.834   7.583  17.793  0.00  0.00    +0.000 OA
BRANCH  17  18
ATOM     18  C   UNL     1       2.045   9.001  17.754  0.00  0.00    +0.000 C 
BRANCH  18  20
ATOM     19  O   UNL     1      -0.188   9.826  17.968  0.00  0.00    +0.000 OA
ATOM     20  C   UNL     1       0.931   9.753  18.466  0.00  0.00    +0.000 C 
ATOM     21  N   UNL     1       1.328  10.221  19.707  0.00  0.00    +0.000 N 
ATOM     22  H   UNL     1       2.292  10.062  19.981  0.00  0.00    +0.000 HD
BRANCH  21  23
ATOM     23  C   UNL     1       0.511  10.910  20.611  0.00  0.00    +0.000 A 
ATOM     24  N   UNL     1      -0.059  10.236  21.630  0.00  0.00    +0.000 NA
ATOM     25  C   UNL     1      -0.849  10.921  22.487  0.00  0.00    +0.000 A 
ATOM     26  C   UNL     1      -1.101  12.276  22.377  0.00  0.00    +0.000 A 
ATOM     27 CL   UNL     1      -2.118  13.075  23.503  0.00  0.00    +0.000 Cl
ATOM     28  C   UNL     1      -0.511  12.974  21.331  0.00  0.00    +0.000 A 
ATOM     29  C   UNL     1       0.306  12.284  20.434  0.00  0.00    +0.000 A 
ATOM     30 CL   UNL     1       1.039  13.158  19.136  0.00  0.00    +0.000 Cl
ENDBRANCH  21  23
ENDBRANCH  18  20
ENDBRANCH  17  18
ENDBRANCH   1  17
TORSDOF 5
ENDMDL
MODEL 9
REMARK VINA RESULT:      -8.2      2.507      2.732
REMARK  Name = 
REMARK  5 active torsions:
REMARK  status: ('A' for Active; 'I' for Inactive)
REMARK    1  A    between atoms: C_2  and  C_3
REMARK    2  A    between atoms: C_3  and  O_4
REMARK    3  A    between atoms: O_4  and  C_5
REMARK    4  A    between atoms: C_5  and  C_7
REMARK    5  A    between atoms: N_21  and  C_22
REMARK                            x       y       z     vdW  Elec       q    Type
REMARK                         _______ _______ _______ _____ _____    ______ ____
ROOT
ATOM      1  C   UNL     1       2.728   6.951  18.669  0.00  0.00    +0.000 C 
ATOM      2  O   UNL     1       2.925   7.302  19.818  0.00  0.00    +0.000 OA
ENDROOT
BRANCH   1   3
ATOM      3  C   UNL     1       3.136   5.633  18.100  0.00  0.00    +0.000 A 
ATOM      4  C   UNL     1       2.417   4.471  18.470  0.00  0.00    +0.000 A 
ATOM      5  C   UNL     1       2.804   3.276  17.868  0.00  0.00    +0.000 A 
ATOM      6  N   UNL     1       3.834   3.191  16.995  0.00  0.00    +0.000 NA
ATOM      7  C   UNL     1       4.542   4.281  16.689  0.00  0.00    +0.000 A 
ATOM      8  C   UNL     1       5.606   4.117  15.811  0.00  0.00    +0.000 A 
ATOM      9  C   UNL     1       6.426   5.178  15.430  0.00  0.00    +0.000 A 
ATOM     10  C   UNL     1       6.191   6.437  15.955  0.00  0.00    +0.000 A 
ATOM     11  C   UNL     1       5.136   6.619  16.848  0.00  0.00    +0.000 A 
ATOM     12  C   UNL     1       4.262   5.553  17.220  0.00  0.00    +0.000 A 
ATOM     13  C   UNL     1       2.160   1.951  18.194  0.00  0.00    +0.000 C 
ATOM     14  C   UNL     1       0.851   2.050  18.965  0.00  0.00    +0.000 C 
ATOM     15  C   UNL     1       0.953   3.114  20.040  0.00  0.00    +0.000 C 
ATOM     16  C   UNL     1       1.229   4.478  19.407  0.00  0.00    +0.000 C 
ENDBRANCH   1   3
BRANCH   1  17
ATOM     17  O   UNL     1       2.074   7.687  17.734  0.00  0.00    +0.000 OA
BRANCH  17  18
ATOM     18  C   UNL     1       2.033   9.095  18.003  0.00  0.00    +0.000 C 
BRANCH  18  20
ATOM     19  O   UNL     1       0.514   9.460  19.812  0.00  0.00    +0.000 OA
ATOM     20  C   UNL     1       0.698   9.513  18.600  0.00  0.00    +0.000 C 
ATOM     21  N   UNL     1      -0.169  10.008  17.641  0.00  0.00    +0.000 N 
ATOM     22  H   UNL     1       0.144   9.998  16.677  0.00  0.00    +0.000 HD
BRANCH  21  23
ATOM     23  C   UNL     1      -1.452  10.510  17.893  0.00  0.00    +0.000 A 
ATOM     24  N   UNL     1      -2.526   9.758  17.580  0.00  0.00    +0.000 NA
ATOM     25  C   UNL     1      -3.755  10.266  17.825  0.00  0.00    +0.000 A 
ATOM     26  C   UNL     1      -3.969  11.513  18.383  0.00  0.00    +0.000 A 
ATOM     27 CL   UNL     1      -5.560  12.089  18.661  0.00  0.00    +0.000 Cl
ATOM     28  C   UNL     1      -2.863  12.287  18.710  0.00  0.00    +0.000 A 
ATOM     29  C   UNL     1      -1.587  11.782  18.462  0.00  0.00    +0.000 A 
ATOM     30 CL   UNL     1      -0.215  12.749  18.875  0.00  0.00    +0.000 Cl
ENDBRANCH  21  23
ENDBRANCH  18  20
ENDBRANCH  17  18
ENDBRANCH   1  17
TORSDOF 5
ENDMDL
