MODEL 1
REMARK VINA RESULT:      -8.9      0.000      0.000
REMARK  Name = 
REMARK  5 active torsions:
REMARK  status: ('A' for Active; 'I' for Inactive)
REMARK    1  A    between atoms: C_1  and  C_2
REMARK    2  A    between atoms: C_4  and  C_5
REMARK    3  A    between atoms: C_5  and  N_6
REMARK    4  A    between atoms: N_15  and  S_16
REMARK    5  A    between atoms: S_16  and  C_17
REMARK                            x       y       z     vdW  Elec       q    Type
REMARK                         _______ _______ _______ _____ _____    ______ ____
ROOT
ATOM      1  N   UNL     1       2.237   7.854  18.746  0.00  0.00    +0.000 N 
ATOM      2  C   UNL     1       2.033   7.380  20.016  0.00  0.00    +0.000 A 
ATOM      3  N   UNL     1       1.354   7.987  20.932  0.00  0.00    +0.000 NA
ATOM      4  C   UNL     1       0.816   9.213  20.614  0.00  0.00    +0.000 A 
ATOM      5  C   UNL     1       1.017   9.819  19.433  0.00  0.00    +0.000 A 
ATOM      6  C   UNL     1       1.785   9.106  18.389  0.00  0.00    +0.000 A 
ATOM      7  O   UNL     1       1.954   9.610  17.288  0.00  0.00    +0.000 OA
ATOM      8  C   UNL     1       0.471  11.169  19.092  0.00  0.00    +0.000 C 
ATOM      9  C   UNL     1      -0.679  11.567  20.009  0.00  0.00    +0.000 C 
ATOM     10  N   UNL     1      -0.328  11.284  21.418  0.00  0.00    +0.000 NA
ATOM     11  C   UNL     1      -0.030   9.856  21.702  0.00  0.00    +0.000 C 
ENDROOT
BRANCH  10  12
ATOM     12  S   UNL     1      -1.233  12.092  22.599  0.00  0.00    +0.000 S 
ATOM     13  C   UNL     1      -2.487  12.921  21.636  0.00  0.00    +0.000 C 
ATOM     14  O   UNL     1      -1.890  11.100  23.423  0.00  0.00    +0.000 OA
ATOM     15  O   UNL     1      -0.388  13.111  23.184  0.00  0.00    +0.000 OA
ENDBRANCH  10  12
BRANCH   1  16
ATOM     16  C   UNL     1       2.905   7.026  17.747  0.00  0.00    +0.000 C 
BRANCH  16  20
ATOM     17  C   UNL     1       7.430   5.508  19.393  0.00  0.00    +0.000 C 
ATOM     18  C   UNL     1       5.990   5.220  19.091  0.00  0.00    +0.000 A 
ATOM     19  C   UNL     1       5.145   6.241  18.682  0.00  0.00    +0.000 A 
ATOM     20  C   UNL     1       3.827   5.947  18.305  0.00  0.00    +0.000 A 
ATOM     21  C   UNL     1       3.376   4.605  18.437  0.00  0.00    +0.000 A 
ATOM     22  C   UNL     1       2.057   4.175  18.137  0.00  0.00    +0.000 A 
ATOM     23  C   UNL     1       1.670   2.845  18.307  0.00  0.00    +0.000 A 
ATOM     24  C   UNL     1       2.590   1.919  18.774  0.00  0.00    +0.000 A 
ATOM     25  C   UNL     1       3.894   2.327  19.062  0.00  0.00    +0.000 A 
ATOM     26  C   UNL     1       4.304   3.643  18.903  0.00  0.00    +0.000 A 
ATOM     27  N   UNL     1       5.580   3.941  19.201  0.00  0.00    +0.000 NA
ENDBRANCH  16  20
ENDBRANCH   1  16
TORSDOF 3
ENDMDL
MODEL 2
REMARK VINA RESULT:      -8.7      3.542      8.513
REMARK  Name = 
REMARK  5 active torsions:
REMARK  status: ('A' for Active; 'I' for Inactive)
REMARK    1  A    between atoms: C_1  and  C_2
REMARK    2  A    between atoms: C_4  and  C_5
REMARK    3  A    between atoms: C_5  and  N_6
REMARK    4  A    between atoms: N_15  and  S_16
REMARK    5  A    between atoms: S_16  and  C_17
REMARK                            x       y       z     vdW  Elec       q    Type
REMARK                         _______ _______ _______ _____ _____    ______ ____
ROOT
ATOM      1  N   UNL     1       1.362   9.096  19.321  0.00  0.00    +0.000 N 
ATOM      2  C   UNL     1       1.023   8.489  20.503  0.00  0.00    +0.000 A 
ATOM      3  N   UNL     1       1.403   7.309  20.864  0.00  0.00    +0.000 NA
ATOM      4  C   UNL     1       2.188   6.599  19.983  0.00  0.00    +0.000 A 
ATOM      5  C   UNL     1       2.517   7.052  18.763  0.00  0.00    +0.000 A 
ATOM      6  C   UNL     1       2.086   8.411  18.369  0.00  0.00    +0.000 A 
ATOM      7  O   UNL     1       2.401   8.871  17.281  0.00  0.00    +0.000 OA
ATOM      8  C   UNL     1       3.335   6.272  17.784  0.00  0.00    +0.000 C 
ATOM      9  C   UNL     1       4.119   5.154  18.460  0.00  0.00    +0.000 C 
ATOM     10  N   UNL     1       3.245   4.413  19.396  0.00  0.00    +0.000 NA
ATOM     11  C   UNL     1       2.665   5.244  20.483  0.00  0.00    +0.000 C 
ENDROOT
BRANCH  10  12
ATOM     12  S   UNL     1       3.767   2.868  19.854  0.00  0.00    +0.000 S 
ATOM     13  C   UNL     1       3.157   1.839  18.529  0.00  0.00    +0.000 C 
ATOM     14  O   UNL     1       5.212   2.846  19.804  0.00  0.00    +0.000 OA
ATOM     15  O   UNL     1       3.053   2.499  21.057  0.00  0.00    +0.000 OA
ENDBRANCH  10  12
BRANCH   1  16
ATOM     16  C   UNL     1       0.990  10.485  19.071  0.00  0.00    +0.000 C 
BRANCH  16  20
ATOM     17  C   UNL     1      -2.955   9.932  15.970  0.00  0.00    +0.000 C 
ATOM     18  C   UNL     1      -2.364  10.453  17.245  0.00  0.00    +0.000 A 
ATOM     19  C   UNL     1      -1.055  10.144  17.586  0.00  0.00    +0.000 A 
ATOM     20  C   UNL     1      -0.477  10.716  18.727  0.00  0.00    +0.000 A 
ATOM     21  C   UNL     1      -1.294  11.539  19.551  0.00  0.00    +0.000 A 
ATOM     22  C   UNL     1      -0.855  12.143  20.758  0.00  0.00    +0.000 A 
ATOM     23  C   UNL     1      -1.712  12.925  21.533  0.00  0.00    +0.000 A 
ATOM     24  C   UNL     1      -3.020  13.123  21.119  0.00  0.00    +0.000 A 
ATOM     25  C   UNL     1      -3.461  12.543  19.928  0.00  0.00    +0.000 A 
ATOM     26  C   UNL     1      -2.630  11.760  19.139  0.00  0.00    +0.000 A 
ATOM     27  N   UNL     1      -3.141  11.248  18.007  0.00  0.00    +0.000 NA
ENDBRANCH  16  20
ENDBRANCH   1  16
TORSDOF 3
ENDMDL
MODEL 3
REMARK VINA RESULT:      -8.6      3.452      8.592
REMARK  Name = 
REMARK  5 active torsions:
REMARK  status: ('A' for Active; 'I' for Inactive)
REMARK    1  A    between atoms: C_1  and  C_2
REMARK    2  A    between atoms: C_4  and  C_5
REMARK    3  A    between atoms: C_5  and  N_6
REMARK    4  A    between atoms: N_15  and  S_16
REMARK    5  A    between atoms: S_16  and  C_17
REMARK                            x       y       z     vdW  Elec       q    Type
REMARK                         _______ _______ _______ _____ _____    ______ ____
ROOT
ATOM      1  N   UNL     1       1.191   9.394  19.459  0.00  0.00    +0.000 N 
ATOM      2  C   UNL     1       0.968   8.592  20.547  0.00  0.00    +0.000 A 
ATOM      3  N   UNL     1       1.480   7.419  20.719  0.00  0.00    +0.000 NA
ATOM      4  C   UNL     1       2.293   6.930  19.721  0.00  0.00    +0.000 A 
ATOM      5  C   UNL     1       2.520   7.586  18.572  0.00  0.00    +0.000 A 
ATOM      6  C   UNL     1       1.937   8.934  18.395  0.00  0.00    +0.000 A 
ATOM      7  O   UNL     1       2.156   9.577  17.378  0.00  0.00    +0.000 OA
ATOM      8  C   UNL     1       3.369   7.046  17.465  0.00  0.00    +0.000 C 
ATOM      9  C   UNL     1       4.290   5.932  17.946  0.00  0.00    +0.000 C 
ATOM     10  N   UNL     1       3.538   4.975  18.787  0.00  0.00    +0.000 NA
ATOM     11  C   UNL     1       2.925   5.576  20.001  0.00  0.00    +0.000 C 
ENDROOT
BRANCH  10  12
ATOM     12  S   UNL     1       4.232   3.445  18.997  0.00  0.00    +0.000 S 
ATOM     13  C   UNL     1       3.302   2.776  20.365  0.00  0.00    +0.000 C 
ATOM     14  O   UNL     1       3.933   2.650  17.826  0.00  0.00    +0.000 OA
ATOM     15  O   UNL     1       5.593   3.635  19.446  0.00  0.00    +0.000 OA
ENDBRANCH  10  12
BRANCH   1  16
ATOM     16  C   UNL     1       0.671  10.758  19.427  0.00  0.00    +0.000 C 
BRANCH  16  20
ATOM     17  C   UNL     1      -2.949   9.894  16.014  0.00  0.00    +0.000 C 
ATOM     18  C   UNL     1      -2.501  10.484  17.319  0.00  0.00    +0.000 A 
ATOM     19  C   UNL     1      -1.213  10.259  17.782  0.00  0.00    +0.000 A 
ATOM     20  C   UNL     1      -0.771  10.895  18.950  0.00  0.00    +0.000 A 
ATOM     21  C   UNL     1      -1.701  11.693  19.671  0.00  0.00    +0.000 A 
ATOM     22  C   UNL     1      -1.404  12.355  20.891  0.00  0.00    +0.000 A 
ATOM     23  C   UNL     1      -2.367  13.108  21.563  0.00  0.00    +0.000 A 
ATOM     24  C   UNL     1      -3.642  13.220  21.030  0.00  0.00    +0.000 A 
ATOM     25  C   UNL     1      -3.944  12.582  19.825  0.00  0.00    +0.000 A 
ATOM     26  C   UNL     1      -3.005  11.826  19.138  0.00  0.00    +0.000 A 
ATOM     27  N   UNL     1      -3.385  11.254  17.983  0.00  0.00    +0.000 NA
ENDBRANCH  16  20
ENDBRANCH   1  16
TORSDOF 3
ENDMDL
MODEL 4
REMARK VINA RESULT:      -8.5      3.514      8.108
REMARK  Name = 
REMARK  5 active torsions:
REMARK  status: ('A' for Active; 'I' for Inactive)
REMARK    1  A    between atoms: C_1  and  C_2
REMARK    2  A    between atoms: C_4  and  C_5
REMARK    3  A    between atoms: C_5  and  N_6
REMARK    4  A    between atoms: N_15  and  S_16
REMARK    5  A    between atoms: S_16  and  C_17
REMARK                            x       y       z     vdW  Elec       q    Type
REMARK                         _______ _______ _______ _____ _____    ______ ____
ROOT
ATOM      1  N   UNL     1       1.416   9.331  19.342  0.00  0.00    +0.000 N 
ATOM      2  C   UNL     1       1.006   8.912  20.581  0.00  0.00    +0.000 A 
ATOM      3  N   UNL     1       1.177   7.723  21.055  0.00  0.00    +0.000 NA
ATOM      4  C   UNL     1       1.797   6.801  20.242  0.00  0.00    +0.000 A 
ATOM      5  C   UNL     1       2.168   7.066  18.980  0.00  0.00    +0.000 A 
ATOM      6  C   UNL     1       1.978   8.437  18.456  0.00  0.00    +0.000 A 
ATOM      7  O   UNL     1       2.341   8.725  17.325  0.00  0.00    +0.000 OA
ATOM      8  C   UNL     1       2.806   6.060  18.076  0.00  0.00    +0.000 C 
ATOM      9  C   UNL     1       3.393   4.888  18.853  0.00  0.00    +0.000 C 
ATOM     10  N   UNL     1       2.427   4.412  19.866  0.00  0.00    +0.000 NA
ATOM     11  C   UNL     1       2.035   5.437  20.870  0.00  0.00    +0.000 C 
ENDROOT
BRANCH  10  12
ATOM     12  S   UNL     1       2.673   2.850  20.471  0.00  0.00    +0.000 S 
ATOM     13  C   UNL     1       4.338   2.482  19.942  0.00  0.00    +0.000 C 
ATOM     14  O   UNL     1       2.672   2.920  21.916  0.00  0.00    +0.000 OA
ATOM     15  O   UNL     1       1.783   1.956  19.763  0.00  0.00    +0.000 OA
ENDBRANCH  10  12
BRANCH   1  16
ATOM     16  C   UNL     1       1.294  10.734  18.958  0.00  0.00    +0.000 C 
BRANCH  16  20
ATOM     17  C   UNL     1      -1.579  13.737  21.824  0.00  0.00    +0.000 C 
ATOM     18  C   UNL     1      -1.422  12.818  20.650  0.00  0.00    +0.000 A 
ATOM     19  C   UNL     1      -0.171  12.320  20.315  0.00  0.00    +0.000 A 
ATOM     20  C   UNL     1      -0.047  11.384  19.280  0.00  0.00    +0.000 A 
ATOM     21  C   UNL     1      -1.215  11.038  18.546  0.00  0.00    +0.000 A 
ATOM     22  C   UNL     1      -1.228  10.141  17.446  0.00  0.00    +0.000 A 
ATOM     23  C   UNL     1      -2.405   9.857  16.752  0.00  0.00    +0.000 A 
ATOM     24  C   UNL     1      -3.592  10.457  17.145  0.00  0.00    +0.000 A 
ATOM     25  C   UNL     1      -3.594  11.332  18.233  0.00  0.00    +0.000 A 
ATOM     26  C   UNL     1      -2.438  11.633  18.938  0.00  0.00    +0.000 A 
ATOM     27  N   UNL     1      -2.539  12.482  19.975  0.00  0.00    +0.000 NA
ENDBRANCH  16  20
ENDBRANCH   1  16
TORSDOF 3
ENDMDL
MODEL 5
REMARK VINA RESULT:      -8.5      0.861      2.689
REMARK  Name = 
REMARK  5 active torsions:
REMARK  status: ('A' for Active; 'I' for Inactive)
REMARK    1  A    between atoms: C_1  and  C_2
REMARK    2  A    between atoms: C_4  and  C_5
REMARK    3  A    between atoms: C_5  and  N_6
REMARK    4  A    between atoms: N_15  and  S_16
REMARK    5  A    between atoms: S_16  and  C_17
REMARK                            x       y       z     vdW  Elec       q    Type
REMARK                         _______ _______ _______ _____ _____    ______ ____
ROOT
ATOM      1  N   UNL     1       2.186   7.512  18.644  0.00  0.00    +0.000 N 
ATOM      2  C   UNL     1       1.985   7.142  19.948  0.00  0.00    +0.000 A 
ATOM      3  N   UNL     1       1.408   7.871  20.844  0.00  0.00    +0.000 NA
ATOM      4  C   UNL     1       0.985   9.124  20.464  0.00  0.00    +0.000 A 
ATOM      5  C   UNL     1       1.199   9.632  19.240  0.00  0.00    +0.000 A 
ATOM      6  C   UNL     1       1.849   8.780  18.220  0.00  0.00    +0.000 A 
ATOM      7  O   UNL     1       2.024   9.195  17.083  0.00  0.00    +0.000 OA
ATOM      8  C   UNL     1       0.779  11.008  18.829  0.00  0.00    +0.000 C 
ATOM      9  C   UNL     1      -0.287  11.578  19.756  0.00  0.00    +0.000 C 
ATOM     10  N   UNL     1       0.089  11.348  21.168  0.00  0.00    +0.000 NA
ATOM     11  C   UNL     1       0.252   9.917  21.535  0.00  0.00    +0.000 C 
ENDROOT
BRANCH  10  12
ATOM     12  S   UNL     1      -0.682  12.318  22.323  0.00  0.00    +0.000 S 
ATOM     13  C   UNL     1      -2.153  12.855  21.466  0.00  0.00    +0.000 C 
ATOM     14  O   UNL     1      -1.093  11.470  23.422  0.00  0.00    +0.000 OA
ATOM     15  O   UNL     1       0.145  13.484  22.544  0.00  0.00    +0.000 OA
ENDBRANCH  10  12
BRANCH   1  16
ATOM     16  C   UNL     1       2.727   6.559  17.679  0.00  0.00    +0.000 C 
BRANCH  16  20
ATOM     17  C   UNL     1       4.187   2.374  20.097  0.00  0.00    +0.000 C 
ATOM     18  C   UNL     1       4.520   3.642  19.369  0.00  0.00    +0.000 A 
ATOM     19  C   UNL     1       3.513   4.409  18.803  0.00  0.00    +0.000 A 
ATOM     20  C   UNL     1       3.821   5.642  18.213  0.00  0.00    +0.000 A 
ATOM     21  C   UNL     1       5.189   6.027  18.142  0.00  0.00    +0.000 A 
ATOM     22  C   UNL     1       5.648   7.223  17.532  0.00  0.00    +0.000 A 
ATOM     23  C   UNL     1       7.007   7.536  17.478  0.00  0.00    +0.000 A 
ATOM     24  C   UNL     1       7.932   6.665  18.033  0.00  0.00    +0.000 A 
ATOM     25  C   UNL     1       7.491   5.490  18.646  0.00  0.00    +0.000 A 
ATOM     26  C   UNL     1       6.147   5.155  18.712  0.00  0.00    +0.000 A 
ATOM     27  N   UNL     1       5.817   4.006  19.327  0.00  0.00    +0.000 NA
ENDBRANCH  16  20
ENDBRANCH   1  16
TORSDOF 3
ENDMDL
MODEL 6
REMARK VINA RESULT:      -8.5      3.581      8.660
REMARK  Name = 
REMARK  5 active torsions:
REMARK  status: ('A' for Active; 'I' for Inactive)
REMARK    1  A    between atoms: C_1  and  C_2
REMARK    2  A    between atoms: C_4  and  C_5
REMARK    3  A    between atoms: C_5  and  N_6
REMARK    4  A    between atoms: N_15  and  S_16
REMARK    5  A    between atoms: S_16  and  C_17
REMARK                            x       y       z     vdW  Elec       q    Type
REMARK                         _______ _______ _______ _____ _____    ______ ____
ROOT
ATOM      1  N   UNL     1       1.144   9.898  18.972  0.00  0.00    +0.000 N 
ATOM      2  C   UNL     1       1.882   9.719  17.831  0.00  0.00    +0.000 A 
ATOM      3  N   UNL     1       2.540   8.647  17.537  0.00  0.00    +0.000 NA
ATOM      4  C   UNL     1       2.517   7.619  18.451  0.00  0.00    +0.000 A 
ATOM      5  C   UNL     1       1.899   7.706  19.639  0.00  0.00    +0.000 A 
ATOM      6  C   UNL     1       1.138   8.935  19.957  0.00  0.00    +0.000 A 
ATOM      7  O   UNL     1       0.531   9.033  21.013  0.00  0.00    +0.000 OA
ATOM      8  C   UNL     1       1.901   6.609  20.656  0.00  0.00    +0.000 C 
ATOM      9  C   UNL     1       2.265   5.263  20.041  0.00  0.00    +0.000 C 
ATOM     10  N   UNL     1       3.442   5.407  19.157  0.00  0.00    +0.000 NA
ATOM     11  C   UNL     1       3.250   6.355  18.028  0.00  0.00    +0.000 C 
ENDROOT
BRANCH  10  12
ATOM     12  S   UNL     1       4.287   3.988  18.787  0.00  0.00    +0.000 S 
ATOM     13  C   UNL     1       3.437   2.758  19.762  0.00  0.00    +0.000 C 
ATOM     14  O   UNL     1       4.064   3.681  17.391  0.00  0.00    +0.000 OA
ATOM     15  O   UNL     1       5.626   4.118  19.320  0.00  0.00    +0.000 OA
ENDBRANCH  10  12
BRANCH   1  16
ATOM     16  C   UNL     1       0.328  11.097  19.143  0.00  0.00    +0.000 C 
BRANCH  16  20
ATOM     17  C   UNL     1      -2.903   9.664  15.538  0.00  0.00    +0.000 C 
ATOM     18  C   UNL     1      -2.631  10.327  16.855  0.00  0.00    +0.000 A 
ATOM     19  C   UNL     1      -1.355  10.304  17.398  0.00  0.00    +0.000 A 
ATOM     20  C   UNL     1      -1.085  11.011  18.578  0.00  0.00    +0.000 A 
ATOM     21  C   UNL     1      -2.167  11.666  19.228  0.00  0.00    +0.000 A 
ATOM     22  C   UNL     1      -2.048  12.377  20.450  0.00  0.00    +0.000 A 
ATOM     23  C   UNL     1      -3.153  12.984  21.049  0.00  0.00    +0.000 A 
ATOM     24  C   UNL     1      -4.396  12.896  20.439  0.00  0.00    +0.000 A 
ATOM     25  C   UNL     1      -4.523  12.209  19.230  0.00  0.00    +0.000 A 
ATOM     26  C   UNL     1      -3.441  11.596  18.615  0.00  0.00    +0.000 A 
ATOM     27  N   UNL     1      -3.659  10.962  17.451  0.00  0.00    +0.000 NA
ENDBRANCH  16  20
ENDBRANCH   1  16
TORSDOF 3
ENDMDL
MODEL 7
REMARK VINA RESULT:      -8.4      2.777      3.549
REMARK  Name = 
REMARK  5 active torsions:
REMARK  status: ('A' for Active; 'I' for Inactive)
REMARK    1  A    between atoms: C_1  and  C_2
REMARK    2  A    between atoms: C_4  and  C_5
REMARK    3  A    between atoms: C_5  and  N_6
REMARK    4  A    between atoms: N_15  and  S_16
REMARK    5  A    between atoms: S_16  and  C_17
REMARK                            x       y       z     vdW  Elec       q    Type
REMARK                         _______ _______ _______ _____ _____    ______ ____
ROOT
ATOM      1  N   UNL     1       2.932   6.546  18.290  0.00  0.00    +0.000 N 
ATOM      2  C   UNL     1       2.736   7.632  17.478  0.00  0.00    +0.000 A 
ATOM      3  N   UNL     1       2.173   8.736  17.843  0.00  0.00    +0.000 NA
ATOM      4  C   UNL     1       1.714   8.815  19.137  0.00  0.00    +0.000 A 
ATOM      5  C   UNL     1       1.773   7.790  20.002  0.00  0.00    +0.000 A 
ATOM      6  C   UNL     1       2.433   6.536  19.575  0.00  0.00    +0.000 A 
ATOM      7  O   UNL     1       2.540   5.596  20.348  0.00  0.00    +0.000 OA
ATOM      8  C   UNL     1       1.241   7.853  21.398  0.00  0.00    +0.000 C 
ATOM      9  C   UNL     1       1.056   9.289  21.873  0.00  0.00    +0.000 C 
ATOM     10  N   UNL     1       0.384  10.089  20.826  0.00  0.00    +0.000 NA
ATOM     11  C   UNL     1       1.121  10.157  19.537  0.00  0.00    +0.000 C 
ENDROOT
BRANCH  10  12
ATOM     12  S   UNL     1      -0.347  11.531  21.330  0.00  0.00    +0.000 S 
ATOM     13  C   UNL     1      -1.066  11.080  22.900  0.00  0.00    +0.000 C 
ATOM     14  O   UNL     1       0.697  12.501  21.582  0.00  0.00    +0.000 OA
ATOM     15  O   UNL     1      -1.433  11.819  20.419  0.00  0.00    +0.000 OA
ENDBRANCH  10  12
BRANCH   1  16
ATOM     16  C   UNL     1       3.701   5.398  17.816  0.00  0.00    +0.000 C 
BRANCH  16  20
ATOM     17  C   UNL     1       8.062   7.926  18.109  0.00  0.00    +0.000 C 
ATOM     18  C   UNL     1       7.177   6.929  17.422  0.00  0.00    +0.000 A 
ATOM     19  C   UNL     1       5.958   6.575  17.980  0.00  0.00    +0.000 A 
ATOM     20  C   UNL     1       5.092   5.720  17.284  0.00  0.00    +0.000 A 
ATOM     21  C   UNL     1       5.541   5.174  16.050  0.00  0.00    +0.000 A 
ATOM     22  C   UNL     1       4.791   4.261  15.264  0.00  0.00    +0.000 A 
ATOM     23  C   UNL     1       5.295   3.744  14.070  0.00  0.00    +0.000 A 
ATOM     24  C   UNL     1       6.554   4.130  13.635  0.00  0.00    +0.000 A 
ATOM     25  C   UNL     1       7.297   5.036  14.394  0.00  0.00    +0.000 A 
ATOM     26  C   UNL     1       6.820   5.564  15.585  0.00  0.00    +0.000 A 
ATOM     27  N   UNL     1       7.604   6.433  16.243  0.00  0.00    +0.000 NA
ENDBRANCH  16  20
ENDBRANCH   1  16
TORSDOF 3
ENDMDL
MODEL 8
REMARK VINA RESULT:      -8.4      2.331      3.051
REMARK  Name = 
REMARK  5 active torsions:
REMARK  status: ('A' for Active; 'I' for Inactive)
REMARK    1  A    between atoms: C_1  and  C_2
REMARK    2  A    between atoms: C_4  and  C_5
REMARK    3  A    between atoms: C_5  and  N_6
REMARK    4  A    between atoms: N_15  and  S_16
REMARK    5  A    between atoms: S_16  and  C_17
REMARK                            x       y       z     vdW  Elec       q    Type
REMARK                         _______ _______ _______ _____ _____    ______ ____
ROOT
ATOM      1  N   UNL     1       2.874   5.859  18.873  0.00  0.00    +0.000 N 
ATOM      2  C   UNL     1       2.378   5.689  20.139  0.00  0.00    +0.000 A 
ATOM      3  N   UNL     1       1.721   6.580  20.803  0.00  0.00    +0.000 NA
ATOM      4  C   UNL     1       1.527   7.802  20.200  0.00  0.00    +0.000 A 
ATOM      5  C   UNL     1       2.035   8.118  18.999  0.00  0.00    +0.000 A 
ATOM      6  C   UNL     1       2.774   7.082  18.244  0.00  0.00    +0.000 A 
ATOM      7  O   UNL     1       3.217   7.321  17.130  0.00  0.00    +0.000 OA
ATOM      8  C   UNL     1       1.864   9.456  18.353  0.00  0.00    +0.000 C 
ATOM      9  C   UNL     1       0.707  10.238  18.962  0.00  0.00    +0.000 C 
ATOM     10  N   UNL     1       0.767  10.171  20.438  0.00  0.00    +0.000 NA
ATOM     11  C   UNL     1       0.691   8.794  20.994  0.00  0.00    +0.000 C 
ENDROOT
BRANCH  10  12
ATOM     12  S   UNL     1      -0.103  11.352  21.285  0.00  0.00    +0.000 S 
ATOM     13  C   UNL     1      -0.581  10.495  22.776  0.00  0.00    +0.000 C 
ATOM     14  O   UNL     1       0.814  12.409  21.654  0.00  0.00    +0.000 OA
ATOM     15  O   UNL     1      -1.309  11.633  20.537  0.00  0.00    +0.000 OA
ENDBRANCH  10  12
BRANCH   1  16
ATOM     16  C   UNL     1       3.484   4.740  18.161  0.00  0.00    +0.000 C 
BRANCH  16  20
ATOM     17  C   UNL     1       8.162   5.741  19.774  0.00  0.00    +0.000 C 
ATOM     18  C   UNL     1       7.219   5.345  18.678  0.00  0.00    +0.000 A 
ATOM     19  C   UNL     1       5.875   5.136  18.953  0.00  0.00    +0.000 A 
ATOM     20  C   UNL     1       4.982   4.866  17.908  0.00  0.00    +0.000 A 
ATOM     21  C   UNL     1       5.509   4.732  16.594  0.00  0.00    +0.000 A 
ATOM     22  C   UNL     1       4.729   4.414  15.452  0.00  0.00    +0.000 A 
ATOM     23  C   UNL     1       5.310   4.276  14.190  0.00  0.00    +0.000 A 
ATOM     24  C   UNL     1       6.676   4.457  14.043  0.00  0.00    +0.000 A 
ATOM     25  C   UNL     1       7.453   4.781  15.157  0.00  0.00    +0.000 A 
ATOM     26  C   UNL     1       6.901   4.922  16.423  0.00  0.00    +0.000 A 
ATOM     27  N   UNL     1       7.727   5.241  17.434  0.00  0.00    +0.000 NA
ENDBRANCH  16  20
ENDBRANCH   1  16
TORSDOF 3
ENDMDL
MODEL 9
REMARK VINA RESULT:      -8.2      2.477      3.362
REMARK  Name = 
REMARK  5 active torsions:
REMARK  status: ('A' for Active; 'I' for Inactive)
REMARK    1  A    between atoms: C_1  and  C_2
REMARK    2  A    between atoms: C_4  and  C_5
REMARK    3  A    between atoms: C_5  and  N_6
REMARK    4  A    between atoms: N_15  and  S_16
REMARK    5  A    between atoms: S_16  and  C_17
REMARK                            x       y       z     vdW  Elec       q    Type
REMARK                         _______ _______ _______ _____ _____    ______ ____
ROOT
ATOM      1  N   UNL     1       2.821   6.116  18.583  0.00  0.00    +0.000 N 
ATOM      2  C   UNL     1       2.787   7.126  17.657  0.00  0.00    +0.000 A 
ATOM      3  N   UNL     1       2.327   8.313  17.873  0.00  0.00    +0.000 NA
ATOM      4  C   UNL     1       1.809   8.574  19.121  0.00  0.00    +0.000 A 
ATOM      5  C   UNL     1       1.710   7.645  20.084  0.00  0.00    +0.000 A 
ATOM      6  C   UNL     1       2.254   6.292  19.827  0.00  0.00    +0.000 A 
ATOM      7  O   UNL     1       2.217   5.432  20.695  0.00  0.00    +0.000 OA
ATOM      8  C   UNL     1       1.113   7.907  21.430  0.00  0.00    +0.000 C 
ATOM      9  C   UNL     1       1.057   9.396  21.748  0.00  0.00    +0.000 C 
ATOM     10  N   UNL     1       0.533  10.146  20.585  0.00  0.00    +0.000 NA
ATOM     11  C   UNL     1       1.342  10.004  19.347  0.00  0.00    +0.000 C 
ENDROOT
BRANCH  10  12
ATOM     12  S   UNL     1      -0.065  11.700  20.896  0.00  0.00    +0.000 S 
ATOM     13  C   UNL     1       1.209  12.753  20.222  0.00  0.00    +0.000 C 
ATOM     14  O   UNL     1      -1.262  11.889  20.105  0.00  0.00    +0.000 OA
ATOM     15  O   UNL     1      -0.076  11.891  22.330  0.00  0.00    +0.000 OA
ENDBRANCH  10  12
BRANCH   1  16
ATOM     16  C   UNL     1       3.487   4.854  18.276  0.00  0.00    +0.000 C 
BRANCH  16  20
ATOM     17  C   UNL     1       8.192   5.854  19.810  0.00  0.00    +0.000 C 
ATOM     18  C   UNL     1       7.233   5.434  18.737  0.00  0.00    +0.000 A 
ATOM     19  C   UNL     1       5.891   5.249  19.032  0.00  0.00    +0.000 A 
ATOM     20  C   UNL     1       4.984   4.955  18.005  0.00  0.00    +0.000 A 
ATOM     21  C   UNL     1       5.496   4.772  16.691  0.00  0.00    +0.000 A 
ATOM     22  C   UNL     1       4.702   4.426  15.568  0.00  0.00    +0.000 A 
ATOM     23  C   UNL     1       5.268   4.240  14.306  0.00  0.00    +0.000 A 
ATOM     24  C   UNL     1       6.635   4.400  14.139  0.00  0.00    +0.000 A 
ATOM     25  C   UNL     1       7.426   4.752  15.235  0.00  0.00    +0.000 A 
ATOM     26  C   UNL     1       6.889   4.941  16.500  0.00  0.00    +0.000 A 
ATOM     27  N   UNL     1       7.728   5.283  17.492  0.00  0.00    +0.000 NA
ENDBRANCH  16  20
ENDBRANCH   1  16
TORSDOF 3
ENDMDL
