MODEL 1
REMARK VINA RESULT:      -9.9      0.000      0.000
REMARK  Name = 
REMARK  8 active torsions:
REMARK  status: ('A' for Active; 'I' for Inactive)
REMARK    1  A    between atoms: C_2  and  C_3
REMARK    2  A    between atoms: C_3  and  C_4
REMARK    3  A    between atoms: C_4  and  C_5
REMARK    4  A    between atoms: C_9  and  C_10
REMARK    5  A    between atoms: N_17  and  C_18
REMARK    6  A    between atoms: C_18  and  C_19
REMARK    7  A    between atoms: N_27  and  C_28
REMARK    8  A    between atoms: C_28  and  C_29
REMARK                            x       y       z     vdW  Elec       q    Type
REMARK                         _______ _______ _______ _____ _____    ______ ____
ROOT
ATOM      1  C   UNL     1       7.581   6.442  17.848  0.00  0.00    +0.000 A 
ATOM      2  N   UNL     1       7.594   6.332  16.555  0.00  0.00    +0.000 NA
ATOM      3  C   UNL     1       6.852   5.290  15.978  0.00  0.00    +0.000 A 
ATOM      4  C   UNL     1       7.002   5.092  14.602  0.00  0.00    +0.000 A 
ATOM      5  C   UNL     1       6.273   4.106  13.927  0.00  0.00    +0.000 A 
ATOM      6  C   UNL     1       5.359   3.334  14.652  0.00  0.00    +0.000 A 
ATOM      7  C   UNL     1       5.202   3.522  16.028  0.00  0.00    +0.000 A 
ATOM      8  C   UNL     1       5.964   4.479  16.712  0.00  0.00    +0.000 A 
ATOM      9  N   UNL     1       5.932   4.612  18.131  0.00  0.00    +0.000 N 
ATOM     10  C   UNL     1       6.845   5.457  18.753  0.00  0.00    +0.000 A 
ATOM     11  O   UNL     1       7.076   5.484  19.955  0.00  0.00    +0.000 OA
ENDROOT
BRANCH   5  12
ATOM     12  C   UNL     1       6.464   3.869  12.451  0.00  0.00    +0.000 C 
ATOM     13  F   UNL     1       5.323   4.019  11.723  0.00  0.00    +0.000 F 
ATOM     14  F   UNL     1       7.370   4.726  11.904  0.00  0.00    +0.000 F 
ATOM     15  F   UNL     1       6.920   2.617  12.180  0.00  0.00    +0.000 F 
ENDBRANCH   5  12
BRANCH   1  16
ATOM     16  C   UNL     1       8.281   7.593  18.546  0.00  0.00    +0.000 C 
BRANCH  16  17
ATOM     17  C   UNL     1       8.128   8.949  17.859  0.00  0.00    +0.000 C 
BRANCH  17  19
ATOM     18  O   UNL     1       9.236   9.965  19.754  0.00  0.00    +0.000 OA
ATOM     19  C   UNL     1       8.953  10.008  18.566  0.00  0.00    +0.000 C 
ATOM     20  N   UNL     1       9.347  11.038  17.738  0.00  0.00    +0.000 N 
ATOM     21  H   UNL     1       9.016  11.068  16.786  0.00  0.00    +0.000 HD
BRANCH  20  22
ATOM     22  C   UNL     1      10.083  12.185  18.240  0.00  0.00    +0.000 C 
BRANCH  22  23
ATOM     23  C   UNL     1       9.224  13.414  18.172  0.00  0.00    +0.000 A 
ATOM     24  C   UNL     1       7.885  13.342  17.772  0.00  0.00    +0.000 A 
ATOM     25  C   UNL     1       7.143  14.509  17.626  0.00  0.00    +0.000 A 
ATOM     26  C   UNL     1       7.761  15.716  17.904  0.00  0.00    +0.000 A 
ATOM     27  N   UNL     1       9.038  15.825  18.330  0.00  0.00    +0.000 NA
ATOM     28  C   UNL     1       9.738  14.675  18.459  0.00  0.00    +0.000 A 
ENDBRANCH  22  23
ENDBRANCH  20  22
ENDBRANCH  17  19
ENDBRANCH  16  17
ENDBRANCH   1  16
BRANCH   9  29
ATOM     29  C   UNL     1       5.011   3.839  18.969  0.00  0.00    +0.000 C 
BRANCH  29  30
ATOM     30  C   UNL     1       3.882   4.695  19.511  0.00  0.00    +0.000 A 
ATOM     31  C   UNL     1       3.004   4.193  20.485  0.00  0.00    +0.000 A 
ATOM     32  C   UNL     1       1.867   4.914  20.856  0.00  0.00    +0.000 A 
ATOM     33  C   UNL     1       1.613   6.160  20.289  0.00  0.00    +0.000 A 
ATOM     34  C   UNL     1       2.524   6.711  19.390  0.00  0.00    +0.000 A 
ATOM     35  C   UNL     1       3.659   5.989  19.012  0.00  0.00    +0.000 A 
ENDBRANCH  29  30
ENDBRANCH   9  29
TORSDOF 8
ENDMDL
MODEL 2
REMARK VINA RESULT:      -9.9      0.566      1.198
REMARK  Name = 
REMARK  8 active torsions:
REMARK  status: ('A' for Active; 'I' for Inactive)
REMARK    1  A    between atoms: C_2  and  C_3
REMARK    2  A    between atoms: C_3  and  C_4
REMARK    3  A    between atoms: C_4  and  C_5
REMARK    4  A    between atoms: C_9  and  C_10
REMARK    5  A    between atoms: N_17  and  C_18
REMARK    6  A    between atoms: C_18  and  C_19
REMARK    7  A    between atoms: N_27  and  C_28
REMARK    8  A    between atoms: C_28  and  C_29
REMARK                            x       y       z     vdW  Elec       q    Type
REMARK                         _______ _______ _______ _____ _____    ______ ____
ROOT
ATOM      1  C   UNL     1       7.580   6.482  17.835  0.00  0.00    +0.000 A 
ATOM      2  N   UNL     1       7.596   6.361  16.543  0.00  0.00    +0.000 NA
ATOM      3  C   UNL     1       6.856   5.313  15.974  0.00  0.00    +0.000 A 
ATOM      4  C   UNL     1       7.009   5.104  14.599  0.00  0.00    +0.000 A 
ATOM      5  C   UNL     1       6.283   4.111  13.931  0.00  0.00    +0.000 A 
ATOM      6  C   UNL     1       5.368   3.344  14.660  0.00  0.00    +0.000 A 
ATOM      7  C   UNL     1       5.208   3.543  16.035  0.00  0.00    +0.000 A 
ATOM      8  C   UNL     1       5.968   4.506  16.712  0.00  0.00    +0.000 A 
ATOM      9  N   UNL     1       5.933   4.651  18.130  0.00  0.00    +0.000 N 
ATOM     10  C   UNL     1       6.844   5.503  18.747  0.00  0.00    +0.000 A 
ATOM     11  O   UNL     1       7.073   5.540  19.949  0.00  0.00    +0.000 OA
ENDROOT
BRANCH   5  12
ATOM     12  C   UNL     1       6.476   3.863  12.458  0.00  0.00    +0.000 C 
ATOM     13  F   UNL     1       5.326   3.953  11.733  0.00  0.00    +0.000 F 
ATOM     14  F   UNL     1       7.341   4.751  11.893  0.00  0.00    +0.000 F 
ATOM     15  F   UNL     1       6.985   2.628  12.201  0.00  0.00    +0.000 F 
ENDBRANCH   5  12
BRANCH   1  16
ATOM     16  C   UNL     1       8.277   7.639  18.525  0.00  0.00    +0.000 C 
BRANCH  16  17
ATOM     17  C   UNL     1       8.086   8.997  17.850  0.00  0.00    +0.000 C 
BRANCH  17  19
ATOM     18  O   UNL     1       9.449   9.907  19.630  0.00  0.00    +0.000 OA
ATOM     19  C   UNL     1       8.914  10.064  18.543  0.00  0.00    +0.000 C 
ATOM     20  N   UNL     1       8.996  11.242  17.830  0.00  0.00    +0.000 N 
ATOM     21  H   UNL     1       8.466  11.348  16.978  0.00  0.00    +0.000 HD
BRANCH  20  22
ATOM     22  C   UNL     1       9.681  12.408  18.356  0.00  0.00    +0.000 C 
BRANCH  22  23
ATOM     23  C   UNL     1       8.796  13.615  18.248  0.00  0.00    +0.000 A 
ATOM     24  C   UNL     1       9.180  14.848  18.787  0.00  0.00    +0.000 A 
ATOM     25  C   UNL     1       8.298  15.921  18.755  0.00  0.00    +0.000 A 
ATOM     26  C   UNL     1       7.060  15.734  18.165  0.00  0.00    +0.000 A 
ATOM     27  N   UNL     1       6.666  14.573  17.599  0.00  0.00    +0.000 NA
ATOM     28  C   UNL     1       7.542  13.544  17.648  0.00  0.00    +0.000 A 
ENDBRANCH  22  23
ENDBRANCH  20  22
ENDBRANCH  17  19
ENDBRANCH  16  17
ENDBRANCH   1  16
BRANCH   9  29
ATOM     29  C   UNL     1       5.012   3.883  18.973  0.00  0.00    +0.000 C 
BRANCH  29  30
ATOM     30  C   UNL     1       3.795   4.698  19.372  0.00  0.00    +0.000 A 
ATOM     31  C   UNL     1       3.562   5.962  18.809  0.00  0.00    +0.000 A 
ATOM     32  C   UNL     1       2.543   6.782  19.300  0.00  0.00    +0.000 A 
ATOM     33  C   UNL     1       1.724   6.335  20.333  0.00  0.00    +0.000 A 
ATOM     34  C   UNL     1       1.885   5.047  20.838  0.00  0.00    +0.000 A 
ATOM     35  C   UNL     1       2.908   4.227  20.352  0.00  0.00    +0.000 A 
ENDBRANCH  29  30
ENDBRANCH   9  29
TORSDOF 8
ENDMDL
MODEL 3
REMARK VINA RESULT:      -9.7      1.026      1.242
REMARK  Name = 
REMARK  8 active torsions:
REMARK  status: ('A' for Active; 'I' for Inactive)
REMARK    1  A    between atoms: C_2  and  C_3
REMARK    2  A    between atoms: C_3  and  C_4
REMARK    3  A    between atoms: C_4  and  C_5
REMARK    4  A    between atoms: C_9  and  C_10
REMARK    5  A    between atoms: N_17  and  C_18
REMARK    6  A    between atoms: C_18  and  C_19
REMARK    7  A    between atoms: N_27  and  C_28
REMARK    8  A    between atoms: C_28  and  C_29
REMARK                            x       y       z     vdW  Elec       q    Type
REMARK                         _______ _______ _______ _____ _____    ______ ____
ROOT
ATOM      1  C   UNL     1       7.673   6.552  17.853  0.00  0.00    +0.000 A 
ATOM      2  N   UNL     1       7.664   6.459  16.559  0.00  0.00    +0.000 NA
ATOM      3  C   UNL     1       6.989   5.372  15.984  0.00  0.00    +0.000 A 
ATOM      4  C   UNL     1       7.122   5.203  14.602  0.00  0.00    +0.000 A 
ATOM      5  C   UNL     1       6.455   4.172  13.929  0.00  0.00    +0.000 A 
ATOM      6  C   UNL     1       5.619   3.324  14.663  0.00  0.00    +0.000 A 
ATOM      7  C   UNL     1       5.480   3.483  16.045  0.00  0.00    +0.000 A 
ATOM      8  C   UNL     1       6.183   4.485  16.725  0.00  0.00    +0.000 A 
ATOM      9  N   UNL     1       6.174   4.598  18.147  0.00  0.00    +0.000 N 
ATOM     10  C   UNL     1       7.035   5.502  18.760  0.00  0.00    +0.000 A 
ATOM     11  O   UNL     1       7.291   5.531  19.958  0.00  0.00    +0.000 OA
ENDROOT
BRANCH   5  12
ATOM     12  C   UNL     1       6.628   3.970  12.446  0.00  0.00    +0.000 C 
ATOM     13  F   UNL     1       7.484   4.858  11.870  0.00  0.00    +0.000 F 
ATOM     14  F   UNL     1       7.117   2.734  12.148  0.00  0.00    +0.000 F 
ATOM     15  F   UNL     1       5.455   4.083  11.766  0.00  0.00    +0.000 F 
ENDBRANCH   5  12
BRANCH   1  16
ATOM     16  C   UNL     1       8.299   7.744  18.552  0.00  0.00    +0.000 C 
BRANCH  16  17
ATOM     17  C   UNL     1       8.166   9.070  17.804  0.00  0.00    +0.000 C 
BRANCH  17  19
ATOM     18  O   UNL     1       9.179  10.132  19.726  0.00  0.00    +0.000 OA
ATOM     19  C   UNL     1       8.894  10.179  18.539  0.00  0.00    +0.000 C 
ATOM     20  N   UNL     1       9.198  11.259  17.738  0.00  0.00    +0.000 N 
ATOM     21  H   UNL     1       8.867  11.283  16.785  0.00  0.00    +0.000 HD
BRANCH  20  22
ATOM     22  C   UNL     1       9.830  12.453  18.270  0.00  0.00    +0.000 C 
BRANCH  22  23
ATOM     23  C   UNL     1       8.810  13.541  18.436  0.00  0.00    +0.000 A 
ATOM     24  C   UNL     1       7.658  13.584  17.642  0.00  0.00    +0.000 A 
ATOM     25  C   UNL     1       6.781  14.656  17.755  0.00  0.00    +0.000 A 
ATOM     26  C   UNL     1       7.074  15.648  18.675  0.00  0.00    +0.000 A 
ATOM     27  N   UNL     1       8.152  15.625  19.486  0.00  0.00    +0.000 NA
ATOM     28  C   UNL     1       8.992  14.572  19.353  0.00  0.00    +0.000 A 
ENDBRANCH  22  23
ENDBRANCH  20  22
ENDBRANCH  17  19
ENDBRANCH  16  17
ENDBRANCH   1  16
BRANCH   9  29
ATOM     29  C   UNL     1       5.335   3.746  18.994  0.00  0.00    +0.000 C 
BRANCH  29  30
ATOM     30  C   UNL     1       3.858   3.934  18.700  0.00  0.00    +0.000 A 
ATOM     31  C   UNL     1       3.005   2.826  18.575  0.00  0.00    +0.000 A 
ATOM     32  C   UNL     1       1.688   2.989  18.136  0.00  0.00    +0.000 A 
ATOM     33  C   UNL     1       1.198   4.260  17.852  0.00  0.00    +0.000 A 
ATOM     34  C   UNL     1       2.006   5.376  18.059  0.00  0.00    +0.000 A 
ATOM     35  C   UNL     1       3.325   5.216  18.493  0.00  0.00    +0.000 A 
ENDBRANCH  29  30
ENDBRANCH   9  29
TORSDOF 8
ENDMDL
MODEL 4
REMARK VINA RESULT:      -9.7      0.497      1.047
REMARK  Name = 
REMARK  8 active torsions:
REMARK  status: ('A' for Active; 'I' for Inactive)
REMARK    1  A    between atoms: C_2  and  C_3
REMARK    2  A    between atoms: C_3  and  C_4
REMARK    3  A    between atoms: C_4  and  C_5
REMARK    4  A    between atoms: C_9  and  C_10
REMARK    5  A    between atoms: N_17  and  C_18
REMARK    6  A    between atoms: C_18  and  C_19
REMARK    7  A    between atoms: N_27  and  C_28
REMARK    8  A    between atoms: C_28  and  C_29
REMARK                            x       y       z     vdW  Elec       q    Type
REMARK                         _______ _______ _______ _____ _____    ______ ____
ROOT
ATOM      1  C   UNL     1       7.534   6.353  17.796  0.00  0.00    +0.000 A 
ATOM      2  N   UNL     1       7.568   6.235  16.504  0.00  0.00    +0.000 NA
ATOM      3  C   UNL     1       6.803   5.215  15.919  0.00  0.00    +0.000 A 
ATOM      4  C   UNL     1       6.973   5.004  14.546  0.00  0.00    +0.000 A 
ATOM      5  C   UNL     1       6.225   4.038  13.862  0.00  0.00    +0.000 A 
ATOM      6  C   UNL     1       5.274   3.299  14.574  0.00  0.00    +0.000 A 
ATOM      7  C   UNL     1       5.097   3.500  15.946  0.00  0.00    +0.000 A 
ATOM      8  C   UNL     1       5.876   4.436  16.639  0.00  0.00    +0.000 A 
ATOM      9  N   UNL     1       5.822   4.578  18.057  0.00  0.00    +0.000 N 
ATOM     10  C   UNL     1       6.750   5.397  18.692  0.00  0.00    +0.000 A 
ATOM     11  O   UNL     1       6.959   5.423  19.898  0.00  0.00    +0.000 OA
ENDROOT
BRANCH   5  12
ATOM     12  C   UNL     1       6.435   3.787  12.392  0.00  0.00    +0.000 C 
ATOM     13  F   UNL     1       6.828   2.514  12.106  0.00  0.00    +0.000 F 
ATOM     14  F   UNL     1       5.303   3.999  11.665  0.00  0.00    +0.000 F 
ATOM     15  F   UNL     1       7.384   4.602  11.856  0.00  0.00    +0.000 F 
ENDBRANCH   5  12
BRANCH   1  16
ATOM     16  C   UNL     1       8.257   7.485  18.501  0.00  0.00    +0.000 C 
BRANCH  16  17
ATOM     17  C   UNL     1       8.023   8.870  17.899  0.00  0.00    +0.000 C 
BRANCH  17  19
ATOM     18  O   UNL     1       9.346   9.817  19.689  0.00  0.00    +0.000 OA
ATOM     19  C   UNL     1       8.936   9.898  18.541  0.00  0.00    +0.000 C 
ATOM     20  N   UNL     1       9.253  10.947  17.704  0.00  0.00    +0.000 N 
ATOM     21  H   UNL     1       8.820  11.009  16.795  0.00  0.00    +0.000 HD
BRANCH  20  22
ATOM     22  C   UNL     1      10.056  12.070  18.154  0.00  0.00    +0.000 C 
BRANCH  22  23
ATOM     23  C   UNL     1       9.304  13.352  17.949  0.00  0.00    +0.000 A 
ATOM     24  C   UNL     1       9.963  14.586  17.939  0.00  0.00    +0.000 A 
ATOM     25  C   UNL     1       9.228  15.762  17.843  0.00  0.00    +0.000 A 
ATOM     26  C   UNL     1       7.851  15.666  17.739  0.00  0.00    +0.000 A 
ATOM     27  N   UNL     1       7.180  14.495  17.705  0.00  0.00    +0.000 NA
ATOM     28  C   UNL     1       7.920  13.367  17.805  0.00  0.00    +0.000 A 
ENDBRANCH  22  23
ENDBRANCH  20  22
ENDBRANCH  17  19
ENDBRANCH  16  17
ENDBRANCH   1  16
BRANCH   9  29
ATOM     29  C   UNL     1       4.862   3.839  18.881  0.00  0.00    +0.000 C 
BRANCH  29  30
ATOM     30  C   UNL     1       3.794   4.748  19.461  0.00  0.00    +0.000 A 
ATOM     31  C   UNL     1       2.980   4.314  20.519  0.00  0.00    +0.000 A 
ATOM     32  C   UNL     1       1.889   5.080  20.936  0.00  0.00    +0.000 A 
ATOM     33  C   UNL     1       1.620   6.303  20.327  0.00  0.00    +0.000 A 
ATOM     34  C   UNL     1       2.472   6.787  19.338  0.00  0.00    +0.000 A 
ATOM     35  C   UNL     1       3.561   6.020  18.915  0.00  0.00    +0.000 A 
ENDBRANCH  29  30
ENDBRANCH   9  29
TORSDOF 8
ENDMDL
MODEL 5
REMARK VINA RESULT:      -9.6      1.728      1.968
REMARK  Name = 
REMARK  8 active torsions:
REMARK  status: ('A' for Active; 'I' for Inactive)
REMARK    1  A    between atoms: C_2  and  C_3
REMARK    2  A    between atoms: C_3  and  C_4
REMARK    3  A    between atoms: C_4  and  C_5
REMARK    4  A    between atoms: C_9  and  C_10
REMARK    5  A    between atoms: N_17  and  C_18
REMARK    6  A    between atoms: C_18  and  C_19
REMARK    7  A    between atoms: N_27  and  C_28
REMARK    8  A    between atoms: C_28  and  C_29
REMARK                            x       y       z     vdW  Elec       q    Type
REMARK                         _______ _______ _______ _____ _____    ______ ____
ROOT
ATOM      1  C   UNL     1       7.607   6.509  17.816  0.00  0.00    +0.000 A 
ATOM      2  N   UNL     1       7.599   6.380  16.525  0.00  0.00    +0.000 NA
ATOM      3  C   UNL     1       6.863   5.320  15.976  0.00  0.00    +0.000 A 
ATOM      4  C   UNL     1       6.993   5.104  14.600  0.00  0.00    +0.000 A 
ATOM      5  C   UNL     1       6.267   4.098  13.951  0.00  0.00    +0.000 A 
ATOM      6  C   UNL     1       5.377   3.323  14.702  0.00  0.00    +0.000 A 
ATOM      7  C   UNL     1       5.241   3.529  16.079  0.00  0.00    +0.000 A 
ATOM      8  C   UNL     1       6.000   4.506  16.736  0.00  0.00    +0.000 A 
ATOM      9  N   UNL     1       5.990   4.659  18.153  0.00  0.00    +0.000 N 
ATOM     10  C   UNL     1       6.901   5.526  18.747  0.00  0.00    +0.000 A 
ATOM     11  O   UNL     1       7.152   5.573  19.945  0.00  0.00    +0.000 OA
ENDROOT
BRANCH   5  12
ATOM     12  C   UNL     1       6.436   3.844  12.476  0.00  0.00    +0.000 C 
ATOM     13  F   UNL     1       7.329   4.679  11.876  0.00  0.00    +0.000 F 
ATOM     14  F   UNL     1       6.875   2.581  12.217  0.00  0.00    +0.000 F 
ATOM     15  F   UNL     1       5.271   3.984  11.788  0.00  0.00    +0.000 F 
ENDBRANCH   5  12
BRANCH   1  16
ATOM     16  C   UNL     1       8.301   7.679  18.486  0.00  0.00    +0.000 C 
BRANCH  16  17
ATOM     17  C   UNL     1       8.063   9.034  17.819  0.00  0.00    +0.000 C 
BRANCH  17  19
ATOM     18  O   UNL     1       9.621  10.882  17.731  0.00  0.00    +0.000 OA
ATOM     19  C   UNL     1       8.979  10.092  18.406  0.00  0.00    +0.000 C 
ATOM     20  N   UNL     1       9.028  10.069  19.784  0.00  0.00    +0.000 N 
ATOM     21  H   UNL     1       8.544   9.343  20.290  0.00  0.00    +0.000 HD
BRANCH  20  22
ATOM     22  C   UNL     1       9.903  10.954  20.533  0.00  0.00    +0.000 C 
BRANCH  22  23
ATOM     23  C   UNL     1       9.108  12.085  21.117  0.00  0.00    +0.000 A 
ATOM     24  C   UNL     1       8.556  11.997  22.400  0.00  0.00    +0.000 A 
ATOM     25  C   UNL     1       7.745  13.022  22.875  0.00  0.00    +0.000 A 
ATOM     26  C   UNL     1       7.526  14.116  22.057  0.00  0.00    +0.000 A 
ATOM     27  N   UNL     1       8.071  14.257  20.830  0.00  0.00    +0.000 NA
ATOM     28  C   UNL     1       8.852  13.244  20.390  0.00  0.00    +0.000 A 
ENDBRANCH  22  23
ENDBRANCH  20  22
ENDBRANCH  17  19
ENDBRANCH  16  17
ENDBRANCH   1  16
BRANCH   9  29
ATOM     29  C   UNL     1       5.096   3.884  19.017  0.00  0.00    +0.000 C 
BRANCH  29  30
ATOM     30  C   UNL     1       3.933   4.717  19.523  0.00  0.00    +0.000 A 
ATOM     31  C   UNL     1       3.031   4.194  20.465  0.00  0.00    +0.000 A 
ATOM     32  C   UNL     1       1.869   4.893  20.799  0.00  0.00    +0.000 A 
ATOM     33  C   UNL     1       1.611   6.136  20.227  0.00  0.00    +0.000 A 
ATOM     34  C   UNL     1       2.542   6.707  19.361  0.00  0.00    +0.000 A 
ATOM     35  C   UNL     1       3.702   6.007  19.021  0.00  0.00    +0.000 A 
ENDBRANCH  29  30
ENDBRANCH   9  29
TORSDOF 8
ENDMDL
MODEL 6
REMARK VINA RESULT:      -9.6      2.078      2.474
REMARK  Name = 
REMARK  8 active torsions:
REMARK  status: ('A' for Active; 'I' for Inactive)
REMARK    1  A    between atoms: C_2  and  C_3
REMARK    2  A    between atoms: C_3  and  C_4
REMARK    3  A    between atoms: C_4  and  C_5
REMARK    4  A    between atoms: C_9  and  C_10
REMARK    5  A    between atoms: N_17  and  C_18
REMARK    6  A    between atoms: C_18  and  C_19
REMARK    7  A    between atoms: N_27  and  C_28
REMARK    8  A    between atoms: C_28  and  C_29
REMARK                            x       y       z     vdW  Elec       q    Type
REMARK                         _______ _______ _______ _____ _____    ______ ____
ROOT
ATOM      1  C   UNL     1       7.652   6.632  17.763  0.00  0.00    +0.000 A 
ATOM      2  N   UNL     1       7.636   6.521  16.471  0.00  0.00    +0.000 NA
ATOM      3  C   UNL     1       6.982   5.411  15.916  0.00  0.00    +0.000 A 
ATOM      4  C   UNL     1       7.109   5.226  14.535  0.00  0.00    +0.000 A 
ATOM      5  C   UNL     1       6.459   4.172  13.881  0.00  0.00    +0.000 A 
ATOM      6  C   UNL     1       5.647   3.316  14.633  0.00  0.00    +0.000 A 
ATOM      7  C   UNL     1       5.514   3.491  16.014  0.00  0.00    +0.000 A 
ATOM      8  C   UNL     1       6.200   4.518  16.675  0.00  0.00    +0.000 A 
ATOM      9  N   UNL     1       6.198   4.650  18.095  0.00  0.00    +0.000 N 
ATOM     10  C   UNL     1       7.043   5.581  18.690  0.00  0.00    +0.000 A 
ATOM     11  O   UNL     1       7.307   5.633  19.884  0.00  0.00    +0.000 OA
ENDROOT
BRANCH   5  12
ATOM     12  C   UNL     1       6.627   3.952  12.400  0.00  0.00    +0.000 C 
ATOM     13  F   UNL     1       5.464   4.055  11.699  0.00  0.00    +0.000 F 
ATOM     14  F   UNL     1       7.481   4.853  11.838  0.00  0.00    +0.000 F 
ATOM     15  F   UNL     1       7.133   2.724  12.111  0.00  0.00    +0.000 F 
ENDBRANCH   5  12
BRANCH   1  16
ATOM     16  C   UNL     1       8.257   7.847  18.441  0.00  0.00    +0.000 C 
BRANCH  16  17
ATOM     17  C   UNL     1       7.912   9.185  17.788  0.00  0.00    +0.000 C 
BRANCH  17  19
ATOM     18  O   UNL     1       9.006  11.341  17.728  0.00  0.00    +0.000 OA
ATOM     19  C   UNL     1       8.809  10.289  18.316  0.00  0.00    +0.000 C 
ATOM     20  N   UNL     1       9.396   9.985  19.526  0.00  0.00    +0.000 N 
ATOM     21  H   UNL     1       9.267   9.069  19.928  0.00  0.00    +0.000 HD
BRANCH  20  22
ATOM     22  C   UNL     1      10.346  10.881  20.162  0.00  0.00    +0.000 C 
BRANCH  22  23
ATOM     23  C   UNL     1       9.619  11.860  21.037  0.00  0.00    +0.000 A 
ATOM     24  C   UNL     1       9.968  13.215  21.056  0.00  0.00    +0.000 A 
ATOM     25  C   UNL     1       9.341  14.078  21.946  0.00  0.00    +0.000 A 
ATOM     26  C   UNL     1       8.365  13.562  22.781  0.00  0.00    +0.000 A 
ATOM     27  N   UNL     1       7.972  12.270  22.767  0.00  0.00    +0.000 NA
ATOM     28  C   UNL     1       8.602  11.451  21.894  0.00  0.00    +0.000 A 
ENDBRANCH  22  23
ENDBRANCH  20  22
ENDBRANCH  17  19
ENDBRANCH  16  17
ENDBRANCH   1  16
BRANCH   9  29
ATOM     29  C   UNL     1       5.383   3.792  18.959  0.00  0.00    +0.000 C 
BRANCH  29  30
ATOM     30  C   UNL     1       3.922   3.799  18.550  0.00  0.00    +0.000 A 
ATOM     31  C   UNL     1       3.244   5.009  18.331  0.00  0.00    +0.000 A 
ATOM     32  C   UNL     1       1.863   5.022  18.125  0.00  0.00    +0.000 A 
ATOM     33  C   UNL     1       1.149   3.827  18.099  0.00  0.00    +0.000 A 
ATOM     34  C   UNL     1       1.822   2.614  18.224  0.00  0.00    +0.000 A 
ATOM     35  C   UNL     1       3.203   2.599  18.436  0.00  0.00    +0.000 A 
ENDBRANCH  29  30
ENDBRANCH   9  29
TORSDOF 8
ENDMDL
MODEL 7
REMARK VINA RESULT:      -9.5      1.965      2.275
REMARK  Name = 
REMARK  8 active torsions:
REMARK  status: ('A' for Active; 'I' for Inactive)
REMARK    1  A    between atoms: C_2  and  C_3
REMARK    2  A    between atoms: C_3  and  C_4
REMARK    3  A    between atoms: C_4  and  C_5
REMARK    4  A    between atoms: C_9  and  C_10
REMARK    5  A    between atoms: N_17  and  C_18
REMARK    6  A    between atoms: C_18  and  C_19
REMARK    7  A    between atoms: N_27  and  C_28
REMARK    8  A    between atoms: C_28  and  C_29
REMARK                            x       y       z     vdW  Elec       q    Type
REMARK                         _______ _______ _______ _____ _____    ______ ____
ROOT
ATOM      1  C   UNL     1       7.695   6.611  17.909  0.00  0.00    +0.000 A 
ATOM      2  N   UNL     1       7.667   6.479  16.618  0.00  0.00    +0.000 NA
ATOM      3  C   UNL     1       6.912   5.426  16.082  0.00  0.00    +0.000 A 
ATOM      4  C   UNL     1       7.020   5.205  14.705  0.00  0.00    +0.000 A 
ATOM      5  C   UNL     1       6.274   4.206  14.069  0.00  0.00    +0.000 A 
ATOM      6  C   UNL     1       5.386   3.443  14.835  0.00  0.00    +0.000 A 
ATOM      7  C   UNL     1       5.271   3.653  16.213  0.00  0.00    +0.000 A 
ATOM      8  C   UNL     1       6.050   4.623  16.856  0.00  0.00    +0.000 A 
ATOM      9  N   UNL     1       6.062   4.780  18.273  0.00  0.00    +0.000 N 
ATOM     10  C   UNL     1       6.990   5.638  18.853  0.00  0.00    +0.000 A 
ATOM     11  O   UNL     1       7.259   5.686  20.047  0.00  0.00    +0.000 OA
ENDROOT
BRANCH   5  12
ATOM     12  C   UNL     1       6.419   3.945  12.593  0.00  0.00    +0.000 C 
ATOM     13  F   UNL     1       5.255   4.078  11.898  0.00  0.00    +0.000 F 
ATOM     14  F   UNL     1       7.303   4.797  12.003  0.00  0.00    +0.000 F 
ATOM     15  F   UNL     1       6.873   2.691  12.328  0.00  0.00    +0.000 F 
ENDBRANCH   5  12
BRANCH   1  16
ATOM     16  C   UNL     1       8.411   7.775  18.566  0.00  0.00    +0.000 C 
BRANCH  16  17
ATOM     17  C   UNL     1       8.041   9.151  18.013  0.00  0.00    +0.000 C 
BRANCH  17  19
ATOM     18  O   UNL     1       9.814  10.760  17.668  0.00  0.00    +0.000 OA
ATOM     19  C   UNL     1       9.056  10.195  18.441  0.00  0.00    +0.000 C 
ATOM     20  N   UNL     1       9.051  10.438  19.799  0.00  0.00    +0.000 N 
ATOM     21  H   UNL     1       8.464   9.883  20.403  0.00  0.00    +0.000 HD
BRANCH  20  22
ATOM     22  C   UNL     1       9.997  11.349  20.416  0.00  0.00    +0.000 C 
BRANCH  22  23
ATOM     23  C   UNL     1       9.309  12.165  21.471  0.00  0.00    +0.000 A 
ATOM     24  C   UNL     1       8.388  11.585  22.350  0.00  0.00    +0.000 A 
ATOM     25  C   UNL     1       7.696  12.384  23.253  0.00  0.00    +0.000 A 
ATOM     26  C   UNL     1       7.961  13.743  23.261  0.00  0.00    +0.000 A 
ATOM     27  N   UNL     1       8.870  14.335  22.457  0.00  0.00    +0.000 NA
ATOM     28  C   UNL     1       9.526  13.535  21.586  0.00  0.00    +0.000 A 
ENDBRANCH  22  23
ENDBRANCH  20  22
ENDBRANCH  17  19
ENDBRANCH  16  17
ENDBRANCH   1  16
BRANCH   9  29
ATOM     29  C   UNL     1       5.171   4.017  19.152  0.00  0.00    +0.000 C 
BRANCH  29  30
ATOM     30  C   UNL     1       3.901   4.782  19.475  0.00  0.00    +0.000 A 
ATOM     31  C   UNL     1       3.662   6.046  18.912  0.00  0.00    +0.000 A 
ATOM     32  C   UNL     1       2.583   6.822  19.341  0.00  0.00    +0.000 A 
ATOM     33  C   UNL     1       1.710   6.332  20.309  0.00  0.00    +0.000 A 
ATOM     34  C   UNL     1       1.884   5.044  20.810  0.00  0.00    +0.000 A 
ATOM     35  C   UNL     1       2.966   4.268  20.387  0.00  0.00    +0.000 A 
ENDBRANCH  29  30
ENDBRANCH   9  29
TORSDOF 8
ENDMDL
MODEL 8
REMARK VINA RESULT:      -9.3      1.091      1.413
REMARK  Name = 
REMARK  8 active torsions:
REMARK  status: ('A' for Active; 'I' for Inactive)
REMARK    1  A    between atoms: C_2  and  C_3
REMARK    2  A    between atoms: C_3  and  C_4
REMARK    3  A    between atoms: C_4  and  C_5
REMARK    4  A    between atoms: C_9  and  C_10
REMARK    5  A    between atoms: N_17  and  C_18
REMARK    6  A    between atoms: C_18  and  C_19
REMARK    7  A    between atoms: N_27  and  C_28
REMARK    8  A    between atoms: C_28  and  C_29
REMARK                            x       y       z     vdW  Elec       q    Type
REMARK                         _______ _______ _______ _____ _____    ______ ____
ROOT
ATOM      1  C   UNL     1       7.699   6.598  17.936  0.00  0.00    +0.000 A 
ATOM      2  N   UNL     1       7.654   6.468  16.645  0.00  0.00    +0.000 NA
ATOM      3  C   UNL     1       6.906   5.404  16.119  0.00  0.00    +0.000 A 
ATOM      4  C   UNL     1       6.996   5.188  14.739  0.00  0.00    +0.000 A 
ATOM      5  C   UNL     1       6.256   4.179  14.113  0.00  0.00    +0.000 A 
ATOM      6  C   UNL     1       5.392   3.401  14.890  0.00  0.00    +0.000 A 
ATOM      7  C   UNL     1       5.295   3.607  16.270  0.00  0.00    +0.000 A 
ATOM      8  C   UNL     1       6.069   4.587  16.904  0.00  0.00    +0.000 A 
ATOM      9  N   UNL     1       6.100   4.741  18.321  0.00  0.00    +0.000 N 
ATOM     10  C   UNL     1       7.024   5.612  18.888  0.00  0.00    +0.000 A 
ATOM     11  O   UNL     1       7.310   5.661  20.078  0.00  0.00    +0.000 OA
ENDROOT
BRANCH   5  12
ATOM     12  C   UNL     1       6.382   3.924  12.634  0.00  0.00    +0.000 C 
ATOM     13  F   UNL     1       5.217   4.093  11.949  0.00  0.00    +0.000 F 
ATOM     14  F   UNL     1       7.285   4.755  12.042  0.00  0.00    +0.000 F 
ATOM     15  F   UNL     1       6.800   2.659  12.358  0.00  0.00    +0.000 F 
ENDBRANCH   5  12
BRANCH   1  16
ATOM     16  C   UNL     1       8.407   7.771  18.584  0.00  0.00    +0.000 C 
BRANCH  16  17
ATOM     17  C   UNL     1       8.086   9.134  17.971  0.00  0.00    +0.000 C 
BRANCH  17  19
ATOM     18  O   UNL     1       9.858  10.733  17.580  0.00  0.00    +0.000 OA
ATOM     19  C   UNL     1       9.124  10.164  18.374  0.00  0.00    +0.000 C 
ATOM     20  N   UNL     1       9.170  10.392  19.733  0.00  0.00    +0.000 N 
ATOM     21  H   UNL     1       8.601   9.834  20.353  0.00  0.00    +0.000 HD
BRANCH  20  22
ATOM     22  C   UNL     1      10.146  11.289  20.327  0.00  0.00    +0.000 C 
BRANCH  22  23
ATOM     23  C   UNL     1       9.772  12.713  20.041  0.00  0.00    +0.000 A 
ATOM     24  C   UNL     1       8.510  13.214  20.382  0.00  0.00    +0.000 A 
ATOM     25  C   UNL     1       8.159  14.509  20.018  0.00  0.00    +0.000 A 
ATOM     26  C   UNL     1       9.092  15.274  19.339  0.00  0.00    +0.000 A 
ATOM     27  N   UNL     1      10.332  14.842  19.027  0.00  0.00    +0.000 NA
ATOM     28  C   UNL     1      10.646  13.577  19.388  0.00  0.00    +0.000 A 
ENDBRANCH  22  23
ENDBRANCH  20  22
ENDBRANCH  17  19
ENDBRANCH  16  17
ENDBRANCH   1  16
BRANCH   9  29
ATOM     29  C   UNL     1       5.234   3.963  19.211  0.00  0.00    +0.000 C 
BRANCH  29  30
ATOM     30  C   UNL     1       3.928   4.679  19.501  0.00  0.00    +0.000 A 
ATOM     31  C   UNL     1       3.723   5.999  19.069  0.00  0.00    +0.000 A 
ATOM     32  C   UNL     1       2.596   6.714  19.483  0.00  0.00    +0.000 A 
ATOM     33  C   UNL     1       1.646   6.110  20.301  0.00  0.00    +0.000 A 
ATOM     34  C   UNL     1       1.792   4.772  20.662  0.00  0.00    +0.000 A 
ATOM     35  C   UNL     1       2.920   4.056  20.254  0.00  0.00    +0.000 A 
ENDBRANCH  29  30
ENDBRANCH   9  29
TORSDOF 8
ENDMDL
MODEL 9
REMARK VINA RESULT:      -9.2      1.010      1.810
REMARK  Name = 
REMARK  8 active torsions:
REMARK  status: ('A' for Active; 'I' for Inactive)
REMARK    1  A    between atoms: C_2  and  C_3
REMARK    2  A    between atoms: C_3  and  C_4
REMARK    3  A    between atoms: C_4  and  C_5
REMARK    4  A    between atoms: C_9  and  C_10
REMARK    5  A    between atoms: N_17  and  C_18
REMARK    6  A    between atoms: C_18  and  C_19
REMARK    7  A    between atoms: N_27  and  C_28
REMARK    8  A    between atoms: C_28  and  C_29
REMARK                            x       y       z     vdW  Elec       q    Type
REMARK                         _______ _______ _______ _____ _____    ______ ____
ROOT
ATOM      1  C   UNL     1       7.535   6.442  17.747  0.00  0.00    +0.000 A 
ATOM      2  N   UNL     1       7.545   6.308  16.456  0.00  0.00    +0.000 NA
ATOM      3  C   UNL     1       6.818   5.244  15.901  0.00  0.00    +0.000 A 
ATOM      4  C   UNL     1       6.966   5.023  14.528  0.00  0.00    +0.000 A 
ATOM      5  C   UNL     1       6.252   4.012  13.874  0.00  0.00    +0.000 A 
ATOM      6  C   UNL     1       5.354   3.238  14.617  0.00  0.00    +0.000 A 
ATOM      7  C   UNL     1       5.199   3.448  15.990  0.00  0.00    +0.000 A 
ATOM      8  C   UNL     1       5.947   4.430  16.653  0.00  0.00    +0.000 A 
ATOM      9  N   UNL     1       5.919   4.588  18.070  0.00  0.00    +0.000 N 
ATOM     10  C   UNL     1       6.819   5.460  18.673  0.00  0.00    +0.000 A 
ATOM     11  O   UNL     1       7.055   5.513  19.873  0.00  0.00    +0.000 OA
ENDROOT
BRANCH   5  12
ATOM     12  C   UNL     1       6.440   3.752  12.402  0.00  0.00    +0.000 C 
ATOM     13  F   UNL     1       6.907   2.503  12.124  0.00  0.00    +0.000 F 
ATOM     14  F   UNL     1       5.279   3.880  11.702  0.00  0.00    +0.000 F 
ATOM     15  F   UNL     1       7.320   4.618  11.830  0.00  0.00    +0.000 F 
ENDBRANCH   5  12
BRANCH   1  16
ATOM     16  C   UNL     1       8.217   7.616  18.421  0.00  0.00    +0.000 C 
BRANCH  16  17
ATOM     17  C   UNL     1       8.407   8.845  17.532  0.00  0.00    +0.000 C 
BRANCH  17  19
ATOM     18  O   UNL     1       8.963  10.092  19.529  0.00  0.00    +0.000 OA
ATOM     19  C   UNL     1       8.571  10.098  18.372  0.00  0.00    +0.000 C 
ATOM     20  N   UNL     1       8.222  11.253  17.705  0.00  0.00    +0.000 N 
ATOM     21  H   UNL     1       7.825  11.195  16.779  0.00  0.00    +0.000 HD
BRANCH  20  22
ATOM     22  C   UNL     1       8.240  12.550  18.359  0.00  0.00    +0.000 C 
BRANCH  22  23
ATOM     23  C   UNL     1       9.644  13.076  18.414  0.00  0.00    +0.000 A 
ATOM     24  C   UNL     1      10.478  13.038  17.291  0.00  0.00    +0.000 A 
ATOM     25  C   UNL     1      11.803  13.444  17.400  0.00  0.00    +0.000 A 
ATOM     26  C   UNL     1      12.250  13.896  18.630  0.00  0.00    +0.000 A 
ATOM     27  N   UNL     1      11.467  13.985  19.727  0.00  0.00    +0.000 NA
ATOM     28  C   UNL     1      10.184  13.579  19.594  0.00  0.00    +0.000 A 
ENDBRANCH  22  23
ENDBRANCH  20  22
ENDBRANCH  17  19
ENDBRANCH  16  17
ENDBRANCH   1  16
BRANCH   9  29
ATOM     29  C   UNL     1       5.015   3.814  18.925  0.00  0.00    +0.000 C 
BRANCH  29  30
ATOM     30  C   UNL     1       3.819   4.632  19.375  0.00  0.00    +0.000 A 
ATOM     31  C   UNL     1       3.481   5.828  18.720  0.00  0.00    +0.000 A 
ATOM     32  C   UNL     1       2.491   6.666  19.239  0.00  0.00    +0.000 A 
ATOM     33  C   UNL     1       1.803   6.304  20.393  0.00  0.00    +0.000 A 
ATOM     34  C   UNL     1       2.065   5.078  21.000  0.00  0.00    +0.000 A 
ATOM     35  C   UNL     1       3.059   4.240  20.488  0.00  0.00    +0.000 A 
ENDBRANCH  29  30
ENDBRANCH   9  29
TORSDOF 8
ENDMDL
