MODEL 1
REMARK VINA RESULT:      -8.7      0.000      0.000
REMARK  Name = 
REMARK  4 active torsions:
REMARK  status: ('A' for Active; 'I' for Inactive)
REMARK    1  A    between atoms: C_4  and  C_5
REMARK    2  A    between atoms: N_7  and  C_8
REMARK    3  A    between atoms: N_12  and  C_13
REMARK    4  A    between atoms: C_13  and  C_14
REMARK                            x       y       z     vdW  Elec       q    Type
REMARK                         _______ _______ _______ _____ _____    ______ ____
ROOT
ATOM      1  C   UNL     1       2.817   5.861  18.182  0.00  0.00    +0.000 C 
ATOM      2  O   UNL     1       1.745   5.284  18.305  0.00  0.00    +0.000 OA
ATOM      3  N   UNL     1       3.031   7.145  18.839  0.00  0.00    +0.000 N 
ATOM      4  H   UNL     1       3.886   7.657  18.655  0.00  0.00    +0.000 HD
ENDROOT
BRANCH   1   8
ATOM      5  O   UNL     1       4.051   2.061  18.931  0.00  0.00    +0.000 OA
ATOM      6  C   UNL     1       4.396   3.168  18.528  0.00  0.00    +0.000 C 
ATOM      7  C   UNL     1       3.856   3.772  17.252  0.00  0.00    +0.000 C 
ATOM      8  C   UNL     1       3.913   5.299  17.279  0.00  0.00    +0.000 C 
ATOM      9  C   UNL     1       5.304   5.730  17.648  0.00  0.00    +0.000 A 
ATOM     10  C   UNL     1       5.929   6.817  17.034  0.00  0.00    +0.000 A 
ATOM     11  C   UNL     1       7.204   7.196  17.448  0.00  0.00    +0.000 A 
ATOM     12  C   UNL     1       7.833   6.520  18.491  0.00  0.00    +0.000 A 
ATOM     13  C   UNL     1       7.207   5.440  19.116  0.00  0.00    +0.000 A 
ATOM     14  C   UNL     1       5.967   5.024  18.667  0.00  0.00    +0.000 A 
ATOM     15  N   UNL     1       5.378   3.873  19.180  0.00  0.00    +0.000 N 
ATOM     16  H   UNL     1       5.813   3.380  19.954  0.00  0.00    +0.000 HD
ENDBRANCH   1   8
BRANCH   3  17
ATOM     17  C   UNL     1       2.087   7.722  19.698  0.00  0.00    +0.000 A 
ATOM     18  C   UNL     1       1.753   7.295  20.966  0.00  0.00    +0.000 A 
ATOM     19  C   UNL     1       0.743   8.162  21.412  0.00  0.00    +0.000 A 
ATOM     20  N   UNL     1       0.455   9.098  20.512  0.00  0.00    +0.000 NA
ATOM     21  N   UNL     1       1.300   8.842  19.485  0.00  0.00    +0.000 N 
BRANCH  21  22
ATOM     22  C   UNL     1       1.147   9.644  18.269  0.00  0.00    +0.000 C 
BRANCH  22  23
ATOM     23  C   UNL     1      -0.204  10.315  18.123  0.00  0.00    +0.000 A 
ATOM     24  C   UNL     1      -1.266   9.679  17.449  0.00  0.00    +0.000 A 
ATOM     25  C   UNL     1      -2.512  10.294  17.307  0.00  0.00    +0.000 A 
ATOM     26  C   UNL     1      -2.709  11.588  17.773  0.00  0.00    +0.000 A 
ATOM     27  C   UNL     1      -1.654  12.270  18.373  0.00  0.00    +0.000 A 
ATOM     28  C   UNL     1      -0.416  11.638  18.558  0.00  0.00    +0.000 A 
ATOM     29 BR   UNL     1       0.935  12.654  19.430  0.00  0.00    +0.000 Br
ENDBRANCH  22  23
ENDBRANCH  21  22
ENDBRANCH   3  17
TORSDOF 4
ENDMDL
MODEL 2
REMARK VINA RESULT:      -8.6      1.143      1.688
REMARK  Name = 
REMARK  4 active torsions:
REMARK  status: ('A' for Active; 'I' for Inactive)
REMARK    1  A    between atoms: C_4  and  C_5
REMARK    2  A    between atoms: N_7  and  C_8
REMARK    3  A    between atoms: N_12  and  C_13
REMARK    4  A    between atoms: C_13  and  C_14
REMARK                            x       y       z     vdW  Elec       q    Type
REMARK                         _______ _______ _______ _____ _____    ______ ____
ROOT
ATOM      1  C   UNL     1       2.825   5.837  18.191  0.00  0.00    +0.000 C 
ATOM      2  O   UNL     1       1.736   5.288  18.289  0.00  0.00    +0.000 OA
ATOM      3  N   UNL     1       3.055   7.118  18.848  0.00  0.00    +0.000 N 
ATOM      4  H   UNL     1       3.927   7.608  18.683  0.00  0.00    +0.000 HD
ENDROOT
BRANCH   1   8
ATOM      5  O   UNL     1       4.077   2.080  19.108  0.00  0.00    +0.000 OA
ATOM      6  C   UNL     1       4.417   3.170  18.660  0.00  0.00    +0.000 C 
ATOM      7  C   UNL     1       3.880   3.716  17.356  0.00  0.00    +0.000 C 
ATOM      8  C   UNL     1       3.928   5.243  17.318  0.00  0.00    +0.000 C 
ATOM      9  C   UNL     1       5.315   5.697  17.674  0.00  0.00    +0.000 A 
ATOM     10  C   UNL     1       5.937   6.761  17.018  0.00  0.00    +0.000 A 
ATOM     11  C   UNL     1       7.208   7.165  17.421  0.00  0.00    +0.000 A 
ATOM     12  C   UNL     1       7.835   6.538  18.495  0.00  0.00    +0.000 A 
ATOM     13  C   UNL     1       7.212   5.483  19.163  0.00  0.00    +0.000 A 
ATOM     14  C   UNL     1       5.977   5.040  18.726  0.00  0.00    +0.000 A 
ATOM     15  N   UNL     1       5.392   3.908  19.286  0.00  0.00    +0.000 N 
ATOM     16  H   UNL     1       5.826   3.452  20.082  0.00  0.00    +0.000 HD
ENDBRANCH   1   8
BRANCH   3  17
ATOM     17  C   UNL     1       2.105   7.723  19.681  0.00  0.00    +0.000 A 
ATOM     18  C   UNL     1       1.697   7.286  20.924  0.00  0.00    +0.000 A 
ATOM     19  C   UNL     1       0.713   8.192  21.347  0.00  0.00    +0.000 A 
ATOM     20  N   UNL     1       0.508   9.160  20.457  0.00  0.00    +0.000 NA
ATOM     21  N   UNL     1       1.382   8.884  19.461  0.00  0.00    +0.000 N 
BRANCH  21  22
ATOM     22  C   UNL     1       1.318   9.717  18.258  0.00  0.00    +0.000 C 
BRANCH  22  23
ATOM     23  C   UNL     1       0.823  11.129  18.496  0.00  0.00    +0.000 A 
ATOM     24  C   UNL     1       1.680  12.128  19.000  0.00  0.00    +0.000 A 
ATOM     25  C   UNL     1       1.228  13.431  19.227  0.00  0.00    +0.000 A 
ATOM     26  C   UNL     1      -0.108  13.751  19.021  0.00  0.00    +0.000 A 
ATOM     27  C   UNL     1      -0.994  12.765  18.598  0.00  0.00    +0.000 A 
ATOM     28  C   UNL     1      -0.534  11.469  18.326  0.00  0.00    +0.000 A 
ATOM     29 BR   UNL     1      -1.829  10.219  17.710  0.00  0.00    +0.000 Br
ENDBRANCH  22  23
ENDBRANCH  21  22
ENDBRANCH   3  17
TORSDOF 4
ENDMDL
MODEL 3
REMARK VINA RESULT:      -8.5      2.021      2.705
REMARK  Name = 
REMARK  4 active torsions:
REMARK  status: ('A' for Active; 'I' for Inactive)
REMARK    1  A    between atoms: C_4  and  C_5
REMARK    2  A    between atoms: N_7  and  C_8
REMARK    3  A    between atoms: N_12  and  C_13
REMARK    4  A    between atoms: C_13  and  C_14
REMARK                            x       y       z     vdW  Elec       q    Type
REMARK                         _______ _______ _______ _____ _____    ______ ____
ROOT
ATOM      1  C   UNL     1       2.236   7.903  18.502  0.00  0.00    +0.000 C 
ATOM      2  O   UNL     1       2.186   8.031  19.717  0.00  0.00    +0.000 OA
ATOM      3  N   UNL     1       1.914   9.033  17.638  0.00  0.00    +0.000 N 
ATOM      4  H   UNL     1       1.867   8.891  16.636  0.00  0.00    +0.000 HD
ENDROOT
BRANCH   1   8
ATOM      5  O   UNL     1       1.741   4.613  20.837  0.00  0.00    +0.000 OA
ATOM      6  C   UNL     1       2.393   5.106  19.921  0.00  0.00    +0.000 C 
ATOM      7  C   UNL     1       1.785   5.433  18.576  0.00  0.00    +0.000 C 
ATOM      8  C   UNL     1       2.549   6.551  17.866  0.00  0.00    +0.000 C 
ATOM      9  C   UNL     1       4.010   6.201  17.836  0.00  0.00    +0.000 A 
ATOM     10  C   UNL     1       4.806   6.448  16.716  0.00  0.00    +0.000 A 
ATOM     11  C   UNL     1       6.165   6.142  16.762  0.00  0.00    +0.000 A 
ATOM     12  C   UNL     1       6.730   5.630  17.929  0.00  0.00    +0.000 A 
ATOM     13  C   UNL     1       5.939   5.394  19.054  0.00  0.00    +0.000 A 
ATOM     14  C   UNL     1       4.580   5.640  18.992  0.00  0.00    +0.000 A 
ATOM     15  N   UNL     1       3.747   5.291  20.051  0.00  0.00    +0.000 N 
ATOM     16  H   UNL     1       4.145   4.937  20.915  0.00  0.00    +0.000 HD
ENDBRANCH   1   8
BRANCH   3  17
ATOM     17  C   UNL     1       1.635  10.312  18.137  0.00  0.00    +0.000 A 
ATOM     18  C   UNL     1       2.502  11.383  18.200  0.00  0.00    +0.000 A 
ATOM     19  C   UNL     1       1.783  12.425  18.805  0.00  0.00    +0.000 A 
ATOM     20  N   UNL     1       0.535  12.070  19.097  0.00  0.00    +0.000 NA
ATOM     21  N   UNL     1       0.444  10.792  18.658  0.00  0.00    +0.000 N 
BRANCH  21  22
ATOM     22  C   UNL     1      -0.796  10.067  18.944  0.00  0.00    +0.000 C 
BRANCH  22  23
ATOM     23  C   UNL     1      -1.918  10.325  17.958  0.00  0.00    +0.000 A 
ATOM     24  C   UNL     1      -1.944   9.689  16.700  0.00  0.00    +0.000 A 
ATOM     25  C   UNL     1      -2.972   9.927  15.784  0.00  0.00    +0.000 A 
ATOM     26  C   UNL     1      -3.963  10.857  16.072  0.00  0.00    +0.000 A 
ATOM     27  C   UNL     1      -3.918  11.558  17.275  0.00  0.00    +0.000 A 
ATOM     28  C   UNL     1      -2.914  11.288  18.214  0.00  0.00    +0.000 A 
ATOM     29 BR   UNL     1      -2.982  12.275  19.839  0.00  0.00    +0.000 Br
ENDBRANCH  22  23
ENDBRANCH  21  22
ENDBRANCH   3  17
TORSDOF 4
ENDMDL
MODEL 4
REMARK VINA RESULT:      -8.3      1.013      1.113
REMARK  Name = 
REMARK  4 active torsions:
REMARK  status: ('A' for Active; 'I' for Inactive)
REMARK    1  A    between atoms: C_4  and  C_5
REMARK    2  A    between atoms: N_7  and  C_8
REMARK    3  A    between atoms: N_12  and  C_13
REMARK    4  A    between atoms: C_13  and  C_14
REMARK                            x       y       z     vdW  Elec       q    Type
REMARK                         _______ _______ _______ _____ _____    ______ ____
ROOT
ATOM      1  C   UNL     1       2.457   6.492  19.092  0.00  0.00    +0.000 C 
ATOM      2  O   UNL     1       2.060   5.840  20.048  0.00  0.00    +0.000 OA
ATOM      3  N   UNL     1       2.162   7.918  19.012  0.00  0.00    +0.000 N 
ATOM      4  H   UNL     1       2.414   8.427  18.173  0.00  0.00    +0.000 HD
ENDROOT
BRANCH   1   8
ATOM      5  O   UNL     1       3.173   2.505  19.428  0.00  0.00    +0.000 OA
ATOM      6  C   UNL     1       3.591   3.566  18.976  0.00  0.00    +0.000 C 
ATOM      7  C   UNL     1       2.868   4.327  17.888  0.00  0.00    +0.000 C 
ATOM      8  C   UNL     1       3.188   5.820  17.932  0.00  0.00    +0.000 C 
ATOM      9  C   UNL     1       4.680   6.000  17.950  0.00  0.00    +0.000 A 
ATOM     10  C   UNL     1       5.312   7.010  17.223  0.00  0.00    +0.000 A 
ATOM     11  C   UNL     1       6.694   7.155  17.312  0.00  0.00    +0.000 A 
ATOM     12  C   UNL     1       7.434   6.324  18.151  0.00  0.00    +0.000 A 
ATOM     13  C   UNL     1       6.805   5.320  18.889  0.00  0.00    +0.000 A 
ATOM     14  C   UNL     1       5.441   5.135  18.756  0.00  0.00    +0.000 A 
ATOM     15  N   UNL     1       4.807   4.063  19.376  0.00  0.00    +0.000 N 
ATOM     16  H   UNL     1       5.328   3.460  20.006  0.00  0.00    +0.000 HD
ENDBRANCH   1   8
BRANCH   3  17
ATOM     17  C   UNL     1       1.513   8.616  20.039  0.00  0.00    +0.000 A 
ATOM     18  C   UNL     1       1.383   8.220  21.353  0.00  0.00    +0.000 A 
ATOM     19  C   UNL     1       0.631   9.223  21.985  0.00  0.00    +0.000 A 
ATOM     20  N   UNL     1       0.312  10.209  21.151  0.00  0.00    +0.000 NA
ATOM     21  N   UNL     1       0.880   9.846  19.977  0.00  0.00    +0.000 N 
BRANCH  21  22
ATOM     22  C   UNL     1       0.607  10.685  18.807  0.00  0.00    +0.000 C 
BRANCH  22  23
ATOM     23  C   UNL     1      -0.844  10.703  18.371  0.00  0.00    +0.000 A 
ATOM     24  C   UNL     1      -1.365   9.703  17.525  0.00  0.00    +0.000 A 
ATOM     25  C   UNL     1      -2.700   9.717  17.115  0.00  0.00    +0.000 A 
ATOM     26  C   UNL     1      -3.532  10.766  17.483  0.00  0.00    +0.000 A 
ATOM     27  C   UNL     1      -3.024  11.809  18.253  0.00  0.00    +0.000 A 
ATOM     28  C   UNL     1      -1.697  11.774  18.704  0.00  0.00    +0.000 A 
ATOM     29 BR   UNL     1      -1.129  13.231  19.787  0.00  0.00    +0.000 Br
ENDBRANCH  22  23
ENDBRANCH  21  22
ENDBRANCH   3  17
TORSDOF 4
ENDMDL
MODEL 5
REMARK VINA RESULT:      -7.8      1.200      1.240
REMARK  Name = 
REMARK  4 active torsions:
REMARK  status: ('A' for Active; 'I' for Inactive)
REMARK    1  A    between atoms: C_4  and  C_5
REMARK    2  A    between atoms: N_7  and  C_8
REMARK    3  A    between atoms: N_12  and  C_13
REMARK    4  A    between atoms: C_13  and  C_14
REMARK                            x       y       z     vdW  Elec       q    Type
REMARK                         _______ _______ _______ _____ _____    ______ ____
ROOT
ATOM      1  C   UNL     1       3.194   5.954  18.778  0.00  0.00    +0.000 C 
ATOM      2  O   UNL     1       4.032   6.131  19.652  0.00  0.00    +0.000 OA
ATOM      3  N   UNL     1       1.923   6.667  18.834  0.00  0.00    +0.000 N 
ATOM      4  H   UNL     1       1.202   6.443  18.158  0.00  0.00    +0.000 HD
ENDROOT
BRANCH   1   8
ATOM      5  O   UNL     1       4.142   2.171  19.924  0.00  0.00    +0.000 OA
ATOM      6  C   UNL     1       4.300   3.029  19.060  0.00  0.00    +0.000 C 
ATOM      7  C   UNL     1       3.171   3.515  18.181  0.00  0.00    +0.000 C 
ATOM      8  C   UNL     1       3.422   4.932  17.667  0.00  0.00    +0.000 C 
ATOM      9  C   UNL     1       4.786   4.989  17.039  0.00  0.00    +0.000 A 
ATOM     10  C   UNL     1       5.030   5.705  15.866  0.00  0.00    +0.000 A 
ATOM     11  C   UNL     1       6.325   5.758  15.354  0.00  0.00    +0.000 A 
ATOM     12  C   UNL     1       7.372   5.134  16.029  0.00  0.00    +0.000 A 
ATOM     13  C   UNL     1       7.134   4.427  17.209  0.00  0.00    +0.000 A 
ATOM     14  C   UNL     1       5.841   4.323  17.687  0.00  0.00    +0.000 A 
ATOM     15  N   UNL     1       5.554   3.518  18.785  0.00  0.00    +0.000 N 
ATOM     16  H   UNL     1       6.308   3.073  19.300  0.00  0.00    +0.000 HD
ENDBRANCH   1   8
BRANCH   3  17
ATOM     17  C   UNL     1       1.640   7.635  19.807  0.00  0.00    +0.000 A 
ATOM     18  C   UNL     1       1.556   7.439  21.169  0.00  0.00    +0.000 A 
ATOM     19  C   UNL     1       1.218   8.686  21.718  0.00  0.00    +0.000 A 
ATOM     20  N   UNL     1       1.110   9.629  20.786  0.00  0.00    +0.000 NA
ATOM     21  N   UNL     1       1.399   8.987  19.629  0.00  0.00    +0.000 N 
BRANCH  21  22
ATOM     22  C   UNL     1       1.250   9.743  18.383  0.00  0.00    +0.000 C 
BRANCH  22  23
ATOM     23  C   UNL     1      -0.119  10.360  18.181  0.00  0.00    +0.000 A 
ATOM     24  C   UNL     1      -1.178   9.618  17.619  0.00  0.00    +0.000 A 
ATOM     25  C   UNL     1      -2.442  10.183  17.425  0.00  0.00    +0.000 A 
ATOM     26  C   UNL     1      -2.661  11.522  17.724  0.00  0.00    +0.000 A 
ATOM     27  C   UNL     1      -1.612  12.299  18.207  0.00  0.00    +0.000 A 
ATOM     28  C   UNL     1      -0.356  11.723  18.445  0.00  0.00    +0.000 A 
ATOM     29 BR   UNL     1       0.987  12.873  19.149  0.00  0.00    +0.000 Br
ENDBRANCH  22  23
ENDBRANCH  21  22
ENDBRANCH   3  17
TORSDOF 4
ENDMDL
MODEL 6
REMARK VINA RESULT:      -7.6      2.226      3.325
REMARK  Name = 
REMARK  4 active torsions:
REMARK  status: ('A' for Active; 'I' for Inactive)
REMARK    1  A    between atoms: C_4  and  C_5
REMARK    2  A    between atoms: N_7  and  C_8
REMARK    3  A    between atoms: N_12  and  C_13
REMARK    4  A    between atoms: C_13  and  C_14
REMARK                            x       y       z     vdW  Elec       q    Type
REMARK                         _______ _______ _______ _____ _____    ______ ____
ROOT
ATOM      1  C   UNL     1       2.358   7.848  18.452  0.00  0.00    +0.000 C 
ATOM      2  O   UNL     1       2.351   8.060  19.657  0.00  0.00    +0.000 OA
ATOM      3  N   UNL     1       2.089   8.937  17.521  0.00  0.00    +0.000 N 
ATOM      4  H   UNL     1       2.005   8.731  16.532  0.00  0.00    +0.000 HD
ENDROOT
BRANCH   1   8
ATOM      5  O   UNL     1       1.881   4.772  21.067  0.00  0.00    +0.000 OA
ATOM      6  C   UNL     1       2.487   5.161  20.073  0.00  0.00    +0.000 C 
ATOM      7  C   UNL     1       1.799   5.417  18.751  0.00  0.00    +0.000 C 
ATOM      8  C   UNL     1       2.560   6.437  17.905  0.00  0.00    +0.000 C 
ATOM      9  C   UNL     1       3.997   6.010  17.802  0.00  0.00    +0.000 A 
ATOM     10  C   UNL     1       4.721   6.131  16.614  0.00  0.00    +0.000 A 
ATOM     11  C   UNL     1       6.063   5.759  16.590  0.00  0.00    +0.000 A 
ATOM     12  C   UNL     1       6.687   5.307  17.751  0.00  0.00    +0.000 A 
ATOM     13  C   UNL     1       5.970   5.197  18.944  0.00  0.00    +0.000 A 
ATOM     14  C   UNL     1       4.623   5.508  18.956  0.00  0.00    +0.000 A 
ATOM     15  N   UNL     1       3.854   5.284  20.094  0.00  0.00    +0.000 N 
ATOM     16  H   UNL     1       4.297   4.975  20.954  0.00  0.00    +0.000 HD
ENDBRANCH   1   8
BRANCH   3  17
ATOM     17  C   UNL     1       1.912  10.263  17.937  0.00  0.00    +0.000 A 
ATOM     18  C   UNL     1       2.803  11.304  17.784  0.00  0.00    +0.000 A 
ATOM     19  C   UNL     1       2.201  12.419  18.385  0.00  0.00    +0.000 A 
ATOM     20  N   UNL     1       0.998  12.134  18.876  0.00  0.00    +0.000 NA
ATOM     21  N   UNL     1       0.817  10.827  18.570  0.00  0.00    +0.000 N 
BRANCH  21  22
ATOM     22  C   UNL     1      -0.388  10.173  19.088  0.00  0.00    +0.000 C 
BRANCH  22  23
ATOM     23  C   UNL     1      -0.575  10.294  20.587  0.00  0.00    +0.000 A 
ATOM     24  C   UNL     1      -0.060   9.320  21.467  0.00  0.00    +0.000 A 
ATOM     25  C   UNL     1      -0.234   9.423  22.849  0.00  0.00    +0.000 A 
ATOM     26  C   UNL     1      -0.985  10.462  23.383  0.00  0.00    +0.000 A 
ATOM     27  C   UNL     1      -1.571  11.395  22.531  0.00  0.00    +0.000 A 
ATOM     28  C   UNL     1      -1.360  11.320  21.147  0.00  0.00    +0.000 A 
ATOM     29 BR   UNL     1      -2.173  12.676  20.089  0.00  0.00    +0.000 Br
ENDBRANCH  22  23
ENDBRANCH  21  22
ENDBRANCH   3  17
TORSDOF 4
ENDMDL
MODEL 7
REMARK VINA RESULT:      -7.4      2.411      3.261
REMARK  Name = 
REMARK  4 active torsions:
REMARK  status: ('A' for Active; 'I' for Inactive)
REMARK    1  A    between atoms: C_4  and  C_5
REMARK    2  A    between atoms: N_7  and  C_8
REMARK    3  A    between atoms: N_12  and  C_13
REMARK    4  A    between atoms: C_13  and  C_14
REMARK                            x       y       z     vdW  Elec       q    Type
REMARK                         _______ _______ _______ _____ _____    ______ ____
ROOT
ATOM      1  C   UNL     1       2.341   7.900  18.511  0.00  0.00    +0.000 C 
ATOM      2  O   UNL     1       2.387   8.074  19.721  0.00  0.00    +0.000 OA
ATOM      3  N   UNL     1       2.009   9.012  17.628  0.00  0.00    +0.000 N 
ATOM      4  H   UNL     1       1.883   8.836  16.638  0.00  0.00    +0.000 HD
ENDROOT
BRANCH   1   8
ATOM      5  O   UNL     1       1.808   4.722  20.988  0.00  0.00    +0.000 OA
ATOM      6  C   UNL     1       2.431   5.147  20.020  0.00  0.00    +0.000 C 
ATOM      7  C   UNL     1       1.765   5.463  18.700  0.00  0.00    +0.000 C 
ATOM      8  C   UNL     1       2.545   6.512  17.909  0.00  0.00    +0.000 C 
ATOM      9  C   UNL     1       3.981   6.081  17.809  0.00  0.00    +0.000 A 
ATOM     10  C   UNL     1       4.723   6.246  16.639  0.00  0.00    +0.000 A 
ATOM     11  C   UNL     1       6.063   5.867  16.619  0.00  0.00    +0.000 A 
ATOM     12  C   UNL     1       6.667   5.365  17.770  0.00  0.00    +0.000 A 
ATOM     13  C   UNL     1       5.931   5.210  18.947  0.00  0.00    +0.000 A 
ATOM     14  C   UNL     1       4.586   5.528  18.952  0.00  0.00    +0.000 A 
ATOM     15  N   UNL     1       3.799   5.262  20.067  0.00  0.00    +0.000 N 
ATOM     16  H   UNL     1       4.226   4.915  20.920  0.00  0.00    +0.000 HD
ENDBRANCH   1   8
BRANCH   3  17
ATOM     17  C   UNL     1       1.826  10.320  18.095  0.00  0.00    +0.000 A 
ATOM     18  C   UNL     1       2.645  11.405  17.860  0.00  0.00    +0.000 A 
ATOM     19  C   UNL     1       2.073  12.479  18.558  0.00  0.00    +0.000 A 
ATOM     20  N   UNL     1       0.953  12.128  19.185  0.00  0.00    +0.000 NA
ATOM     21  N   UNL     1       0.794  10.821  18.871  0.00  0.00    +0.000 N 
BRANCH  21  22
ATOM     22  C   UNL     1      -0.308  10.102  19.516  0.00  0.00    +0.000 C 
BRANCH  22  23
ATOM     23  C   UNL     1      -1.012  10.879  20.610  0.00  0.00    +0.000 A 
ATOM     24  C   UNL     1      -1.919  11.913  20.302  0.00  0.00    +0.000 A 
ATOM     25  C   UNL     1      -2.567  12.638  21.306  0.00  0.00    +0.000 A 
ATOM     26  C   UNL     1      -2.274  12.394  22.642  0.00  0.00    +0.000 A 
ATOM     27  C   UNL     1      -1.324  11.432  22.973  0.00  0.00    +0.000 A 
ATOM     28  C   UNL     1      -0.707  10.672  21.969  0.00  0.00    +0.000 A 
ATOM     29 BR   UNL     1       0.541   9.356  22.546  0.00  0.00    +0.000 Br
ENDBRANCH  22  23
ENDBRANCH  21  22
ENDBRANCH   3  17
TORSDOF 4
ENDMDL
MODEL 8
REMARK VINA RESULT:      -7.4      3.332      7.348
REMARK  Name = 
REMARK  4 active torsions:
REMARK  status: ('A' for Active; 'I' for Inactive)
REMARK    1  A    between atoms: C_4  and  C_5
REMARK    2  A    between atoms: N_7  and  C_8
REMARK    3  A    between atoms: N_12  and  C_13
REMARK    4  A    between atoms: C_13  and  C_14
REMARK                            x       y       z     vdW  Elec       q    Type
REMARK                         _______ _______ _______ _____ _____    ______ ____
ROOT
ATOM      1  C   UNL     1       1.330   7.104  20.887  0.00  0.00    +0.000 C 
ATOM      2  O   UNL     1       0.152   6.811  21.037  0.00  0.00    +0.000 OA
ATOM      3  N   UNL     1       2.340   6.054  20.833  0.00  0.00    +0.000 N 
ATOM      4  H   UNL     1       3.319   6.312  20.802  0.00  0.00    +0.000 HD
ENDROOT
BRANCH   1   8
ATOM      5  O   UNL     1       0.203   9.478  23.989  0.00  0.00    +0.000 OA
ATOM      6  C   UNL     1       0.448   9.444  22.787  0.00  0.00    +0.000 C 
ATOM      7  C   UNL     1       1.830   9.156  22.247  0.00  0.00    +0.000 C 
ATOM      8  C   UNL     1       1.776   8.563  20.839  0.00  0.00    +0.000 C 
ATOM      9  C   UNL     1       0.925   9.446  19.970  0.00  0.00    +0.000 A 
ATOM     10  C   UNL     1       1.265   9.728  18.646  0.00  0.00    +0.000 A 
ATOM     11  C   UNL     1       0.415  10.518  17.875  0.00  0.00    +0.000 A 
ATOM     12  C   UNL     1      -0.783  10.988  18.410  0.00  0.00    +0.000 A 
ATOM     13  C   UNL     1      -1.132  10.698  19.730  0.00  0.00    +0.000 A 
ATOM     14  C   UNL     1      -0.262   9.966  20.516  0.00  0.00    +0.000 A 
ATOM     15  N   UNL     1      -0.520   9.772  21.869  0.00  0.00    +0.000 N 
ATOM     16  H   UNL     1      -1.397  10.091  22.270  0.00  0.00    +0.000 HD
ENDBRANCH   1   8
BRANCH   3  17
ATOM     17  C   UNL     1       2.016   4.691  20.851  0.00  0.00    +0.000 A 
ATOM     18  C   UNL     1       2.005   3.857  21.949  0.00  0.00    +0.000 A 
ATOM     19  C   UNL     1       1.655   2.587  21.466  0.00  0.00    +0.000 A 
ATOM     20  N   UNL     1       1.433   2.594  20.154  0.00  0.00    +0.000 NA
ATOM     21  N   UNL     1       1.624   3.885  19.794  0.00  0.00    +0.000 N 
BRANCH  21  22
ATOM     22  C   UNL     1       1.566   4.202  18.365  0.00  0.00    +0.000 C 
BRANCH  22  23
ATOM     23  C   UNL     1       2.877   4.680  17.772  0.00  0.00    +0.000 A 
ATOM     24  C   UNL     1       3.110   6.048  17.525  0.00  0.00    +0.000 A 
ATOM     25  C   UNL     1       4.314   6.494  16.974  0.00  0.00    +0.000 A 
ATOM     26  C   UNL     1       5.287   5.580  16.591  0.00  0.00    +0.000 A 
ATOM     27  C   UNL     1       5.051   4.217  16.751  0.00  0.00    +0.000 A 
ATOM     28  C   UNL     1       3.864   3.770  17.346  0.00  0.00    +0.000 A 
ATOM     29 BR   UNL     1       3.673   1.888  17.552  0.00  0.00    +0.000 Br
ENDBRANCH  22  23
ENDBRANCH  21  22
ENDBRANCH   3  17
TORSDOF 4
ENDMDL
MODEL 9
REMARK VINA RESULT:      -7.4      1.746      2.223
REMARK  Name = 
REMARK  4 active torsions:
REMARK  status: ('A' for Active; 'I' for Inactive)
REMARK    1  A    between atoms: C_4  and  C_5
REMARK    2  A    between atoms: N_7  and  C_8
REMARK    3  A    between atoms: N_12  and  C_13
REMARK    4  A    between atoms: C_13  and  C_14
REMARK                            x       y       z     vdW  Elec       q    Type
REMARK                         _______ _______ _______ _____ _____    ______ ____
ROOT
ATOM      1  C   UNL     1       3.287   6.176  18.295  0.00  0.00    +0.000 C 
ATOM      2  O   UNL     1       4.155   7.023  18.454  0.00  0.00    +0.000 OA
ATOM      3  N   UNL     1       2.045   6.257  19.055  0.00  0.00    +0.000 N 
ATOM      4  H   UNL     1       1.374   5.501  18.985  0.00  0.00    +0.000 HD
ENDROOT
BRANCH   1   8
ATOM      5  O   UNL     1       4.272   2.649  20.061  0.00  0.00    +0.000 OA
ATOM      6  C   UNL     1       4.418   3.348  19.063  0.00  0.00    +0.000 C 
ATOM      7  C   UNL     1       3.278   3.670  18.123  0.00  0.00    +0.000 C 
ATOM      8  C   UNL     1       3.515   4.981  17.374  0.00  0.00    +0.000 C 
ATOM      9  C   UNL     1       4.874   4.939  16.734  0.00  0.00    +0.000 A 
ATOM     10  C   UNL     1       5.105   5.446  15.454  0.00  0.00    +0.000 A 
ATOM     11  C   UNL     1       6.395   5.419  14.929  0.00  0.00    +0.000 A 
ATOM     12  C   UNL     1       7.452   4.926  15.692  0.00  0.00    +0.000 A 
ATOM     13  C   UNL     1       7.227   4.429  16.977  0.00  0.00    +0.000 A 
ATOM     14  C   UNL     1       5.939   4.399  17.477  0.00  0.00    +0.000 A 
ATOM     15  N   UNL     1       5.666   3.791  18.698  0.00  0.00    +0.000 N 
ATOM     16  H   UNL     1       6.426   3.445  19.275  0.00  0.00    +0.000 HD
ENDBRANCH   1   8
BRANCH   3  17
ATOM     17  C   UNL     1       1.747   7.328  19.907  0.00  0.00    +0.000 A 
ATOM     18  C   UNL     1       1.635   7.286  21.281  0.00  0.00    +0.000 A 
ATOM     19  C   UNL     1       1.292   8.587  21.679  0.00  0.00    +0.000 A 
ATOM     20  N   UNL     1       1.206   9.421  20.646  0.00  0.00    +0.000 NA
ATOM     21  N   UNL     1       1.516   8.653  19.575  0.00  0.00    +0.000 N 
BRANCH  21  22
ATOM     22  C   UNL     1       1.395   9.265  18.249  0.00  0.00    +0.000 C 
BRANCH  22  23
ATOM     23  C   UNL     1       1.192  10.766  18.265  0.00  0.00    +0.000 A 
ATOM     24  C   UNL     1       2.289  11.651  18.297  0.00  0.00    +0.000 A 
ATOM     25  C   UNL     1       2.108  13.036  18.317  0.00  0.00    +0.000 A 
ATOM     26  C   UNL     1       0.828  13.572  18.375  0.00  0.00    +0.000 A 
ATOM     27  C   UNL     1      -0.272  12.720  18.423  0.00  0.00    +0.000 A 
ATOM     28  C   UNL     1      -0.095  11.331  18.357  0.00  0.00    +0.000 A 
ATOM     29 BR   UNL     1      -1.675  10.271  18.385  0.00  0.00    +0.000 Br
ENDBRANCH  22  23
ENDBRANCH  21  22
ENDBRANCH   3  17
TORSDOF 4
ENDMDL
