MODEL 1
REMARK VINA RESULT:      -8.9      0.000      0.000
REMARK  Name = 
REMARK  4 active torsions:
REMARK  status: ('A' for Active; 'I' for Inactive)
REMARK    1  A    between atoms: C_1  and  C_2
REMARK    2  A    between atoms: C_6  and  O_7
REMARK    3  A    between atoms: O_7  and  C_8
REMARK    4  A    between atoms: C_11  and  N_12
REMARK                            x       y       z     vdW  Elec       q    Type
REMARK                         _______ _______ _______ _____ _____    ______ ____
ROOT
ATOM      1  N   UNL     1       1.331   9.131  20.031  0.00  0.00    +0.000 N 
ATOM      2  C   UNL     1       0.174   9.427  20.731  0.00  0.00    +0.000 C 
ATOM      3  O   UNL     1      -0.629   8.556  21.103  0.00  0.00    +0.000 OA
ATOM      4  N   UNL     1      -0.010  10.804  21.109  0.00  0.00    +0.000 N 
ATOM      5  C   UNL     1       1.048  11.734  20.735  0.00  0.00    +0.000 C 
ATOM      6  C   UNL     1       0.934  13.228  20.828  0.00  0.00    +0.000 C 
ATOM      7  C   UNL     1       0.135  13.833  21.941  0.00  0.00    +0.000 C 
ATOM      8  C   UNL     1      -1.096  13.427  22.744  0.00  0.00    +0.000 A 
ATOM      9  C   UNL     1      -1.796  14.494  23.393  0.00  0.00    +0.000 A 
ATOM     10  C   UNL     1      -2.971  14.264  24.093  0.00  0.00    +0.000 A 
ATOM     11  C   UNL     1      -3.448  12.966  24.175  0.00  0.00    +0.000 A 
ATOM     12  C   UNL     1      -2.737  11.912  23.571  0.00  0.00    +0.000 A 
ATOM     13  C   UNL     1      -1.541  12.118  22.836  0.00  0.00    +0.000 A 
ATOM     14  C   UNL     1      -0.737  10.906  22.399  0.00  0.00    +0.000 C 
ATOM     15  H   UNL     1       1.900   9.891  19.691  0.00  0.00    +0.000 HD
ENDROOT
BRANCH   1  19
ATOM     16  C   UNL     1       3.060   5.388  18.992  0.00  0.00    +0.000 A 
ATOM     17  C   UNL     1       2.459   5.551  20.240  0.00  0.00    +0.000 A 
ATOM     18  C   UNL     1       1.865   6.770  20.596  0.00  0.00    +0.000 A 
ATOM     19  C   UNL     1       1.885   7.856  19.725  0.00  0.00    +0.000 A 
ATOM     20  C   UNL     1       2.517   7.702  18.484  0.00  0.00    +0.000 A 
ATOM     21  C   UNL     1       3.104   6.480  18.124  0.00  0.00    +0.000 A 
BRANCH  16  22
ATOM     22  O   UNL     1       3.726   4.262  18.575  0.00  0.00    +0.000 OA
BRANCH  22  28
ATOM     23  C   UNL     1       6.099   3.938  14.488  0.00  0.00    +0.000 C 
ATOM     24  C   UNL     1       6.120   4.206  15.965  0.00  0.00    +0.000 A 
ATOM     25  C   UNL     1       7.312   4.474  16.618  0.00  0.00    +0.000 A 
ATOM     26  C   UNL     1       7.222   4.672  17.967  0.00  0.00    +0.000 A 
ATOM     27  N   UNL     1       6.076   4.613  18.660  0.00  0.00    +0.000 NA
ATOM     28  C   UNL     1       4.961   4.375  17.943  0.00  0.00    +0.000 A 
ATOM     29  N   UNL     1       4.938   4.153  16.615  0.00  0.00    +0.000 NA
ENDBRANCH  22  28
ENDBRANCH  16  22
ENDBRANCH   1  19
TORSDOF 3
ENDMDL
MODEL 2
REMARK VINA RESULT:      -8.7      0.444      1.376
REMARK  Name = 
REMARK  4 active torsions:
REMARK  status: ('A' for Active; 'I' for Inactive)
REMARK    1  A    between atoms: C_1  and  C_2
REMARK    2  A    between atoms: C_6  and  O_7
REMARK    3  A    between atoms: O_7  and  C_8
REMARK    4  A    between atoms: C_11  and  N_12
REMARK                            x       y       z     vdW  Elec       q    Type
REMARK                         _______ _______ _______ _____ _____    ______ ____
ROOT
ATOM      1  N   UNL     1       1.231   9.282  20.042  0.00  0.00    +0.000 N 
ATOM      2  C   UNL     1       0.065   9.590  20.721  0.00  0.00    +0.000 C 
ATOM      3  O   UNL     1      -0.775   8.732  21.038  0.00  0.00    +0.000 OA
ATOM      4  N   UNL     1      -0.086  10.957  21.146  0.00  0.00    +0.000 N 
ATOM      5  C   UNL     1       1.010  11.866  20.837  0.00  0.00    +0.000 C 
ATOM      6  C   UNL     1       0.941  13.358  20.983  0.00  0.00    +0.000 C 
ATOM      7  C   UNL     1       0.131  13.947  22.096  0.00  0.00    +0.000 C 
ATOM      8  C   UNL     1      -1.135  13.552  22.848  0.00  0.00    +0.000 A 
ATOM      9  C   UNL     1      -1.819  14.616  23.518  0.00  0.00    +0.000 A 
ATOM     10  C   UNL     1      -3.021  14.400  24.176  0.00  0.00    +0.000 A 
ATOM     11  C   UNL     1      -3.541  13.116  24.196  0.00  0.00    +0.000 A 
ATOM     12  C   UNL     1      -2.846  12.062  23.573  0.00  0.00    +0.000 A 
ATOM     13  C   UNL     1      -1.624  12.255  22.879  0.00  0.00    +0.000 A 
ATOM     14  C   UNL     1      -0.846  11.035  22.418  0.00  0.00    +0.000 C 
ATOM     15  H   UNL     1       1.833  10.036  19.747  0.00  0.00    +0.000 HD
ENDROOT
BRANCH   1  19
ATOM     16  C   UNL     1       2.853   5.522  18.898  0.00  0.00    +0.000 A 
ATOM     17  C   UNL     1       2.378   5.706  20.197  0.00  0.00    +0.000 A 
ATOM     18  C   UNL     1       1.821   6.931  20.590  0.00  0.00    +0.000 A 
ATOM     19  C   UNL     1       1.754   8.002  19.704  0.00  0.00    +0.000 A 
ATOM     20  C   UNL     1       2.261   7.828  18.409  0.00  0.00    +0.000 A 
ATOM     21  C   UNL     1       2.810   6.600  18.013  0.00  0.00    +0.000 A 
BRANCH  16  22
ATOM     22  O   UNL     1       3.475   4.388  18.436  0.00  0.00    +0.000 OA
BRANCH  22  28
ATOM     23  C   UNL     1       7.934   5.749  19.271  0.00  0.00    +0.000 C 
ATOM     24  C   UNL     1       6.937   5.130  18.336  0.00  0.00    +0.000 A 
ATOM     25  C   UNL     1       7.312   4.736  17.062  0.00  0.00    +0.000 A 
ATOM     26  C   UNL     1       6.320   4.213  16.282  0.00  0.00    +0.000 A 
ATOM     27  N   UNL     1       5.046   4.078  16.678  0.00  0.00    +0.000 NA
ATOM     28  C   UNL     1       4.774   4.458  17.941  0.00  0.00    +0.000 A 
ATOM     29  N   UNL     1       5.672   4.997  18.789  0.00  0.00    +0.000 NA
ENDBRANCH  22  28
ENDBRANCH  16  22
ENDBRANCH   1  19
TORSDOF 3
ENDMDL
MODEL 3
REMARK VINA RESULT:      -8.6      0.785      1.779
REMARK  Name = 
REMARK  4 active torsions:
REMARK  status: ('A' for Active; 'I' for Inactive)
REMARK    1  A    between atoms: C_1  and  C_2
REMARK    2  A    between atoms: C_6  and  O_7
REMARK    3  A    between atoms: O_7  and  C_8
REMARK    4  A    between atoms: C_11  and  N_12
REMARK                            x       y       z     vdW  Elec       q    Type
REMARK                         _______ _______ _______ _____ _____    ______ ____
ROOT
ATOM      1  N   UNL     1       1.122   9.965  19.925  0.00  0.00    +0.000 N 
ATOM      2  C   UNL     1      -0.063  10.131  20.620  0.00  0.00    +0.000 C 
ATOM      3  O   UNL     1      -0.856   9.198  20.829  0.00  0.00    +0.000 OA
ATOM      4  N   UNL     1      -0.293  11.432  21.193  0.00  0.00    +0.000 N 
ATOM      5  C   UNL     1       0.753  12.428  21.000  0.00  0.00    +0.000 C 
ATOM      6  C   UNL     1       0.599  13.888  21.311  0.00  0.00    +0.000 C 
ATOM      7  C   UNL     1      -0.249  14.303  22.473  0.00  0.00    +0.000 C 
ATOM      8  C   UNL     1      -1.495  13.757  23.162  0.00  0.00    +0.000 A 
ATOM      9  C   UNL     1      -2.241  14.700  23.938  0.00  0.00    +0.000 A 
ATOM     10  C   UNL     1      -3.432  14.346  24.554  0.00  0.00    +0.000 A 
ATOM     11  C   UNL     1      -3.880  13.041  24.424  0.00  0.00    +0.000 A 
ATOM     12  C   UNL     1      -3.124  12.104  23.696  0.00  0.00    +0.000 A 
ATOM     13  C   UNL     1      -1.911  12.441  23.042  0.00  0.00    +0.000 A 
ATOM     14  C   UNL     1      -1.063  11.324  22.457  0.00  0.00    +0.000 C 
ATOM     15  H   UNL     1       1.683  10.779  19.723  0.00  0.00    +0.000 HD
ENDROOT
BRANCH   1  19
ATOM     16  C   UNL     1       2.847   6.297  18.643  0.00  0.00    +0.000 A 
ATOM     17  C   UNL     1       2.752   7.366  17.753  0.00  0.00    +0.000 A 
ATOM     18  C   UNL     1       2.205   8.592  18.159  0.00  0.00    +0.000 A 
ATOM     19  C   UNL     1       1.718   8.762  19.452  0.00  0.00    +0.000 A 
ATOM     20  C   UNL     1       1.784   7.677  20.337  0.00  0.00    +0.000 A 
ATOM     21  C   UNL     1       2.339   6.455  19.933  0.00  0.00    +0.000 A 
BRANCH  16  22
ATOM     22  O   UNL     1       3.302   5.041  18.325  0.00  0.00    +0.000 OA
BRANCH  22  28
ATOM     23  C   UNL     1       7.899   5.786  19.188  0.00  0.00    +0.000 C 
ATOM     24  C   UNL     1       6.838   5.237  18.279  0.00  0.00    +0.000 A 
ATOM     25  C   UNL     1       7.174   4.670  17.061  0.00  0.00    +0.000 A 
ATOM     26  C   UNL     1       6.130   4.230  16.298  0.00  0.00    +0.000 A 
ATOM     27  N   UNL     1       4.842   4.328  16.660  0.00  0.00    +0.000 NA
ATOM     28  C   UNL     1       4.606   4.865  17.873  0.00  0.00    +0.000 A 
ATOM     29  N   UNL     1       5.559   5.341  18.698  0.00  0.00    +0.000 NA
ENDBRANCH  22  28
ENDBRANCH  16  22
ENDBRANCH   1  19
TORSDOF 3
ENDMDL
MODEL 4
REMARK VINA RESULT:      -8.6      0.717      1.196
REMARK  Name = 
REMARK  4 active torsions:
REMARK  status: ('A' for Active; 'I' for Inactive)
REMARK    1  A    between atoms: C_1  and  C_2
REMARK    2  A    between atoms: C_6  and  O_7
REMARK    3  A    between atoms: O_7  and  C_8
REMARK    4  A    between atoms: C_11  and  N_12
REMARK                            x       y       z     vdW  Elec       q    Type
REMARK                         _______ _______ _______ _____ _____    ______ ____
ROOT
ATOM      1  N   UNL     1       1.166  10.040  19.819  0.00  0.00    +0.000 N 
ATOM      2  C   UNL     1      -0.019  10.186  20.519  0.00  0.00    +0.000 C 
ATOM      3  O   UNL     1      -0.810   9.248  20.707  0.00  0.00    +0.000 OA
ATOM      4  N   UNL     1      -0.250  11.473  21.124  0.00  0.00    +0.000 N 
ATOM      5  C   UNL     1       0.794  12.475  20.953  0.00  0.00    +0.000 C 
ATOM      6  C   UNL     1       0.638  13.928  21.299  0.00  0.00    +0.000 C 
ATOM      7  C   UNL     1      -0.210  14.313  22.472  0.00  0.00    +0.000 C 
ATOM      8  C   UNL     1      -1.454  13.749  23.148  0.00  0.00    +0.000 A 
ATOM      9  C   UNL     1      -2.201  14.672  23.947  0.00  0.00    +0.000 A 
ATOM     10  C   UNL     1      -3.391  14.301  24.556  0.00  0.00    +0.000 A 
ATOM     11  C   UNL     1      -3.837  12.999  24.396  0.00  0.00    +0.000 A 
ATOM     12  C   UNL     1      -3.080  12.081  23.644  0.00  0.00    +0.000 A 
ATOM     13  C   UNL     1      -1.868  12.435  22.997  0.00  0.00    +0.000 A 
ATOM     14  C   UNL     1      -1.019  11.334  22.385  0.00  0.00    +0.000 C 
ATOM     15  H   UNL     1       1.725  10.859  19.636  0.00  0.00    +0.000 HD
ENDROOT
BRANCH   1  19
ATOM     16  C   UNL     1       2.898   6.406  18.451  0.00  0.00    +0.000 A 
ATOM     17  C   UNL     1       2.775   7.487  17.578  0.00  0.00    +0.000 A 
ATOM     18  C   UNL     1       2.225   8.701  18.013  0.00  0.00    +0.000 A 
ATOM     19  C   UNL     1       1.763   8.849  19.318  0.00  0.00    +0.000 A 
ATOM     20  C   UNL     1       1.857   7.753  20.185  0.00  0.00    +0.000 A 
ATOM     21  C   UNL     1       2.415   6.541  19.753  0.00  0.00    +0.000 A 
BRANCH  16  22
ATOM     22  O   UNL     1       3.359   5.159  18.106  0.00  0.00    +0.000 OA
BRANCH  22  28
ATOM     23  C   UNL     1       6.216   3.952  14.527  0.00  0.00    +0.000 C 
ATOM     24  C   UNL     1       6.065   4.395  15.953  0.00  0.00    +0.000 A 
ATOM     25  C   UNL     1       7.175   4.549  16.767  0.00  0.00    +0.000 A 
ATOM     26  C   UNL     1       6.923   4.926  18.056  0.00  0.00    +0.000 A 
ATOM     27  N   UNL     1       5.695   5.137  18.550  0.00  0.00    +0.000 NA
ATOM     28  C   UNL     1       4.674   4.994  17.683  0.00  0.00    +0.000 A 
ATOM     29  N   UNL     1       4.809   4.614  16.397  0.00  0.00    +0.000 NA
ENDBRANCH  22  28
ENDBRANCH  16  22
ENDBRANCH   1  19
TORSDOF 3
ENDMDL
MODEL 5
REMARK VINA RESULT:      -8.5      2.429     10.796
REMARK  Name = 
REMARK  4 active torsions:
REMARK  status: ('A' for Active; 'I' for Inactive)
REMARK    1  A    between atoms: C_1  and  C_2
REMARK    2  A    between atoms: C_6  and  O_7
REMARK    3  A    between atoms: O_7  and  C_8
REMARK    4  A    between atoms: C_11  and  N_12
REMARK                            x       y       z     vdW  Elec       q    Type
REMARK                         _______ _______ _______ _____ _____    ______ ____
ROOT
ATOM      1  N   UNL     1       1.078   8.895  19.509  0.00  0.00    +0.000 N 
ATOM      2  C   UNL     1       1.790   8.555  18.372  0.00  0.00    +0.000 C 
ATOM      3  O   UNL     1       1.853   9.289  17.372  0.00  0.00    +0.000 OA
ATOM      4  N   UNL     1       2.559   7.339  18.439  0.00  0.00    +0.000 N 
ATOM      5  C   UNL     1       2.523   6.608  19.699  0.00  0.00    +0.000 C 
ATOM      6  C   UNL     1       3.057   5.218  19.887  0.00  0.00    +0.000 C 
ATOM      7  C   UNL     1       4.269   4.789  19.120  0.00  0.00    +0.000 C 
ATOM      8  C   UNL     1       4.864   5.115  17.754  0.00  0.00    +0.000 A 
ATOM      9  C   UNL     1       5.777   4.147  17.226  0.00  0.00    +0.000 A 
ATOM     10  C   UNL     1       6.331   4.292  15.962  0.00  0.00    +0.000 A 
ATOM     11  C   UNL     1       6.000   5.415  15.221  0.00  0.00    +0.000 A 
ATOM     12  C   UNL     1       5.135   6.386  15.758  0.00  0.00    +0.000 A 
ATOM     13  C   UNL     1       4.541   6.259  17.041  0.00  0.00    +0.000 A 
ATOM     14  C   UNL     1       3.790   7.446  17.618  0.00  0.00    +0.000 C 
ATOM     15  H   UNL     1       1.005   8.221  20.255  0.00  0.00    +0.000 HD
ENDROOT
BRANCH   1  19
ATOM     16  C   UNL     1      -1.005  12.504  20.356  0.00  0.00    +0.000 A 
ATOM     17  C   UNL     1       0.207  12.238  20.992  0.00  0.00    +0.000 A 
ATOM     18  C   UNL     1       0.922  11.065  20.713  0.00  0.00    +0.000 A 
ATOM     19  C   UNL     1       0.425  10.122  19.817  0.00  0.00    +0.000 A 
ATOM     20  C   UNL     1      -0.810  10.373  19.203  0.00  0.00    +0.000 A 
ATOM     21  C   UNL     1      -1.520  11.551  19.475  0.00  0.00    +0.000 A 
BRANCH  16  22
ATOM     22  O   UNL     1      -1.811  13.587  20.608  0.00  0.00    +0.000 OA
BRANCH  22  28
ATOM     23  C   UNL     1      -4.203  12.488  24.546  0.00  0.00    +0.000 C 
ATOM     24  C   UNL     1      -4.229  12.857  23.091  0.00  0.00    +0.000 A 
ATOM     25  C   UNL     1      -5.428  12.932  22.402  0.00  0.00    +0.000 A 
ATOM     26  C   UNL     1      -5.337  13.245  21.076  0.00  0.00    +0.000 A 
ATOM     27  N   UNL     1      -4.180  13.468  20.435  0.00  0.00    +0.000 NA
ATOM     28  C   UNL     1      -3.063  13.404  21.187  0.00  0.00    +0.000 A 
ATOM     29  N   UNL     1      -3.040  13.091  22.497  0.00  0.00    +0.000 NA
ENDBRANCH  22  28
ENDBRANCH  16  22
ENDBRANCH   1  19
TORSDOF 3
ENDMDL
MODEL 6
REMARK VINA RESULT:      -8.4      2.082     10.817
REMARK  Name = 
REMARK  4 active torsions:
REMARK  status: ('A' for Active; 'I' for Inactive)
REMARK    1  A    between atoms: C_1  and  C_2
REMARK    2  A    between atoms: C_6  and  O_7
REMARK    3  A    between atoms: O_7  and  C_8
REMARK    4  A    between atoms: C_11  and  N_12
REMARK                            x       y       z     vdW  Elec       q    Type
REMARK                         _______ _______ _______ _____ _____    ______ ____
ROOT
ATOM      1  N   UNL     1       1.589   7.758  20.173  0.00  0.00    +0.000 N 
ATOM      2  C   UNL     1       2.147   7.674  18.910  0.00  0.00    +0.000 C 
ATOM      3  O   UNL     1       2.067   8.591  18.076  0.00  0.00    +0.000 OA
ATOM      4  N   UNL     1       2.930   6.497  18.633  0.00  0.00    +0.000 N 
ATOM      5  C   UNL     1       3.070   5.533  19.716  0.00  0.00    +0.000 C 
ATOM      6  C   UNL     1       3.640   4.153  19.553  0.00  0.00    +0.000 C 
ATOM      7  C   UNL     1       4.743   3.929  18.566  0.00  0.00    +0.000 C 
ATOM      8  C   UNL     1       5.147   4.538  17.228  0.00  0.00    +0.000 A 
ATOM      9  C   UNL     1       5.992   3.726  16.405  0.00  0.00    +0.000 A 
ATOM     10  C   UNL     1       6.370   4.136  15.135  0.00  0.00    +0.000 A 
ATOM     11  C   UNL     1       5.932   5.370  14.681  0.00  0.00    +0.000 A 
ATOM     12  C   UNL     1       5.135   6.185  15.508  0.00  0.00    +0.000 A 
ATOM     13  C   UNL     1       4.720   5.786  16.804  0.00  0.00    +0.000 A 
ATOM     14  C   UNL     1       4.040   6.809  17.699  0.00  0.00    +0.000 C 
ATOM     15  H   UNL     1       1.624   6.948  20.773  0.00  0.00    +0.000 HD
ENDROOT
BRANCH   1  19
ATOM     16  C   UNL     1      -0.291  11.003  22.176  0.00  0.00    +0.000 A 
ATOM     17  C   UNL     1       0.450  11.239  21.018  0.00  0.00    +0.000 A 
ATOM     18  C   UNL     1       1.062  10.182  20.330  0.00  0.00    +0.000 A 
ATOM     19  C   UNL     1       0.969   8.875  20.801  0.00  0.00    +0.000 A 
ATOM     20  C   UNL     1       0.252   8.643  21.982  0.00  0.00    +0.000 A 
ATOM     21  C   UNL     1      -0.368   9.698  22.665  0.00  0.00    +0.000 A 
BRANCH  16  22
ATOM     22  O   UNL     1      -0.870  11.974  22.957  0.00  0.00    +0.000 OA
BRANCH  22  28
ATOM     23  C   UNL     1      -5.246  12.442  24.708  0.00  0.00    +0.000 C 
ATOM     24  C   UNL     1      -4.306  12.597  23.548  0.00  0.00    +0.000 A 
ATOM     25  C   UNL     1      -4.765  13.049  22.321  0.00  0.00    +0.000 A 
ATOM     26  C   UNL     1      -3.834  13.123  21.325  0.00  0.00    +0.000 A 
ATOM     27  N   UNL     1      -2.545  12.782  21.475  0.00  0.00    +0.000 NA
ATOM     28  C   UNL     1      -2.177  12.380  22.707  0.00  0.00    +0.000 A 
ATOM     29  N   UNL     1      -3.016  12.259  23.755  0.00  0.00    +0.000 NA
ENDBRANCH  22  28
ENDBRANCH  16  22
ENDBRANCH   1  19
TORSDOF 3
ENDMDL
MODEL 7
REMARK VINA RESULT:      -8.4      2.151     10.649
REMARK  Name = 
REMARK  4 active torsions:
REMARK  status: ('A' for Active; 'I' for Inactive)
REMARK    1  A    between atoms: C_1  and  C_2
REMARK    2  A    between atoms: C_6  and  O_7
REMARK    3  A    between atoms: O_7  and  C_8
REMARK    4  A    between atoms: C_11  and  N_12
REMARK                            x       y       z     vdW  Elec       q    Type
REMARK                         _______ _______ _______ _____ _____    ______ ____
ROOT
ATOM      1  N   UNL     1       1.497   7.819  20.293  0.00  0.00    +0.000 N 
ATOM      2  C   UNL     1       2.076   7.747  19.039  0.00  0.00    +0.000 C 
ATOM      3  O   UNL     1       2.025   8.678  18.219  0.00  0.00    +0.000 OA
ATOM      4  N   UNL     1       2.848   6.564  18.758  0.00  0.00    +0.000 N 
ATOM      5  C   UNL     1       2.955   5.580  19.827  0.00  0.00    +0.000 C 
ATOM      6  C   UNL     1       3.508   4.196  19.653  0.00  0.00    +0.000 C 
ATOM      7  C   UNL     1       4.627   3.972  18.683  0.00  0.00    +0.000 C 
ATOM      8  C   UNL     1       5.064   4.596  17.362  0.00  0.00    +0.000 A 
ATOM      9  C   UNL     1       5.913   3.786  16.542  0.00  0.00    +0.000 A 
ATOM     10  C   UNL     1       6.320   4.211  15.286  0.00  0.00    +0.000 A 
ATOM     11  C   UNL     1       5.908   5.457  14.844  0.00  0.00    +0.000 A 
ATOM     12  C   UNL     1       5.107   6.270  15.669  0.00  0.00    +0.000 A 
ATOM     13  C   UNL     1       4.662   5.857  16.951  0.00  0.00    +0.000 A 
ATOM     14  C   UNL     1       3.980   6.875  17.849  0.00  0.00    +0.000 C 
ATOM     15  H   UNL     1       1.508   6.999  20.880  0.00  0.00    +0.000 HD
ENDROOT
BRANCH   1  19
ATOM     16  C   UNL     1      -0.377  11.058  22.312  0.00  0.00    +0.000 A 
ATOM     17  C   UNL     1       0.397  11.303  21.179  0.00  0.00    +0.000 A 
ATOM     18  C   UNL     1       1.008  10.248  20.485  0.00  0.00    +0.000 A 
ATOM     19  C   UNL     1       0.881   8.934  20.927  0.00  0.00    +0.000 A 
ATOM     20  C   UNL     1       0.129   8.692  22.085  0.00  0.00    +0.000 A 
ATOM     21  C   UNL     1      -0.490   9.745  22.773  0.00  0.00    +0.000 A 
BRANCH  16  22
ATOM     22  O   UNL     1      -0.959  12.023  23.097  0.00  0.00    +0.000 OA
BRANCH  22  28
ATOM     23  C   UNL     1      -4.447  12.960  20.032  0.00  0.00    +0.000 C 
ATOM     24  C   UNL     1      -4.000  12.800  21.456  0.00  0.00    +0.000 A 
ATOM     25  C   UNL     1      -4.882  13.019  22.502  0.00  0.00    +0.000 A 
ATOM     26  C   UNL     1      -4.364  12.877  23.759  0.00  0.00    +0.000 A 
ATOM     27  N   UNL     1      -3.088  12.555  24.014  0.00  0.00    +0.000 NA
ATOM     28  C   UNL     1      -2.307  12.331  22.939  0.00  0.00    +0.000 A 
ATOM     29  N   UNL     1      -2.711  12.455  21.660  0.00  0.00    +0.000 NA
ENDBRANCH  22  28
ENDBRANCH  16  22
ENDBRANCH   1  19
TORSDOF 3
ENDMDL
MODEL 8
REMARK VINA RESULT:      -8.4      2.444      3.716
REMARK  Name = 
REMARK  4 active torsions:
REMARK  status: ('A' for Active; 'I' for Inactive)
REMARK    1  A    between atoms: C_1  and  C_2
REMARK    2  A    between atoms: C_6  and  O_7
REMARK    3  A    between atoms: O_7  and  C_8
REMARK    4  A    between atoms: C_11  and  N_12
REMARK                            x       y       z     vdW  Elec       q    Type
REMARK                         _______ _______ _______ _____ _____    ______ ____
ROOT
ATOM      1  N   UNL     1       2.867   7.297  19.007  0.00  0.00    +0.000 N 
ATOM      2  C   UNL     1       2.218   8.449  18.599  0.00  0.00    +0.000 C 
ATOM      3  O   UNL     1       2.250   8.860  17.427  0.00  0.00    +0.000 OA
ATOM      4  N   UNL     1       1.400   9.106  19.585  0.00  0.00    +0.000 N 
ATOM      5  C   UNL     1       1.325   8.480  20.898  0.00  0.00    +0.000 C 
ATOM      6  C   UNL     1       0.725   9.129  22.112  0.00  0.00    +0.000 C 
ATOM      7  C   UNL     1      -0.451  10.041  21.949  0.00  0.00    +0.000 C 
ATOM      8  C   UNL     1      -0.943  11.001  20.871  0.00  0.00    +0.000 A 
ATOM      9  C   UNL     1      -1.857  12.012  21.308  0.00  0.00    +0.000 A 
ATOM     10  C   UNL     1      -2.321  12.989  20.439  0.00  0.00    +0.000 A 
ATOM     11  C   UNL     1      -1.899  12.954  19.120  0.00  0.00    +0.000 A 
ATOM     12  C   UNL     1      -1.033  11.934  18.682  0.00  0.00    +0.000 A 
ATOM     13  C   UNL     1      -0.529  10.931  19.550  0.00  0.00    +0.000 A 
ATOM     14  C   UNL     1       0.229   9.760  18.949  0.00  0.00    +0.000 C 
ATOM     15  H   UNL     1       2.865   7.062  19.988  0.00  0.00    +0.000 HD
ENDROOT
BRANCH   1  19
ATOM     16  C   UNL     1       5.033   4.490  16.661  0.00  0.00    +0.000 A 
ATOM     17  C   UNL     1       3.757   4.169  17.122  0.00  0.00    +0.000 A 
ATOM     18  C   UNL     1       3.016   5.087  17.880  0.00  0.00    +0.000 A 
ATOM     19  C   UNL     1       3.548   6.329  18.216  0.00  0.00    +0.000 A 
ATOM     20  C   UNL     1       4.843   6.639  17.780  0.00  0.00    +0.000 A 
ATOM     21  C   UNL     1       5.580   5.725  17.014  0.00  0.00    +0.000 A 
BRANCH  16  22
ATOM     22  O   UNL     1       5.863   3.640  15.971  0.00  0.00    +0.000 OA
BRANCH  22  28
ATOM     23  C   UNL     1       5.025   2.903  11.368  0.00  0.00    +0.000 C 
ATOM     24  C   UNL     1       5.846   3.575  12.430  0.00  0.00    +0.000 A 
ATOM     25  C   UNL     1       6.928   4.370  12.090  0.00  0.00    +0.000 A 
ATOM     26  C   UNL     1       7.626   4.909  13.134  0.00  0.00    +0.000 A 
ATOM     27  N   UNL     1       7.324   4.702  14.424  0.00  0.00    +0.000 NA
ATOM     28  C   UNL     1       6.239   3.941  14.666  0.00  0.00    +0.000 A 
ATOM     29  N   UNL     1       5.490   3.352  13.713  0.00  0.00    +0.000 NA
ENDBRANCH  22  28
ENDBRANCH  16  22
ENDBRANCH   1  19
TORSDOF 3
ENDMDL
MODEL 9
REMARK VINA RESULT:      -8.4      1.441      2.162
REMARK  Name = 
REMARK  4 active torsions:
REMARK  status: ('A' for Active; 'I' for Inactive)
REMARK    1  A    between atoms: C_1  and  C_2
REMARK    2  A    between atoms: C_6  and  O_7
REMARK    3  A    between atoms: O_7  and  C_8
REMARK    4  A    between atoms: C_11  and  N_12
REMARK                            x       y       z     vdW  Elec       q    Type
REMARK                         _______ _______ _______ _____ _____    ______ ____
ROOT
ATOM      1  N   UNL     1       1.561   7.740  20.637  0.00  0.00    +0.000 N 
ATOM      2  C   UNL     1       1.239   9.001  20.168  0.00  0.00    +0.000 C 
ATOM      3  O   UNL     1       1.521   9.384  19.020  0.00  0.00    +0.000 OA
ATOM      4  N   UNL     1       0.453   9.829  21.046  0.00  0.00    +0.000 N 
ATOM      5  C   UNL     1       0.064   9.246  22.323  0.00  0.00    +0.000 C 
ATOM      6  C   UNL     1      -0.544  10.020  23.457  0.00  0.00    +0.000 C 
ATOM      7  C   UNL     1      -1.461  11.164  23.153  0.00  0.00    +0.000 C 
ATOM      8  C   UNL     1      -1.580  12.198  22.038  0.00  0.00    +0.000 A 
ATOM      9  C   UNL     1      -2.306  13.387  22.366  0.00  0.00    +0.000 A 
ATOM     10  C   UNL     1      -2.422  14.433  21.463  0.00  0.00    +0.000 A 
ATOM     11  C   UNL     1      -1.839  14.296  20.214  0.00  0.00    +0.000 A 
ATOM     12  C   UNL     1      -1.161  13.109  19.877  0.00  0.00    +0.000 A 
ATOM     13  C   UNL     1      -1.012  12.028  20.785  0.00  0.00    +0.000 A 
ATOM     14  C   UNL     1      -0.449  10.715  20.269  0.00  0.00    +0.000 C 
ATOM     15  H   UNL     1       1.373   7.519  21.603  0.00  0.00    +0.000 HD
ENDROOT
BRANCH   1  19
ATOM     16  C   UNL     1       3.290   4.558  18.409  0.00  0.00    +0.000 A 
ATOM     17  C   UNL     1       2.781   4.314  19.684  0.00  0.00    +0.000 A 
ATOM     18  C   UNL     1       2.188   5.344  20.429  0.00  0.00    +0.000 A 
ATOM     19  C   UNL     1       2.120   6.640  19.926  0.00  0.00    +0.000 A 
ATOM     20  C   UNL     1       2.660   6.892  18.658  0.00  0.00    +0.000 A 
ATOM     21  C   UNL     1       3.244   5.860  17.909  0.00  0.00    +0.000 A 
BRANCH  16  22
ATOM     22  O   UNL     1       3.947   3.638  17.629  0.00  0.00    +0.000 OA
BRANCH  22  28
ATOM     23  C   UNL     1       6.147   3.876  13.442  0.00  0.00    +0.000 C 
ATOM     24  C   UNL     1       6.186   4.104  14.925  0.00  0.00    +0.000 A 
ATOM     25  C   UNL     1       7.335   4.576  15.538  0.00  0.00    +0.000 A 
ATOM     26  C   UNL     1       7.272   4.718  16.895  0.00  0.00    +0.000 A 
ATOM     27  N   UNL     1       6.191   4.424  17.632  0.00  0.00    +0.000 NA
ATOM     28  C   UNL     1       5.108   3.999  16.953  0.00  0.00    +0.000 A 
ATOM     29  N   UNL     1       5.066   3.812  15.619  0.00  0.00    +0.000 NA
ENDBRANCH  22  28
ENDBRANCH  16  22
ENDBRANCH   1  19
TORSDOF 3
ENDMDL
