MODEL 1
REMARK VINA RESULT:      -8.3      0.000      0.000
REMARK  Name = 
REMARK  8 active torsions:
REMARK  status: ('A' for Active; 'I' for Inactive)
REMARK    1  A    between atoms: C_1  and  C_2
REMARK    2  A    between atoms: C_5  and  C_6
REMARK    3  A    between atoms: C_6  and  C_7
REMARK    4  A    between atoms: C_6  and  N_14
REMARK    5  A    between atoms: C_7  and  N_8
REMARK    6  A    between atoms: C_15  and  C_17
REMARK    7  A    between atoms: N_19  and  C_20
REMARK    8  A    between atoms: C_20  and  C_21
REMARK                            x       y       z     vdW  Elec       q    Type
REMARK                         _______ _______ _______ _____ _____    ______ ____
ROOT
ATOM      1  N   UNL     1       1.278   8.746  19.290  0.00  0.00    +0.000 N 
ATOM      2  C   UNL     1       1.862   7.722  20.000  0.00  0.00    +0.000 C 
ATOM      3  O   UNL     1       1.899   7.638  21.218  0.00  0.00    +0.000 OA
ATOM      4  H   UNL     1       1.337   8.690  18.281  0.00  0.00    +0.000 HD
ENDROOT
BRANCH   2   5
ATOM      5  C   UNL     1       2.468   6.610  19.150  0.00  0.00    +0.000 A 
ATOM      6  N   UNL     1       3.388   6.959  18.296  0.00  0.00    +0.000 NA
ATOM      7  N   UNL     1       3.932   5.989  17.473  0.00  0.00    +0.000 N 
ATOM      8  C   UNL     1       3.539   4.653  17.475  0.00  0.00    +0.000 A 
ATOM      9  O   UNL     1       3.987   3.799  16.713  0.00  0.00    +0.000 OA
ATOM     10  C   UNL     1       2.530   4.266  18.478  0.00  0.00    +0.000 A 
ATOM     11  C   UNL     1       2.140   2.921  18.599  0.00  0.00    +0.000 A 
ATOM     12  C   UNL     1       1.218   2.545  19.578  0.00  0.00    +0.000 A 
ATOM     13  C   UNL     1       0.678   3.500  20.424  0.00  0.00    +0.000 A 
ATOM     14  C   UNL     1       1.062   4.836  20.301  0.00  0.00    +0.000 A 
ATOM     15  C   UNL     1       1.993   5.223  19.325  0.00  0.00    +0.000 A 
BRANCH   7  16
ATOM     16  C   UNL     1       4.998   6.415  16.562  0.00  0.00    +0.000 C 
BRANCH  16  17
ATOM     17  C   UNL     1       6.234   6.862  17.304  0.00  0.00    +0.000 A 
ATOM     18  C   UNL     1       6.774   8.145  17.096  0.00  0.00    +0.000 A 
ATOM     19  C   UNL     1       7.924   8.550  17.775  0.00  0.00    +0.000 A 
ATOM     20  C   UNL     1       8.551   7.678  18.670  0.00  0.00    +0.000 A 
ATOM     21  C   UNL     1       8.027   6.403  18.877  0.00  0.00    +0.000 A 
ATOM     22  C   UNL     1       6.882   5.997  18.201  0.00  0.00    +0.000 A 
ENDBRANCH  16  17
ENDBRANCH   7  16
ENDBRANCH   2   5
BRANCH   1  23
ATOM     23  C   UNL     1       0.669   9.924  19.926  0.00  0.00    +0.000 C 
BRANCH  23  28
ATOM     24  C   UNL     1       3.311  14.854  18.110  0.00  0.00    +0.000 C 
ATOM     25  C   UNL     1       2.576  13.618  18.529  0.00  0.00    +0.000 A 
ATOM     26  C   UNL     1       2.680  12.446  17.787  0.00  0.00    +0.000 A 
ATOM     27  C   UNL     1       2.039  11.283  18.215  0.00  0.00    +0.000 A 
ATOM     28  C   UNL     1       1.303  11.231  19.414  0.00  0.00    +0.000 A 
ATOM     29  C   UNL     1       1.153  12.439  20.117  0.00  0.00    +0.000 A 
ATOM     30  C   UNL     1       1.798  13.611  19.689  0.00  0.00    +0.000 A 
ENDBRANCH  23  28
BRANCH  23  31
ATOM     31  C   UNL     1      -0.913   9.919  19.884  0.00  0.00    +0.000 C 
BRANCH  31  32
ATOM     32  N   UNL     1      -1.545  10.565  18.716  0.00  0.00    +0.000 NA
ATOM     33  C   UNL     1      -1.660   9.705  17.527  0.00  0.00    +0.000 C 
ATOM     34  C   UNL     1      -2.283  10.486  16.356  0.00  0.00    +0.000 C 
ATOM     35  O   UNL     1      -3.563  11.032  16.704  0.00  0.00    +0.000 OA
ATOM     36  C   UNL     1      -3.430  11.892  17.844  0.00  0.00    +0.000 C 
ATOM     37  C   UNL     1      -2.865  11.128  19.050  0.00  0.00    +0.000 C 
ENDBRANCH  31  32
ENDBRANCH  23  31
ENDBRANCH   1  23
TORSDOF 7
ENDMDL
MODEL 2
REMARK VINA RESULT:      -8.2      2.011      3.395
REMARK  Name = 
REMARK  8 active torsions:
REMARK  status: ('A' for Active; 'I' for Inactive)
REMARK    1  A    between atoms: C_1  and  C_2
REMARK    2  A    between atoms: C_5  and  C_6
REMARK    3  A    between atoms: C_6  and  C_7
REMARK    4  A    between atoms: C_6  and  N_14
REMARK    5  A    between atoms: C_7  and  N_8
REMARK    6  A    between atoms: C_15  and  C_17
REMARK    7  A    between atoms: N_19  and  C_20
REMARK    8  A    between atoms: C_20  and  C_21
REMARK                            x       y       z     vdW  Elec       q    Type
REMARK                         _______ _______ _______ _____ _____    ______ ____
ROOT
ATOM      1  N   UNL     1       1.476   8.766  18.901  0.00  0.00    +0.000 N 
ATOM      2  C   UNL     1       1.900   7.717  19.683  0.00  0.00    +0.000 C 
ATOM      3  O   UNL     1       1.762   7.638  20.895  0.00  0.00    +0.000 OA
ATOM      4  H   UNL     1       1.672   8.702  17.910  0.00  0.00    +0.000 HD
ENDROOT
BRANCH   2   5
ATOM      5  C   UNL     1       2.559   6.570  18.925  0.00  0.00    +0.000 A 
ATOM      6  N   UNL     1       3.521   6.885  18.104  0.00  0.00    +0.000 NA
ATOM      7  N   UNL     1       4.115   5.879  17.361  0.00  0.00    +0.000 N 
ATOM      8  C   UNL     1       3.733   4.542  17.411  0.00  0.00    +0.000 A 
ATOM      9  O   UNL     1       4.227   3.655  16.718  0.00  0.00    +0.000 OA
ATOM     10  C   UNL     1       2.675   4.195  18.378  0.00  0.00    +0.000 A 
ATOM     11  C   UNL     1       2.289   2.854  18.546  0.00  0.00    +0.000 A 
ATOM     12  C   UNL     1       1.319   2.519  19.493  0.00  0.00    +0.000 A 
ATOM     13  C   UNL     1       0.728   3.510  20.259  0.00  0.00    +0.000 A 
ATOM     14  C   UNL     1       1.107   4.842  20.089  0.00  0.00    +0.000 A 
ATOM     15  C   UNL     1       2.086   5.189  19.145  0.00  0.00    +0.000 A 
BRANCH   7  16
ATOM     16  C   UNL     1       5.224   6.270  16.487  0.00  0.00    +0.000 C 
BRANCH  16  17
ATOM     17  C   UNL     1       6.407   6.790  17.268  0.00  0.00    +0.000 A 
ATOM     18  C   UNL     1       7.047   5.984  18.227  0.00  0.00    +0.000 A 
ATOM     19  C   UNL     1       8.133   6.473  18.956  0.00  0.00    +0.000 A 
ATOM     20  C   UNL     1       8.592   7.775  18.736  0.00  0.00    +0.000 A 
ATOM     21  C   UNL     1       7.960   8.583  17.793  0.00  0.00    +0.000 A 
ATOM     22  C   UNL     1       6.878   8.099  17.067  0.00  0.00    +0.000 A 
ENDBRANCH  16  17
ENDBRANCH   7  16
ENDBRANCH   2   5
BRANCH   1  23
ATOM     23  C   UNL     1       0.847   9.978  19.448  0.00  0.00    +0.000 C 
BRANCH  23  28
ATOM     24  C   UNL     1      -4.070  11.485  16.595  0.00  0.00    +0.000 C 
ATOM     25  C   UNL     1      -2.779  11.108  17.254  0.00  0.00    +0.000 A 
ATOM     26  C   UNL     1      -1.943  12.085  17.788  0.00  0.00    +0.000 A 
ATOM     27  C   UNL     1      -0.771  11.722  18.451  0.00  0.00    +0.000 A 
ATOM     28  C   UNL     1      -0.403  10.377  18.641  0.00  0.00    +0.000 A 
ATOM     29  C   UNL     1      -1.222   9.406  18.039  0.00  0.00    +0.000 A 
ATOM     30  C   UNL     1      -2.404   9.768  17.372  0.00  0.00    +0.000 A 
ENDBRANCH  23  28
BRANCH  23  31
ATOM     31  C   UNL     1       0.610   9.917  21.012  0.00  0.00    +0.000 C 
BRANCH  31  32
ATOM     32  N   UNL     1      -0.310  10.924  21.580  0.00  0.00    +0.000 NA
ATOM     33  C   UNL     1      -0.906  10.549  22.873  0.00  0.00    +0.000 C 
ATOM     34  C   UNL     1      -1.882  11.638  23.351  0.00  0.00    +0.000 C 
ATOM     35  O   UNL     1      -1.244  12.918  23.447  0.00  0.00    +0.000 OA
ATOM     36  C   UNL     1      -0.696  13.284  22.173  0.00  0.00    +0.000 C 
ATOM     37  C   UNL     1       0.329  12.246  21.694  0.00  0.00    +0.000 C 
ENDBRANCH  31  32
ENDBRANCH  23  31
ENDBRANCH   1  23
TORSDOF 7
ENDMDL
MODEL 3
REMARK VINA RESULT:      -8.1      0.866      1.621
REMARK  Name = 
REMARK  8 active torsions:
REMARK  status: ('A' for Active; 'I' for Inactive)
REMARK    1  A    between atoms: C_1  and  C_2
REMARK    2  A    between atoms: C_5  and  C_6
REMARK    3  A    between atoms: C_6  and  C_7
REMARK    4  A    between atoms: C_6  and  N_14
REMARK    5  A    between atoms: C_7  and  N_8
REMARK    6  A    between atoms: C_15  and  C_17
REMARK    7  A    between atoms: N_19  and  C_20
REMARK    8  A    between atoms: C_20  and  C_21
REMARK                            x       y       z     vdW  Elec       q    Type
REMARK                         _______ _______ _______ _____ _____    ______ ____
ROOT
ATOM      1  N   UNL     1       1.068   8.626  18.394  0.00  0.00    +0.000 N 
ATOM      2  C   UNL     1       1.759   7.900  19.336  0.00  0.00    +0.000 C 
ATOM      3  O   UNL     1       1.746   8.110  20.539  0.00  0.00    +0.000 OA
ATOM      4  H   UNL     1       1.185   8.346  17.429  0.00  0.00    +0.000 HD
ENDROOT
BRANCH   2   5
ATOM      5  C   UNL     1       2.565   6.728  18.785  0.00  0.00    +0.000 A 
ATOM      6  N   UNL     1       3.535   7.017  17.965  0.00  0.00    +0.000 NA
ATOM      7  N   UNL     1       4.262   5.980  17.406  0.00  0.00    +0.000 N 
ATOM      8  C   UNL     1       4.007   4.632  17.641  0.00  0.00    +0.000 A 
ATOM      9  O   UNL     1       4.621   3.709  17.110  0.00  0.00    +0.000 OA
ATOM     10  C   UNL     1       2.937   4.324  18.607  0.00  0.00    +0.000 A 
ATOM     11  C   UNL     1       2.672   2.989  18.960  0.00  0.00    +0.000 A 
ATOM     12  C   UNL     1       1.689   2.698  19.908  0.00  0.00    +0.000 A 
ATOM     13  C   UNL     1       0.965   3.724  20.492  0.00  0.00    +0.000 A 
ATOM     14  C   UNL     1       1.224   5.049  20.139  0.00  0.00    +0.000 A 
ATOM     15  C   UNL     1       2.215   5.353  19.192  0.00  0.00    +0.000 A 
BRANCH   7  16
ATOM     16  C   UNL     1       5.375   6.351  16.528  0.00  0.00    +0.000 C 
BRANCH  16  17
ATOM     17  C   UNL     1       6.539   6.927  17.297  0.00  0.00    +0.000 A 
ATOM     18  C   UNL     1       7.239   6.146  18.236  0.00  0.00    +0.000 A 
ATOM     19  C   UNL     1       8.307   6.686  18.954  0.00  0.00    +0.000 A 
ATOM     20  C   UNL     1       8.689   8.014  18.744  0.00  0.00    +0.000 A 
ATOM     21  C   UNL     1       7.997   8.797  17.822  0.00  0.00    +0.000 A 
ATOM     22  C   UNL     1       6.932   8.262  17.106  0.00  0.00    +0.000 A 
ENDBRANCH  16  17
ENDBRANCH   7  16
ENDBRANCH   2   5
BRANCH   1  23
ATOM     23  C   UNL     1       0.260   9.811  18.721  0.00  0.00    +0.000 C 
BRANCH  23  28
ATOM     24  C   UNL     1       3.454  14.676  19.572  0.00  0.00    +0.000 C 
ATOM     25  C   UNL     1       2.699  13.395  19.388  0.00  0.00    +0.000 A 
ATOM     26  C   UNL     1       1.853  12.921  20.387  0.00  0.00    +0.000 A 
ATOM     27  C   UNL     1       1.109  11.759  20.184  0.00  0.00    +0.000 A 
ATOM     28  C   UNL     1       1.148  11.045  18.971  0.00  0.00    +0.000 A 
ATOM     29  C   UNL     1       2.056  11.499  17.999  0.00  0.00    +0.000 A 
ATOM     30  C   UNL     1       2.805  12.670  18.199  0.00  0.00    +0.000 A 
ENDBRANCH  23  28
BRANCH  23  31
ATOM     31  C   UNL     1      -0.926  10.069  17.705  0.00  0.00    +0.000 C 
BRANCH  31  32
ATOM     32  N   UNL     1      -2.213  10.500  18.288  0.00  0.00    +0.000 NA
ATOM     33  C   UNL     1      -2.255  11.911  18.706  0.00  0.00    +0.000 C 
ATOM     34  C   UNL     1      -3.616  12.243  19.343  0.00  0.00    +0.000 C 
ATOM     35  O   UNL     1      -4.703  11.952  18.455  0.00  0.00    +0.000 OA
ATOM     36  C   UNL     1      -4.668  10.568  18.081  0.00  0.00    +0.000 C 
ATOM     37  C   UNL     1      -3.343  10.216  17.387  0.00  0.00    +0.000 C 
ENDBRANCH  31  32
ENDBRANCH  23  31
ENDBRANCH   1  23
TORSDOF 7
ENDMDL
MODEL 4
REMARK VINA RESULT:      -8.1      1.716      3.354
REMARK  Name = 
REMARK  8 active torsions:
REMARK  status: ('A' for Active; 'I' for Inactive)
REMARK    1  A    between atoms: C_1  and  C_2
REMARK    2  A    between atoms: C_5  and  C_6
REMARK    3  A    between atoms: C_6  and  C_7
REMARK    4  A    between atoms: C_6  and  N_14
REMARK    5  A    between atoms: C_7  and  N_8
REMARK    6  A    between atoms: C_15  and  C_17
REMARK    7  A    between atoms: N_19  and  C_20
REMARK    8  A    between atoms: C_20  and  C_21
REMARK                            x       y       z     vdW  Elec       q    Type
REMARK                         _______ _______ _______ _____ _____    ______ ____
ROOT
ATOM      1  N   UNL     1       1.321   8.917  18.784  0.00  0.00    +0.000 N 
ATOM      2  C   UNL     1       1.844   7.970  19.634  0.00  0.00    +0.000 C 
ATOM      3  O   UNL     1       1.779   8.002  20.854  0.00  0.00    +0.000 OA
ATOM      4  H   UNL     1       1.464   8.767  17.794  0.00  0.00    +0.000 HD
ENDROOT
BRANCH   2   5
ATOM      5  C   UNL     1       2.521   6.789  18.948  0.00  0.00    +0.000 A 
ATOM      6  N   UNL     1       3.480   7.067  18.111  0.00  0.00    +0.000 NA
ATOM      7  N   UNL     1       4.090   6.027  17.431  0.00  0.00    +0.000 N 
ATOM      8  C   UNL     1       3.727   4.690  17.561  0.00  0.00    +0.000 A 
ATOM      9  O   UNL     1       4.235   3.770  16.924  0.00  0.00    +0.000 OA
ATOM     10  C   UNL     1       2.671   4.387  18.545  0.00  0.00    +0.000 A 
ATOM     11  C   UNL     1       2.304   3.054  18.793  0.00  0.00    +0.000 A 
ATOM     12  C   UNL     1       1.336   2.763  19.757  0.00  0.00    +0.000 A 
ATOM     13  C   UNL     1       0.729   3.789  20.461  0.00  0.00    +0.000 A 
ATOM     14  C   UNL     1       1.091   5.114  20.212  0.00  0.00    +0.000 A 
ATOM     15  C   UNL     1       2.067   5.417  19.250  0.00  0.00    +0.000 A 
BRANCH   7  16
ATOM     16  C   UNL     1       5.197   6.380  16.537  0.00  0.00    +0.000 C 
BRANCH  16  17
ATOM     17  C   UNL     1       6.388   6.919  17.292  0.00  0.00    +0.000 A 
ATOM     18  C   UNL     1       6.830   8.239  17.091  0.00  0.00    +0.000 A 
ATOM     19  C   UNL     1       7.939   8.730  17.783  0.00  0.00    +0.000 A 
ATOM     20  C   UNL     1       8.621   7.906  18.683  0.00  0.00    +0.000 A 
ATOM     21  C   UNL     1       8.195   6.595  18.883  0.00  0.00    +0.000 A 
ATOM     22  C   UNL     1       7.091   6.103  18.195  0.00  0.00    +0.000 A 
ENDBRANCH  16  17
ENDBRANCH   7  16
ENDBRANCH   2   5
BRANCH   1  23
ATOM     23  C   UNL     1       0.659  10.144  19.253  0.00  0.00    +0.000 C 
BRANCH  23  28
ATOM     24  C   UNL     1      -4.398  11.145  16.423  0.00  0.00    +0.000 C 
ATOM     25  C   UNL     1      -3.146  10.833  17.184  0.00  0.00    +0.000 A 
ATOM     26  C   UNL     1      -2.252   9.875  16.717  0.00  0.00    +0.000 A 
ATOM     27  C   UNL     1      -1.061   9.632  17.400  0.00  0.00    +0.000 A 
ATOM     28  C   UNL     1      -0.696  10.356  18.551  0.00  0.00    +0.000 A 
ATOM     29  C   UNL     1      -1.639  11.273  19.047  0.00  0.00    +0.000 A 
ATOM     30  C   UNL     1      -2.838  11.521  18.360  0.00  0.00    +0.000 A 
ENDBRANCH  23  28
BRANCH  23  31
ATOM     31  C   UNL     1       0.590  10.263  20.830  0.00  0.00    +0.000 C 
BRANCH  31  32
ATOM     32  N   UNL     1       0.769  11.615  21.399  0.00  0.00    +0.000 NA
ATOM     33  C   UNL     1       1.462  12.566  20.514  0.00  0.00    +0.000 C 
ATOM     34  C   UNL     1       1.641  13.923  21.218  0.00  0.00    +0.000 C 
ATOM     35  O   UNL     1       0.386  14.465  21.650  0.00  0.00    +0.000 OA
ATOM     36  C   UNL     1      -0.262  13.543  22.536  0.00  0.00    +0.000 C 
ATOM     37  C   UNL     1      -0.510  12.194  21.844  0.00  0.00    +0.000 C 
ENDBRANCH  31  32
ENDBRANCH  23  31
ENDBRANCH   1  23
TORSDOF 7
ENDMDL
MODEL 5
REMARK VINA RESULT:      -8.1      1.918      8.515
REMARK  Name = 
REMARK  8 active torsions:
REMARK  status: ('A' for Active; 'I' for Inactive)
REMARK    1  A    between atoms: C_1  and  C_2
REMARK    2  A    between atoms: C_5  and  C_6
REMARK    3  A    between atoms: C_6  and  C_7
REMARK    4  A    between atoms: C_6  and  N_14
REMARK    5  A    between atoms: C_7  and  N_8
REMARK    6  A    between atoms: C_15  and  C_17
REMARK    7  A    between atoms: N_19  and  C_20
REMARK    8  A    between atoms: C_20  and  C_21
REMARK                            x       y       z     vdW  Elec       q    Type
REMARK                         _______ _______ _______ _____ _____    ______ ____
ROOT
ATOM      1  N   UNL     1       1.927   8.361  19.198  0.00  0.00    +0.000 N 
ATOM      2  C   UNL     1       1.654   9.412  18.354  0.00  0.00    +0.000 C 
ATOM      3  O   UNL     1       2.124   9.562  17.236  0.00  0.00    +0.000 OA
ATOM      4  H   UNL     1       1.475   8.376  20.103  0.00  0.00    +0.000 HD
ENDROOT
BRANCH   2   5
ATOM      5  C   UNL     1       0.652  10.429  18.891  0.00  0.00    +0.000 A 
ATOM      6  N   UNL     1       1.082  11.250  19.807  0.00  0.00    +0.000 NA
ATOM      7  N   UNL     1       0.193  12.158  20.354  0.00  0.00    +0.000 N 
ATOM      8  C   UNL     1      -1.154  12.237  20.010  0.00  0.00    +0.000 A 
ATOM      9  O   UNL     1      -1.956  13.011  20.528  0.00  0.00    +0.000 OA
ATOM     10  C   UNL     1      -1.614  11.333  18.940  0.00  0.00    +0.000 A 
ATOM     11  C   UNL     1      -2.939  11.408  18.479  0.00  0.00    +0.000 A 
ATOM     12  C   UNL     1      -3.364  10.583  17.435  0.00  0.00    +0.000 A 
ATOM     13  C   UNL     1      -2.482   9.682  16.861  0.00  0.00    +0.000 A 
ATOM     14  C   UNL     1      -1.167   9.604  17.322  0.00  0.00    +0.000 A 
ATOM     15  C   UNL     1      -0.728  10.434  18.366  0.00  0.00    +0.000 A 
BRANCH   7  16
ATOM     16  C   UNL     1       0.730  13.095  21.345  0.00  0.00    +0.000 C 
BRANCH  16  17
ATOM     17  C   UNL     1       1.728  14.052  20.740  0.00  0.00    +0.000 A 
ATOM     18  C   UNL     1       3.093  13.974  21.071  0.00  0.00    +0.000 A 
ATOM     19  C   UNL     1       4.010  14.869  20.518  0.00  0.00    +0.000 A 
ATOM     20  C   UNL     1       3.575  15.855  19.628  0.00  0.00    +0.000 A 
ATOM     21  C   UNL     1       2.223  15.944  19.299  0.00  0.00    +0.000 A 
ATOM     22  C   UNL     1       1.307  15.054  19.849  0.00  0.00    +0.000 A 
ENDBRANCH  16  17
ENDBRANCH   7  16
ENDBRANCH   2   5
BRANCH   1  23
ATOM     23  C   UNL     1       2.890   7.297  18.875  0.00  0.00    +0.000 C 
BRANCH  23  28
ATOM     24  C   UNL     1       0.684   1.866  19.359  0.00  0.00    +0.000 C 
ATOM     25  C   UNL     1       1.173   3.277  19.231  0.00  0.00    +0.000 A 
ATOM     26  C   UNL     1       1.361   4.067  20.361  0.00  0.00    +0.000 A 
ATOM     27  C   UNL     1       1.871   5.359  20.239  0.00  0.00    +0.000 A 
ATOM     28  C   UNL     1       2.248   5.902  18.996  0.00  0.00    +0.000 A 
ATOM     29  C   UNL     1       1.990   5.117  17.859  0.00  0.00    +0.000 A 
ATOM     30  C   UNL     1       1.478   3.815  17.979  0.00  0.00    +0.000 A 
ENDBRANCH  23  28
BRANCH  23  31
ATOM     31  C   UNL     1       3.661   7.532  17.513  0.00  0.00    +0.000 C 
BRANCH  31  32
ATOM     32  N   UNL     1       4.894   6.746  17.307  0.00  0.00    +0.000 NA
ATOM     33  C   UNL     1       5.052   6.195  15.951  0.00  0.00    +0.000 C 
ATOM     34  C   UNL     1       6.338   5.355  15.857  0.00  0.00    +0.000 C 
ATOM     35  O   UNL     1       7.496   6.115  16.226  0.00  0.00    +0.000 OA
ATOM     36  C   UNL     1       7.342   6.619  17.560  0.00  0.00    +0.000 C 
ATOM     37  C   UNL     1       6.098   7.512  17.674  0.00  0.00    +0.000 C 
ENDBRANCH  31  32
ENDBRANCH  23  31
ENDBRANCH   1  23
TORSDOF 7
ENDMDL
MODEL 6
REMARK VINA RESULT:      -8.1      1.547      2.300
REMARK  Name = 
REMARK  8 active torsions:
REMARK  status: ('A' for Active; 'I' for Inactive)
REMARK    1  A    between atoms: C_1  and  C_2
REMARK    2  A    between atoms: C_5  and  C_6
REMARK    3  A    between atoms: C_6  and  C_7
REMARK    4  A    between atoms: C_6  and  N_14
REMARK    5  A    between atoms: C_7  and  N_8
REMARK    6  A    between atoms: C_15  and  C_17
REMARK    7  A    between atoms: N_19  and  C_20
REMARK    8  A    between atoms: C_20  and  C_21
REMARK                            x       y       z     vdW  Elec       q    Type
REMARK                         _______ _______ _______ _____ _____    ______ ____
ROOT
ATOM      1  N   UNL     1       1.548   8.970  19.244  0.00  0.00    +0.000 N 
ATOM      2  C   UNL     1       1.752   7.795  19.929  0.00  0.00    +0.000 C 
ATOM      3  O   UNL     1       1.417   7.582  21.084  0.00  0.00    +0.000 OA
ATOM      4  H   UNL     1       1.894   9.008  18.294  0.00  0.00    +0.000 HD
ENDROOT
BRANCH   2   5
ATOM      5  C   UNL     1       2.427   6.687  19.126  0.00  0.00    +0.000 A 
ATOM      6  N   UNL     1       3.341   7.055  18.273  0.00  0.00    +0.000 NA
ATOM      7  N   UNL     1       3.946   6.086  17.491  0.00  0.00    +0.000 N 
ATOM      8  C   UNL     1       3.621   4.733  17.533  0.00  0.00    +0.000 A 
ATOM      9  O   UNL     1       4.123   3.878  16.806  0.00  0.00    +0.000 OA
ATOM     10  C   UNL     1       2.618   4.328  18.535  0.00  0.00    +0.000 A 
ATOM     11  C   UNL     1       2.295   2.970  18.696  0.00  0.00    +0.000 A 
ATOM     12  C   UNL     1       1.379   2.580  19.675  0.00  0.00    +0.000 A 
ATOM     13  C   UNL     1       0.779   3.534  20.481  0.00  0.00    +0.000 A 
ATOM     14  C   UNL     1       1.096   4.883  20.318  0.00  0.00    +0.000 A 
ATOM     15  C   UNL     1       2.021   5.285  19.341  0.00  0.00    +0.000 A 
BRANCH   7  16
ATOM     16  C   UNL     1       5.002   6.536  16.580  0.00  0.00    +0.000 C 
BRANCH  16  17
ATOM     17  C   UNL     1       6.257   6.935  17.318  0.00  0.00    +0.000 A 
ATOM     18  C   UNL     1       6.860   6.058  18.239  0.00  0.00    +0.000 A 
ATOM     19  C   UNL     1       8.014   6.436  18.928  0.00  0.00    +0.000 A 
ATOM     20  C   UNL     1       8.579   7.695  18.707  0.00  0.00    +0.000 A 
ATOM     21  C   UNL     1       7.984   8.572  17.802  0.00  0.00    +0.000 A 
ATOM     22  C   UNL     1       6.835   8.199  17.115  0.00  0.00    +0.000 A 
ENDBRANCH  16  17
ENDBRANCH   7  16
ENDBRANCH   2   5
BRANCH   1  23
ATOM     23  C   UNL     1       0.943  10.164  19.854  0.00  0.00    +0.000 C 
BRANCH  23  28
ATOM     24  C   UNL     1       3.414  15.162  17.984  0.00  0.00    +0.000 C 
ATOM     25  C   UNL     1       2.853  13.870  18.492  0.00  0.00    +0.000 A 
ATOM     26  C   UNL     1       2.289  13.791  19.762  0.00  0.00    +0.000 A 
ATOM     27  C   UNL     1       1.717  12.599  20.205  0.00  0.00    +0.000 A 
ATOM     28  C   UNL     1       1.651  11.452  19.392  0.00  0.00    +0.000 A 
ATOM     29  C   UNL     1       2.284  11.527  18.140  0.00  0.00    +0.000 A 
ATOM     30  C   UNL     1       2.859  12.726  17.689  0.00  0.00    +0.000 A 
ENDBRANCH  23  28
BRANCH  23  31
ATOM     31  C   UNL     1      -0.634  10.214  19.717  0.00  0.00    +0.000 C 
BRANCH  31  32
ATOM     32  N   UNL     1      -1.378  10.791  20.855  0.00  0.00    +0.000 NA
ATOM     33  C   UNL     1      -0.656  10.761  22.138  0.00  0.00    +0.000 C 
ATOM     34  C   UNL     1      -1.534  11.337  23.263  0.00  0.00    +0.000 C 
ATOM     35  O   UNL     1      -1.970  12.670  22.966  0.00  0.00    +0.000 OA
ATOM     36  C   UNL     1      -2.698  12.679  21.730  0.00  0.00    +0.000 C 
ATOM     37  C   UNL     1      -1.829  12.165  20.573  0.00  0.00    +0.000 C 
ENDBRANCH  31  32
ENDBRANCH  23  31
ENDBRANCH   1  23
TORSDOF 7
ENDMDL
MODEL 7
REMARK VINA RESULT:      -8.0      2.301      8.363
REMARK  Name = 
REMARK  8 active torsions:
REMARK  status: ('A' for Active; 'I' for Inactive)
REMARK    1  A    between atoms: C_1  and  C_2
REMARK    2  A    between atoms: C_5  and  C_6
REMARK    3  A    between atoms: C_6  and  C_7
REMARK    4  A    between atoms: C_6  and  N_14
REMARK    5  A    between atoms: C_7  and  N_8
REMARK    6  A    between atoms: C_15  and  C_17
REMARK    7  A    between atoms: N_19  and  C_20
REMARK    8  A    between atoms: C_20  and  C_21
REMARK                            x       y       z     vdW  Elec       q    Type
REMARK                         _______ _______ _______ _____ _____    ______ ____
ROOT
ATOM      1  N   UNL     1       2.669   8.124  19.265  0.00  0.00    +0.000 N 
ATOM      2  C   UNL     1       1.728   8.793  18.516  0.00  0.00    +0.000 C 
ATOM      3  O   UNL     1       1.358   8.473  17.396  0.00  0.00    +0.000 OA
ATOM      4  H   UNL     1       2.887   8.515  20.173  0.00  0.00    +0.000 HD
ENDROOT
BRANCH   2   5
ATOM      5  C   UNL     1       1.102  10.006  19.197  0.00  0.00    +0.000 A 
ATOM      6  N   UNL     1       1.116  11.125  18.530  0.00  0.00    +0.000 NA
ATOM      7  N   UNL     1       0.599  12.260  19.129  0.00  0.00    +0.000 N 
ATOM      8  C   UNL     1       0.086  12.296  20.422  0.00  0.00    +0.000 A 
ATOM      9  O   UNL     1      -0.330  13.313  20.974  0.00  0.00    +0.000 OA
ATOM     10  C   UNL     1       0.036  11.013  21.146  0.00  0.00    +0.000 A 
ATOM     11  C   UNL     1      -0.543  10.949  22.426  0.00  0.00    +0.000 A 
ATOM     12  C   UNL     1      -0.631   9.726  23.093  0.00  0.00    +0.000 A 
ATOM     13  C   UNL     1      -0.138   8.576  22.501  0.00  0.00    +0.000 A 
ATOM     14  C   UNL     1       0.440   8.639  21.232  0.00  0.00    +0.000 A 
ATOM     15  C   UNL     1       0.528   9.862  20.549  0.00  0.00    +0.000 A 
BRANCH   7  16
ATOM     16  C   UNL     1       0.590  13.486  18.326  0.00  0.00    +0.000 C 
BRANCH  16  17
ATOM     17  C   UNL     1       1.830  14.319  18.545  0.00  0.00    +0.000 A 
ATOM     18  C   UNL     1       1.735  15.642  19.014  0.00  0.00    +0.000 A 
ATOM     19  C   UNL     1       2.883  16.413  19.203  0.00  0.00    +0.000 A 
ATOM     20  C   UNL     1       4.142  15.871  18.926  0.00  0.00    +0.000 A 
ATOM     21  C   UNL     1       4.245  14.563  18.455  0.00  0.00    +0.000 A 
ATOM     22  C   UNL     1       3.102  13.794  18.264  0.00  0.00    +0.000 A 
ENDBRANCH  16  17
ENDBRANCH   7  16
ENDBRANCH   2   5
BRANCH   1  23
ATOM     23  C   UNL     1       3.408   6.952  18.773  0.00  0.00    +0.000 C 
BRANCH  23  28
ATOM     24  C   UNL     1       0.412   1.912  19.228  0.00  0.00    +0.000 C 
ATOM     25  C   UNL     1       1.107   3.233  19.104  0.00  0.00    +0.000 A 
ATOM     26  C   UNL     1       1.348   4.016  20.228  0.00  0.00    +0.000 A 
ATOM     27  C   UNL     1       2.047   5.218  20.111  0.00  0.00    +0.000 A 
ATOM     28  C   UNL     1       2.564   5.668  18.882  0.00  0.00    +0.000 A 
ATOM     29  C   UNL     1       2.254   4.900  17.747  0.00  0.00    +0.000 A 
ATOM     30  C   UNL     1       1.553   3.689  17.860  0.00  0.00    +0.000 A 
ENDBRANCH  23  28
BRANCH  23  31
ATOM     31  C   UNL     1       4.063   7.170  17.348  0.00  0.00    +0.000 C 
BRANCH  31  32
ATOM     32  N   UNL     1       5.422   6.623  17.156  0.00  0.00    +0.000 NA
ATOM     33  C   UNL     1       5.997   5.977  18.347  0.00  0.00    +0.000 C 
ATOM     34  C   UNL     1       7.427   5.489  18.057  0.00  0.00    +0.000 C 
ATOM     35  O   UNL     1       7.466   4.596  16.935  0.00  0.00    +0.000 OA
ATOM     36  C   UNL     1       6.932   5.249  15.776  0.00  0.00    +0.000 C 
ATOM     37  C   UNL     1       5.482   5.697  16.012  0.00  0.00    +0.000 C 
ENDBRANCH  31  32
ENDBRANCH  23  31
ENDBRANCH   1  23
TORSDOF 7
ENDMDL
MODEL 8
REMARK VINA RESULT:      -8.0      0.934      1.245
REMARK  Name = 
REMARK  8 active torsions:
REMARK  status: ('A' for Active; 'I' for Inactive)
REMARK    1  A    between atoms: C_1  and  C_2
REMARK    2  A    between atoms: C_5  and  C_6
REMARK    3  A    between atoms: C_6  and  C_7
REMARK    4  A    between atoms: C_6  and  N_14
REMARK    5  A    between atoms: C_7  and  N_8
REMARK    6  A    between atoms: C_15  and  C_17
REMARK    7  A    between atoms: N_19  and  C_20
REMARK    8  A    between atoms: C_20  and  C_21
REMARK                            x       y       z     vdW  Elec       q    Type
REMARK                         _______ _______ _______ _____ _____    ______ ____
ROOT
ATOM      1  N   UNL     1       1.045   8.820  18.459  0.00  0.00    +0.000 N 
ATOM      2  C   UNL     1       1.719   8.078  19.401  0.00  0.00    +0.000 C 
ATOM      3  O   UNL     1       1.682   8.265  20.607  0.00  0.00    +0.000 OA
ATOM      4  H   UNL     1       1.182   8.558  17.491  0.00  0.00    +0.000 HD
ENDROOT
BRANCH   2   5
ATOM      5  C   UNL     1       2.540   6.919  18.844  0.00  0.00    +0.000 A 
ATOM      6  N   UNL     1       3.500   7.223  18.017  0.00  0.00    +0.000 NA
ATOM      7  N   UNL     1       4.239   6.198  17.453  0.00  0.00    +0.000 N 
ATOM      8  C   UNL     1       4.006   4.846  17.689  0.00  0.00    +0.000 A 
ATOM      9  O   UNL     1       4.630   3.933  17.153  0.00  0.00    +0.000 OA
ATOM     10  C   UNL     1       2.947   4.520  18.661  0.00  0.00    +0.000 A 
ATOM     11  C   UNL     1       2.705   3.182  19.015  0.00  0.00    +0.000 A 
ATOM     12  C   UNL     1       1.733   2.875  19.970  0.00  0.00    +0.000 A 
ATOM     13  C   UNL     1       0.997   3.890  20.560  0.00  0.00    +0.000 A 
ATOM     14  C   UNL     1       1.234   5.219  20.205  0.00  0.00    +0.000 A 
ATOM     15  C   UNL     1       2.213   5.538  19.252  0.00  0.00    +0.000 A 
BRANCH   7  16
ATOM     16  C   UNL     1       5.340   6.586  16.567  0.00  0.00    +0.000 C 
BRANCH  16  17
ATOM     17  C   UNL     1       6.512   7.150  17.332  0.00  0.00    +0.000 A 
ATOM     18  C   UNL     1       6.913   8.487  17.152  0.00  0.00    +0.000 A 
ATOM     19  C   UNL     1       8.006   9.001  17.853  0.00  0.00    +0.000 A 
ATOM     20  C   UNL     1       8.712   8.186  18.742  0.00  0.00    +0.000 A 
ATOM     21  C   UNL     1       8.327   6.859  18.920  0.00  0.00    +0.000 A 
ATOM     22  C   UNL     1       7.240   6.344  18.224  0.00  0.00    +0.000 A 
ENDBRANCH  16  17
ENDBRANCH   7  16
ENDBRANCH   2   5
BRANCH   1  23
ATOM     23  C   UNL     1       0.227   9.997  18.793  0.00  0.00    +0.000 C 
BRANCH  23  28
ATOM     24  C   UNL     1       3.770  14.575  19.827  0.00  0.00    +0.000 C 
ATOM     25  C   UNL     1       2.814  13.459  19.537  0.00  0.00    +0.000 A 
ATOM     26  C   UNL     1       2.795  12.847  18.287  0.00  0.00    +0.000 A 
ATOM     27  C   UNL     1       1.943  11.771  18.044  0.00  0.00    +0.000 A 
ATOM     28  C   UNL     1       1.104  11.238  19.041  0.00  0.00    +0.000 A 
ATOM     29  C   UNL     1       1.086  11.909  20.276  0.00  0.00    +0.000 A 
ATOM     30  C   UNL     1       1.944  12.992  20.526  0.00  0.00    +0.000 A 
ENDBRANCH  23  28
BRANCH  23  31
ATOM     31  C   UNL     1      -0.967  10.245  17.783  0.00  0.00    +0.000 C 
BRANCH  31  32
ATOM     32  N   UNL     1      -2.261  10.640  18.375  0.00  0.00    +0.000 NA
ATOM     33  C   UNL     1      -2.298  12.011  18.909  0.00  0.00    +0.000 C 
ATOM     34  C   UNL     1      -3.669  12.304  19.545  0.00  0.00    +0.000 C 
ATOM     35  O   UNL     1      -4.740  12.101  18.614  0.00  0.00    +0.000 OA
ATOM     36  C   UNL     1      -4.710  10.752  18.126  0.00  0.00    +0.000 C 
ATOM     37  C   UNL     1      -3.375  10.445  17.431  0.00  0.00    +0.000 C 
ENDBRANCH  31  32
ENDBRANCH  23  31
ENDBRANCH   1  23
TORSDOF 7
ENDMDL
MODEL 9
REMARK VINA RESULT:      -8.0      1.893      8.499
REMARK  Name = 
REMARK  8 active torsions:
REMARK  status: ('A' for Active; 'I' for Inactive)
REMARK    1  A    between atoms: C_1  and  C_2
REMARK    2  A    between atoms: C_5  and  C_6
REMARK    3  A    between atoms: C_6  and  C_7
REMARK    4  A    between atoms: C_6  and  N_14
REMARK    5  A    between atoms: C_7  and  N_8
REMARK    6  A    between atoms: C_15  and  C_17
REMARK    7  A    between atoms: N_19  and  C_20
REMARK    8  A    between atoms: C_20  and  C_21
REMARK                            x       y       z     vdW  Elec       q    Type
REMARK                         _______ _______ _______ _____ _____    ______ ____
ROOT
ATOM      1  N   UNL     1       2.304   8.629  19.022  0.00  0.00    +0.000 N 
ATOM      2  C   UNL     1       1.430   9.188  18.119  0.00  0.00    +0.000 C 
ATOM      3  O   UNL     1       1.216   8.772  16.991  0.00  0.00    +0.000 OA
ATOM      4  H   UNL     1       2.391   9.092  19.917  0.00  0.00    +0.000 HD
ENDROOT
BRANCH   2   5
ATOM      5  C   UNL     1       0.667  10.407  18.628  0.00  0.00    +0.000 A 
ATOM      6  N   UNL     1       1.356  11.303  19.276  0.00  0.00    +0.000 NA
ATOM      7  N   UNL     1       0.694  12.401  19.795  0.00  0.00    +0.000 N 
ATOM      8  C   UNL     1      -0.680  12.604  19.696  0.00  0.00    +0.000 A 
ATOM      9  O   UNL     1      -1.277  13.555  20.197  0.00  0.00    +0.000 OA
ATOM     10  C   UNL     1      -1.438  11.605  18.921  0.00  0.00    +0.000 A 
ATOM     11  C   UNL     1      -2.816  11.781  18.706  0.00  0.00    +0.000 A 
ATOM     12  C   UNL     1      -3.526  10.859  17.935  0.00  0.00    +0.000 A 
ATOM     13  C   UNL     1      -2.876   9.764  17.390  0.00  0.00    +0.000 A 
ATOM     14  C   UNL     1      -1.509   9.586  17.607  0.00  0.00    +0.000 A 
ATOM     15  C   UNL     1      -0.784  10.511  18.376  0.00  0.00    +0.000 A 
BRANCH   7  16
ATOM     16  C   UNL     1       1.514  13.409  20.474  0.00  0.00    +0.000 C 
BRANCH  16  17
ATOM     17  C   UNL     1       2.095  14.413  19.508  0.00  0.00    +0.000 A 
ATOM     18  C   UNL     1       1.437  15.630  19.252  0.00  0.00    +0.000 A 
ATOM     19  C   UNL     1       1.972  16.550  18.349  0.00  0.00    +0.000 A 
ATOM     20  C   UNL     1       3.171  16.266  17.689  0.00  0.00    +0.000 A 
ATOM     21  C   UNL     1       3.826  15.060  17.931  0.00  0.00    +0.000 A 
ATOM     22  C   UNL     1       3.295  14.141  18.830  0.00  0.00    +0.000 A 
ENDBRANCH  16  17
ENDBRANCH   7  16
ENDBRANCH   2   5
BRANCH   1  23
ATOM     23  C   UNL     1       3.155   7.470  18.709  0.00  0.00    +0.000 C 
BRANCH  23  28
ATOM     24  C   UNL     1       0.539   2.286  19.637  0.00  0.00    +0.000 C 
ATOM     25  C   UNL     1       1.134   3.638  19.394  0.00  0.00    +0.000 A 
ATOM     26  C   UNL     1       1.384   4.505  20.454  0.00  0.00    +0.000 A 
ATOM     27  C   UNL     1       1.991   5.739  20.226  0.00  0.00    +0.000 A 
ATOM     28  C   UNL     1       2.408   6.144  18.944  0.00  0.00    +0.000 A 
ATOM     29  C   UNL     1       2.089   5.288  17.876  0.00  0.00    +0.000 A 
ATOM     30  C   UNL     1       1.479   4.044  18.102  0.00  0.00    +0.000 A 
ENDBRANCH  23  28
BRANCH  23  31
ATOM     31  C   UNL     1       3.862   7.567  17.296  0.00  0.00    +0.000 C 
BRANCH  31  32
ATOM     32  N   UNL     1       5.039   6.699  17.086  0.00  0.00    +0.000 NA
ATOM     33  C   UNL     1       5.152   6.138  15.730  0.00  0.00    +0.000 C 
ATOM     34  C   UNL     1       6.378   5.213  15.631  0.00  0.00    +0.000 C 
ATOM     35  O   UNL     1       7.587   5.894  15.992  0.00  0.00    +0.000 OA
ATOM     36  C   UNL     1       7.474   6.408  17.326  0.00  0.00    +0.000 C 
ATOM     37  C   UNL     1       6.294   7.383  17.445  0.00  0.00    +0.000 C 
ENDBRANCH  31  32
ENDBRANCH  23  31
ENDBRANCH   1  23
TORSDOF 7
ENDMDL
