MODEL 1
REMARK VINA RESULT:      -8.8      0.000      0.000
REMARK  Name = 
REMARK  5 active torsions:
REMARK  status: ('A' for Active; 'I' for Inactive)
REMARK    1  A    between atoms: N_3  and  C_4
REMARK    2  A    between atoms: N_13  and  C_14
REMARK    3  A    between atoms: C_14  and  C_15
REMARK    4  A    between atoms: C_14  and  C_21
REMARK    5  A    between atoms: C_21  and  O_22
REMARK                            x       y       z     vdW  Elec       q    Type
REMARK                         _______ _______ _______ _____ _____    ______ ____
ROOT
ATOM      1  O   UNL     1       8.416   7.372  18.813  0.00  0.00    +0.000 OA
ATOM      2  C   UNL     1       7.881   8.048  17.947  0.00  0.00    +0.000 C 
ATOM      3  N   UNL     1       8.129   9.388  17.689  0.00  0.00    +0.000 N 
ATOM      4  N   UNL     1       6.966   7.498  17.064  0.00  0.00    +0.000 N 
ATOM      5  H   UNL     1       7.557   9.828  16.987  0.00  0.00    +0.000 HD
ATOM      6  H   UNL     1       6.267   8.111  16.676  0.00  0.00    +0.000 HD
ENDROOT
BRANCH   3   7
ATOM      7  C   UNL     1       9.042  10.231  18.383  0.00  0.00    +0.000 A 
ATOM      8  C   UNL     1       9.108  10.304  19.779  0.00  0.00    +0.000 A 
ATOM      9  C   UNL     1       9.985  11.173  20.445  0.00  0.00    +0.000 A 
ATOM     10  C   UNL     1      10.802  11.981  19.657  0.00  0.00    +0.000 A 
ATOM     11  N   UNL     1      11.727  12.936  19.987  0.00  0.00    +0.000 N 
ATOM     12  N   UNL     1      12.328  13.504  18.927  0.00  0.00    +0.000 NA
ATOM     13  C   UNL     1      11.757  12.891  17.885  0.00  0.00    +0.000 A 
ATOM     14  C   UNL     1      10.795  11.930  18.270  0.00  0.00    +0.000 A 
ATOM     15  C   UNL     1       9.915  11.033  17.618  0.00  0.00    +0.000 A 
ATOM     16  H   UNL     1      11.993  13.246  20.914  0.00  0.00    +0.000 HD
ENDBRANCH   3   7
BRANCH   4  17
ATOM     17  C   UNL     1       6.559   6.090  17.210  0.00  0.00    +0.000 C 
BRANCH  17  18
ATOM     18  C   UNL     1       5.210   5.964  17.905  0.00  0.00    +0.000 A 
ATOM     19  C   UNL     1       4.079   6.730  17.584  0.00  0.00    +0.000 A 
ATOM     20  C   UNL     1       2.861   6.523  18.244  0.00  0.00    +0.000 A 
ATOM     21  C   UNL     1       2.756   5.563  19.249  0.00  0.00    +0.000 A 
ATOM     22  C   UNL     1       3.876   4.824  19.611  0.00  0.00    +0.000 A 
ATOM     23  C   UNL     1       5.091   5.028  18.950  0.00  0.00    +0.000 A 
ENDBRANCH  17  18
BRANCH  17  24
ATOM     24  C   UNL     1       6.617   5.447  15.800  0.00  0.00    +0.000 C 
ATOM     25  C   UNL     1       6.341   3.899  15.856  0.00  0.00    +0.000 C 
ATOM     26  C   UNL     1       5.682   4.041  14.472  0.00  0.00    +0.000 C 
ATOM     27  C   UNL     1       5.343   5.495  14.879  0.00  0.00    +0.000 C 
BRANCH  24  28
ATOM     28  O   UNL     1       7.855   5.797  15.113  0.00  0.00    +0.000 OA
ATOM     29  H   UNL     1       8.382   6.245  15.794  0.00  0.00    +0.000 HD
ENDBRANCH  24  28
ENDBRANCH  17  24
ENDBRANCH   4  17
TORSDOF 5
ENDMDL
MODEL 2
REMARK VINA RESULT:      -8.6      0.707      1.224
REMARK  Name = 
REMARK  5 active torsions:
REMARK  status: ('A' for Active; 'I' for Inactive)
REMARK    1  A    between atoms: N_3  and  C_4
REMARK    2  A    between atoms: N_13  and  C_14
REMARK    3  A    between atoms: C_14  and  C_15
REMARK    4  A    between atoms: C_14  and  C_21
REMARK    5  A    between atoms: C_21  and  O_22
REMARK                            x       y       z     vdW  Elec       q    Type
REMARK                         _______ _______ _______ _____ _____    ______ ____
ROOT
ATOM      1  O   UNL     1       8.245   7.211  18.604  0.00  0.00    +0.000 OA
ATOM      2  C   UNL     1       7.603   7.968  17.890  0.00  0.00    +0.000 C 
ATOM      3  N   UNL     1       7.832   9.326  17.728  0.00  0.00    +0.000 N 
ATOM      4  N   UNL     1       6.565   7.506  17.097  0.00  0.00    +0.000 N 
ATOM      5  H   UNL     1       7.173   9.831  17.159  0.00  0.00    +0.000 HD
ATOM      6  H   UNL     1       5.828   8.154  16.871  0.00  0.00    +0.000 HD
ENDROOT
BRANCH   3   7
ATOM      7  C   UNL     1       8.846  10.098  18.362  0.00  0.00    +0.000 A 
ATOM      8  C   UNL     1       9.039  10.116  19.748  0.00  0.00    +0.000 A 
ATOM      9  C   UNL     1      10.015  10.917  20.360  0.00  0.00    +0.000 A 
ATOM     10  C   UNL     1      10.801  11.712  19.528  0.00  0.00    +0.000 A 
ATOM     11  N   UNL     1      11.800  12.608  19.803  0.00  0.00    +0.000 N 
ATOM     12  N   UNL     1      12.333  13.183  18.711  0.00  0.00    +0.000 NA
ATOM     13  C   UNL     1      11.641  12.636  17.706  0.00  0.00    +0.000 A 
ATOM     14  C   UNL     1      10.668  11.711  18.146  0.00  0.00    +0.000 A 
ATOM     15  C   UNL     1       9.688  10.883  17.548  0.00  0.00    +0.000 A 
ATOM     16  H   UNL     1      12.162  12.870  20.712  0.00  0.00    +0.000 HD
ENDBRANCH   3   7
BRANCH   4  17
ATOM     17  C   UNL     1       6.162   6.091  17.164  0.00  0.00    +0.000 C 
BRANCH  17  18
ATOM     18  C   UNL     1       4.962   5.892  18.081  0.00  0.00    +0.000 A 
ATOM     19  C   UNL     1       4.894   4.926  19.096  0.00  0.00    +0.000 A 
ATOM     20  C   UNL     1       3.768   4.835  19.925  0.00  0.00    +0.000 A 
ATOM     21  C   UNL     1       2.684   5.693  19.742  0.00  0.00    +0.000 A 
ATOM     22  C   UNL     1       2.716   6.627  18.714  0.00  0.00    +0.000 A 
ATOM     23  C   UNL     1       3.840   6.720  17.889  0.00  0.00    +0.000 A 
ENDBRANCH  17  18
BRANCH  17  24
ATOM     24  C   UNL     1       5.946   5.605  15.708  0.00  0.00    +0.000 C 
ATOM     25  C   UNL     1       7.235   4.915  15.127  0.00  0.00    +0.000 C 
ATOM     26  C   UNL     1       6.295   4.001  14.323  0.00  0.00    +0.000 C 
ATOM     27  C   UNL     1       5.262   4.210  15.455  0.00  0.00    +0.000 C 
BRANCH  24  28
ATOM     28  O   UNL     1       5.425   6.677  14.867  0.00  0.00    +0.000 OA
ATOM     29  H   UNL     1       6.109   7.365  14.916  0.00  0.00    +0.000 HD
ENDBRANCH  24  28
ENDBRANCH  17  24
ENDBRANCH   4  17
TORSDOF 5
ENDMDL
MODEL 3
REMARK VINA RESULT:      -8.4      5.206      7.659
REMARK  Name = 
REMARK  5 active torsions:
REMARK  status: ('A' for Active; 'I' for Inactive)
REMARK    1  A    between atoms: N_3  and  C_4
REMARK    2  A    between atoms: N_13  and  C_14
REMARK    3  A    between atoms: C_14  and  C_15
REMARK    4  A    between atoms: C_14  and  C_21
REMARK    5  A    between atoms: C_21  and  O_22
REMARK                            x       y       z     vdW  Elec       q    Type
REMARK                         _______ _______ _______ _____ _____    ______ ____
ROOT
ATOM      1  O   UNL     1       2.141   7.597  19.882  0.00  0.00    +0.000 OA
ATOM      2  C   UNL     1       2.471   7.666  18.707  0.00  0.00    +0.000 C 
ATOM      3  N   UNL     1       2.067   8.637  17.803  0.00  0.00    +0.000 N 
ATOM      4  N   UNL     1       3.364   6.764  18.154  0.00  0.00    +0.000 N 
ATOM      5  H   UNL     1       2.368   8.521  16.849  0.00  0.00    +0.000 HD
ATOM      6  H   UNL     1       3.293   6.584  17.165  0.00  0.00    +0.000 HD
ENDROOT
BRANCH   3   7
ATOM      7  C   UNL     1       1.191   9.728  18.064  0.00  0.00    +0.000 A 
ATOM      8  C   UNL     1       1.635  10.978  18.509  0.00  0.00    +0.000 A 
ATOM      9  C   UNL     1       0.753  12.029  18.802  0.00  0.00    +0.000 A 
ATOM     10  C   UNL     1      -0.608  11.783  18.636  0.00  0.00    +0.000 A 
ATOM     11  N   UNL     1      -1.709  12.568  18.856  0.00  0.00    +0.000 N 
ATOM     12  N   UNL     1      -2.876  11.968  18.566  0.00  0.00    +0.000 NA
ATOM     13  C   UNL     1      -2.502  10.753  18.152  0.00  0.00    +0.000 A 
ATOM     14  C   UNL     1      -1.100  10.571  18.172  0.00  0.00    +0.000 A 
ATOM     15  C   UNL     1      -0.192   9.529  17.866  0.00  0.00    +0.000 A 
ATOM     16  H   UNL     1      -1.730  13.520  19.204  0.00  0.00    +0.000 HD
ENDBRANCH   3   7
BRANCH   4  17
ATOM     17  C   UNL     1       3.875   5.644  18.963  0.00  0.00    +0.000 C 
BRANCH  17  18
ATOM     18  C   UNL     1       2.799   4.596  19.213  0.00  0.00    +0.000 A 
ATOM     19  C   UNL     1       2.051   3.973  18.204  0.00  0.00    +0.000 A 
ATOM     20  C   UNL     1       1.107   2.986  18.515  0.00  0.00    +0.000 A 
ATOM     21  C   UNL     1       0.881   2.618  19.840  0.00  0.00    +0.000 A 
ATOM     22  C   UNL     1       1.582   3.253  20.858  0.00  0.00    +0.000 A 
ATOM     23  C   UNL     1       2.526   4.236  20.547  0.00  0.00    +0.000 A 
ENDBRANCH  17  18
BRANCH  17  24
ATOM     24  C   UNL     1       5.144   5.106  18.254  0.00  0.00    +0.000 C 
ATOM     25  C   UNL     1       4.992   5.135  16.688  0.00  0.00    +0.000 C 
ATOM     26  C   UNL     1       6.505   5.411  16.619  0.00  0.00    +0.000 C 
ATOM     27  C   UNL     1       6.359   6.075  18.008  0.00  0.00    +0.000 C 
BRANCH  24  28
ATOM     28  O   UNL     1       5.528   3.802  18.781  0.00  0.00    +0.000 OA
ATOM     29  H   UNL     1       5.379   3.196  18.037  0.00  0.00    +0.000 HD
ENDBRANCH  24  28
ENDBRANCH  17  24
ENDBRANCH   4  17
TORSDOF 5
ENDMDL
MODEL 4
REMARK VINA RESULT:      -8.4      4.974      7.647
REMARK  Name = 
REMARK  5 active torsions:
REMARK  status: ('A' for Active; 'I' for Inactive)
REMARK    1  A    between atoms: N_3  and  C_4
REMARK    2  A    between atoms: N_13  and  C_14
REMARK    3  A    between atoms: C_14  and  C_15
REMARK    4  A    between atoms: C_14  and  C_21
REMARK    5  A    between atoms: C_21  and  O_22
REMARK                            x       y       z     vdW  Elec       q    Type
REMARK                         _______ _______ _______ _____ _____    ______ ____
ROOT
ATOM      1  O   UNL     1       2.859   7.806  18.114  0.00  0.00    +0.000 OA
ATOM      2  C   UNL     1       2.693   7.013  19.030  0.00  0.00    +0.000 C 
ATOM      3  N   UNL     1       1.934   7.231  20.169  0.00  0.00    +0.000 N 
ATOM      4  N   UNL     1       3.234   5.738  18.988  0.00  0.00    +0.000 N 
ATOM      5  H   UNL     1       1.949   6.508  20.869  0.00  0.00    +0.000 HD
ATOM      6  H   UNL     1       3.440   5.291  19.867  0.00  0.00    +0.000 HD
ENDROOT
BRANCH   3   7
ATOM      7  C   UNL     1       1.213   8.414  20.495  0.00  0.00    +0.000 A 
ATOM      8  C   UNL     1       1.045   9.479  19.603  0.00  0.00    +0.000 A 
ATOM      9  C   UNL     1       0.368  10.656  19.956  0.00  0.00    +0.000 A 
ATOM     10  C   UNL     1      -0.140  10.735  21.252  0.00  0.00    +0.000 A 
ATOM     11  N   UNL     1      -0.811  11.733  21.907  0.00  0.00    +0.000 N 
ATOM     12  N   UNL     1      -1.149  11.426  23.171  0.00  0.00    +0.000 NA
ATOM     13  C   UNL     1      -0.667  10.188  23.326  0.00  0.00    +0.000 A 
ATOM     14  C   UNL     1      -0.024   9.698  22.167  0.00  0.00    +0.000 A 
ATOM     15  C   UNL     1       0.648   8.512  21.784  0.00  0.00    +0.000 A 
ATOM     16  H   UNL     1      -1.068  12.644  21.548  0.00  0.00    +0.000 HD
ENDBRANCH   3   7
BRANCH   4  17
ATOM     17  C   UNL     1       4.097   5.342  17.862  0.00  0.00    +0.000 C 
BRANCH  17  18
ATOM     18  C   UNL     1       5.525   5.841  18.045  0.00  0.00    +0.000 A 
ATOM     19  C   UNL     1       6.162   6.749  17.186  0.00  0.00    +0.000 A 
ATOM     20  C   UNL     1       7.465   7.191  17.448  0.00  0.00    +0.000 A 
ATOM     21  C   UNL     1       8.160   6.721  18.561  0.00  0.00    +0.000 A 
ATOM     22  C   UNL     1       7.561   5.789  19.401  0.00  0.00    +0.000 A 
ATOM     23  C   UNL     1       6.260   5.350  19.141  0.00  0.00    +0.000 A 
ENDBRANCH  17  18
BRANCH  17  24
ATOM     24  C   UNL     1       3.970   3.805  17.704  0.00  0.00    +0.000 C 
ATOM     25  C   UNL     1       3.763   3.093  19.092  0.00  0.00    +0.000 C 
ATOM     26  C   UNL     1       2.901   2.057  18.350  0.00  0.00    +0.000 C 
ATOM     27  C   UNL     1       2.571   3.182  17.340  0.00  0.00    +0.000 C 
BRANCH  24  28
ATOM     28  O   UNL     1       5.077   3.262  16.926  0.00  0.00    +0.000 OA
ATOM     29  H   UNL     1       4.914   3.592  16.028  0.00  0.00    +0.000 HD
ENDBRANCH  24  28
ENDBRANCH  17  24
ENDBRANCH   4  17
TORSDOF 5
ENDMDL
MODEL 5
REMARK VINA RESULT:      -8.3      5.302      8.034
REMARK  Name = 
REMARK  5 active torsions:
REMARK  status: ('A' for Active; 'I' for Inactive)
REMARK    1  A    between atoms: N_3  and  C_4
REMARK    2  A    between atoms: N_13  and  C_14
REMARK    3  A    between atoms: C_14  and  C_15
REMARK    4  A    between atoms: C_14  and  C_21
REMARK    5  A    between atoms: C_21  and  O_22
REMARK                            x       y       z     vdW  Elec       q    Type
REMARK                         _______ _______ _______ _____ _____    ______ ____
ROOT
ATOM      1  O   UNL     1       2.059   7.782  18.400  0.00  0.00    +0.000 OA
ATOM      2  C   UNL     1       2.251   7.330  19.519  0.00  0.00    +0.000 C 
ATOM      3  N   UNL     1       1.771   7.860  20.706  0.00  0.00    +0.000 N 
ATOM      4  N   UNL     1       2.962   6.156  19.711  0.00  0.00    +0.000 N 
ATOM      5  H   UNL     1       2.073   7.414  21.557  0.00  0.00    +0.000 HD
ATOM      6  H   UNL     1       3.445   6.042  20.587  0.00  0.00    +0.000 HD
ENDROOT
BRANCH   3   7
ATOM      7  C   UNL     1       0.973   9.030  20.852  0.00  0.00    +0.000 A 
ATOM      8  C   UNL     1       0.903  10.035  19.880  0.00  0.00    +0.000 A 
ATOM      9  C   UNL     1       0.146  11.202  20.060  0.00  0.00    +0.000 A 
ATOM     10  C   UNL     1      -0.547  11.334  21.262  0.00  0.00    +0.000 A 
ATOM     11  N   UNL     1      -1.337  12.340  21.751  0.00  0.00    +0.000 N 
ATOM     12  N   UNL     1      -1.844  12.092  22.971  0.00  0.00    +0.000 NA
ATOM     13  C   UNL     1      -1.352  10.886  23.269  0.00  0.00    +0.000 A 
ATOM     14  C   UNL     1      -0.532  10.356  22.247  0.00  0.00    +0.000 A 
ATOM     15  C   UNL     1       0.225   9.178  22.038  0.00  0.00    +0.000 A 
ATOM     16  H   UNL     1      -1.567  13.219  21.303  0.00  0.00    +0.000 HD
ENDBRANCH   3   7
BRANCH   4  17
ATOM     17  C   UNL     1       3.573   5.469  18.560  0.00  0.00    +0.000 C 
BRANCH  17  18
ATOM     18  C   UNL     1       5.056   5.793  18.436  0.00  0.00    +0.000 A 
ATOM     19  C   UNL     1       6.040   5.352  19.334  0.00  0.00    +0.000 A 
ATOM     20  C   UNL     1       7.391   5.659  19.126  0.00  0.00    +0.000 A 
ATOM     21  C   UNL     1       7.780   6.426  18.029  0.00  0.00    +0.000 A 
ATOM     22  C   UNL     1       6.816   6.908  17.152  0.00  0.00    +0.000 A 
ATOM     23  C   UNL     1       5.468   6.599  17.358  0.00  0.00    +0.000 A 
ENDBRANCH  17  18
BRANCH  17  24
ATOM     24  C   UNL     1       3.255   3.959  18.704  0.00  0.00    +0.000 C 
ATOM     25  C   UNL     1       1.886   3.586  18.024  0.00  0.00    +0.000 C 
ATOM     26  C   UNL     1       2.508   2.218  17.690  0.00  0.00    +0.000 C 
ATOM     27  C   UNL     1       3.876   2.940  17.678  0.00  0.00    +0.000 C 
BRANCH  24  28
ATOM     28  O   UNL     1       3.356   3.530  20.094  0.00  0.00    +0.000 OA
ATOM     29  H   UNL     1       4.118   4.023  20.436  0.00  0.00    +0.000 HD
ENDBRANCH  24  28
ENDBRANCH  17  24
ENDBRANCH   4  17
TORSDOF 5
ENDMDL
MODEL 6
REMARK VINA RESULT:      -8.3      5.211      7.147
REMARK  Name = 
REMARK  5 active torsions:
REMARK  status: ('A' for Active; 'I' for Inactive)
REMARK    1  A    between atoms: N_3  and  C_4
REMARK    2  A    between atoms: N_13  and  C_14
REMARK    3  A    between atoms: C_14  and  C_15
REMARK    4  A    between atoms: C_14  and  C_21
REMARK    5  A    between atoms: C_21  and  O_22
REMARK                            x       y       z     vdW  Elec       q    Type
REMARK                         _______ _______ _______ _____ _____    ______ ____
ROOT
ATOM      1  O   UNL     1       2.122   7.703  19.892  0.00  0.00    +0.000 OA
ATOM      2  C   UNL     1       2.386   7.742  18.700  0.00  0.00    +0.000 C 
ATOM      3  N   UNL     1       1.934   8.689  17.794  0.00  0.00    +0.000 N 
ATOM      4  N   UNL     1       3.248   6.824  18.122  0.00  0.00    +0.000 N 
ATOM      5  H   UNL     1       2.181   8.547  16.828  0.00  0.00    +0.000 HD
ATOM      6  H   UNL     1       3.122   6.617  17.144  0.00  0.00    +0.000 HD
ENDROOT
BRANCH   3   7
ATOM      7  C   UNL     1       1.073   9.787  18.073  0.00  0.00    +0.000 A 
ATOM      8  C   UNL     1      -0.321   9.711  17.979  0.00  0.00    +0.000 A 
ATOM      9  C   UNL     1      -1.152  10.816  18.216  0.00  0.00    +0.000 A 
ATOM     10  C   UNL     1      -0.533  12.018  18.552  0.00  0.00    +0.000 A 
ATOM     11  N   UNL     1      -1.042  13.263  18.812  0.00  0.00    +0.000 N 
ATOM     12  N   UNL     1      -0.110  14.184  19.111  0.00  0.00    +0.000 NA
ATOM     13  C   UNL     1       1.035  13.499  19.030  0.00  0.00    +0.000 A 
ATOM     14  C   UNL     1       0.843  12.142  18.684  0.00  0.00    +0.000 A 
ATOM     15  C   UNL     1       1.662  11.010  18.457  0.00  0.00    +0.000 A 
ATOM     16  H   UNL     1      -2.015  13.548  18.802  0.00  0.00    +0.000 HD
ENDBRANCH   3   7
BRANCH   4  17
ATOM     17  C   UNL     1       3.803   5.725  18.931  0.00  0.00    +0.000 C 
BRANCH  17  18
ATOM     18  C   UNL     1       2.756   4.657  19.220  0.00  0.00    +0.000 A 
ATOM     19  C   UNL     1       2.020   3.983  18.234  0.00  0.00    +0.000 A 
ATOM     20  C   UNL     1       1.104   2.981  18.581  0.00  0.00    +0.000 A 
ATOM     21  C   UNL     1       0.894   2.649  19.919  0.00  0.00    +0.000 A 
ATOM     22  C   UNL     1       1.582   3.335  20.912  0.00  0.00    +0.000 A 
ATOM     23  C   UNL     1       2.498   4.332  20.566  0.00  0.00    +0.000 A 
ENDBRANCH  17  18
BRANCH  17  24
ATOM     24  C   UNL     1       5.065   5.205  18.197  0.00  0.00    +0.000 C 
ATOM     25  C   UNL     1       4.862   5.180  16.637  0.00  0.00    +0.000 C 
ATOM     26  C   UNL     1       6.362   5.502  16.509  0.00  0.00    +0.000 C 
ATOM     27  C   UNL     1       6.239   6.205  17.882  0.00  0.00    +0.000 C 
BRANCH  24  28
ATOM     28  O   UNL     1       5.509   3.931  18.751  0.00  0.00    +0.000 OA
ATOM     29  H   UNL     1       5.987   4.182  19.558  0.00  0.00    +0.000 HD
ENDBRANCH  24  28
ENDBRANCH  17  24
ENDBRANCH   4  17
TORSDOF 5
ENDMDL
MODEL 7
REMARK VINA RESULT:      -8.3      5.325      7.889
REMARK  Name = 
REMARK  5 active torsions:
REMARK  status: ('A' for Active; 'I' for Inactive)
REMARK    1  A    between atoms: N_3  and  C_4
REMARK    2  A    between atoms: N_13  and  C_14
REMARK    3  A    between atoms: C_14  and  C_15
REMARK    4  A    between atoms: C_14  and  C_21
REMARK    5  A    between atoms: C_21  and  O_22
REMARK                            x       y       z     vdW  Elec       q    Type
REMARK                         _______ _______ _______ _____ _____    ______ ____
ROOT
ATOM      1  O   UNL     1       1.927   7.753  18.731  0.00  0.00    +0.000 OA
ATOM      2  C   UNL     1       2.213   7.255  19.810  0.00  0.00    +0.000 C 
ATOM      3  N   UNL     1       1.800   7.709  21.053  0.00  0.00    +0.000 N 
ATOM      4  N   UNL     1       2.975   6.101  19.893  0.00  0.00    +0.000 N 
ATOM      5  H   UNL     1       2.177   7.235  21.857  0.00  0.00    +0.000 HD
ATOM      6  H   UNL     1       3.524   5.964  20.726  0.00  0.00    +0.000 HD
ENDROOT
BRANCH   3   7
ATOM      7  C   UNL     1       0.975   8.840  21.312  0.00  0.00    +0.000 A 
ATOM      8  C   UNL     1       0.450   9.131  22.577  0.00  0.00    +0.000 A 
ATOM      9  C   UNL     1      -0.397  10.226  22.805  0.00  0.00    +0.000 A 
ATOM     10  C   UNL     1      -0.708  11.030  21.710  0.00  0.00    +0.000 A 
ATOM     11  N   UNL     1      -1.510  12.134  21.591  0.00  0.00    +0.000 N 
ATOM     12  N   UNL     1      -1.552  12.647  20.349  0.00  0.00    +0.000 NA
ATOM     13  C   UNL     1      -0.752  11.833  19.653  0.00  0.00    +0.000 A 
ATOM     14  C   UNL     1      -0.193  10.802  20.442  0.00  0.00    +0.000 A 
ATOM     15  C   UNL     1       0.673   9.701  20.236  0.00  0.00    +0.000 A 
ATOM     16  H   UNL     1      -2.054  12.584  22.317  0.00  0.00    +0.000 HD
ENDBRANCH   3   7
BRANCH   4  17
ATOM     17  C   UNL     1       3.526   5.494  18.669  0.00  0.00    +0.000 C 
BRANCH  17  18
ATOM     18  C   UNL     1       5.002   5.830  18.491  0.00  0.00    +0.000 A 
ATOM     19  C   UNL     1       6.027   5.356  19.323  0.00  0.00    +0.000 A 
ATOM     20  C   UNL     1       7.366   5.678  19.066  0.00  0.00    +0.000 A 
ATOM     21  C   UNL     1       7.702   6.493  17.987  0.00  0.00    +0.000 A 
ATOM     22  C   UNL     1       6.697   7.007  17.176  0.00  0.00    +0.000 A 
ATOM     23  C   UNL     1       5.361   6.684  17.430  0.00  0.00    +0.000 A 
ENDBRANCH  17  18
BRANCH  17  24
ATOM     24  C   UNL     1       3.216   3.977  18.728  0.00  0.00    +0.000 C 
ATOM     25  C   UNL     1       1.866   3.630  17.996  0.00  0.00    +0.000 C 
ATOM     26  C   UNL     1       2.506   2.285  17.610  0.00  0.00    +0.000 C 
ATOM     27  C   UNL     1       3.869   3.015  17.668  0.00  0.00    +0.000 C 
BRANCH  24  28
ATOM     28  O   UNL     1       3.285   3.478  20.097  0.00  0.00    +0.000 OA
ATOM     29  H   UNL     1       2.437   3.022  20.222  0.00  0.00    +0.000 HD
ENDBRANCH  24  28
ENDBRANCH  17  24
ENDBRANCH   4  17
TORSDOF 5
ENDMDL
MODEL 8
REMARK VINA RESULT:      -8.1      5.032      7.606
REMARK  Name = 
REMARK  5 active torsions:
REMARK  status: ('A' for Active; 'I' for Inactive)
REMARK    1  A    between atoms: N_3  and  C_4
REMARK    2  A    between atoms: N_13  and  C_14
REMARK    3  A    between atoms: C_14  and  C_15
REMARK    4  A    between atoms: C_14  and  C_21
REMARK    5  A    between atoms: C_21  and  O_22
REMARK                            x       y       z     vdW  Elec       q    Type
REMARK                         _______ _______ _______ _____ _____    ______ ____
ROOT
ATOM      1  O   UNL     1       2.602   7.856  18.356  0.00  0.00    +0.000 OA
ATOM      2  C   UNL     1       2.563   7.081  19.300  0.00  0.00    +0.000 C 
ATOM      3  N   UNL     1       1.904   7.292  20.501  0.00  0.00    +0.000 N 
ATOM      4  N   UNL     1       3.161   5.833  19.235  0.00  0.00    +0.000 N 
ATOM      5  H   UNL     1       2.022   6.590  21.213  0.00  0.00    +0.000 HD
ATOM      6  H   UNL     1       3.471   5.419  20.099  0.00  0.00    +0.000 HD
ENDROOT
BRANCH   3   7
ATOM      7  C   UNL     1       1.159   8.448  20.869  0.00  0.00    +0.000 A 
ATOM      8  C   UNL     1       0.900   8.801  22.199  0.00  0.00    +0.000 A 
ATOM      9  C   UNL     1       0.127   9.920  22.542  0.00  0.00    +0.000 A 
ATOM     10  C   UNL     1      -0.390  10.683  21.496  0.00  0.00    +0.000 A 
ATOM     11  N   UNL     1      -1.189  11.795  21.490  0.00  0.00    +0.000 N 
ATOM     12  N   UNL     1      -1.475  12.256  20.260  0.00  0.00    +0.000 NA
ATOM     13  C   UNL     1      -0.837  11.398  19.455  0.00  0.00    +0.000 A 
ATOM     14  C   UNL     1      -0.142  10.391  20.162  0.00  0.00    +0.000 A 
ATOM     15  C   UNL     1       0.655   9.268  19.838  0.00  0.00    +0.000 A 
ATOM     16  H   UNL     1      -1.573  12.286  22.289  0.00  0.00    +0.000 HD
ENDBRANCH   3   7
BRANCH   4  17
ATOM     17  C   UNL     1       3.932   5.449  18.040  0.00  0.00    +0.000 C 
BRANCH  17  18
ATOM     18  C   UNL     1       5.388   5.884  18.148  0.00  0.00    +0.000 A 
ATOM     19  C   UNL     1       6.025   6.748  17.244  0.00  0.00    +0.000 A 
ATOM     20  C   UNL     1       7.358   7.133  17.438  0.00  0.00    +0.000 A 
ATOM     21  C   UNL     1       8.083   6.647  18.525  0.00  0.00    +0.000 A 
ATOM     22  C   UNL     1       7.483   5.757  19.407  0.00  0.00    +0.000 A 
ATOM     23  C   UNL     1       6.152   5.375  19.216  0.00  0.00    +0.000 A 
ENDBRANCH  17  18
BRANCH  17  24
ATOM     24  C   UNL     1       3.731   3.926  17.833  0.00  0.00    +0.000 C 
ATOM     25  C   UNL     1       3.401   3.194  19.186  0.00  0.00    +0.000 C 
ATOM     26  C   UNL     1       2.530   2.225  18.366  0.00  0.00    +0.000 C 
ATOM     27  C   UNL     1       2.326   3.391  17.369  0.00  0.00    +0.000 C 
BRANCH  24  28
ATOM     28  O   UNL     1       4.853   3.340  17.109  0.00  0.00    +0.000 OA
ATOM     29  H   UNL     1       4.564   2.431  16.927  0.00  0.00    +0.000 HD
ENDBRANCH  24  28
ENDBRANCH  17  24
ENDBRANCH   4  17
TORSDOF 5
ENDMDL
MODEL 9
REMARK VINA RESULT:      -8.1      5.429      8.055
REMARK  Name = 
REMARK  5 active torsions:
REMARK  status: ('A' for Active; 'I' for Inactive)
REMARK    1  A    between atoms: N_3  and  C_4
REMARK    2  A    between atoms: N_13  and  C_14
REMARK    3  A    between atoms: C_14  and  C_15
REMARK    4  A    between atoms: C_14  and  C_21
REMARK    5  A    between atoms: C_21  and  O_22
REMARK                            x       y       z     vdW  Elec       q    Type
REMARK                         _______ _______ _______ _____ _____    ______ ____
ROOT
ATOM      1  O   UNL     1       1.838   7.970  19.893  0.00  0.00    +0.000 OA
ATOM      2  C   UNL     1       2.058   8.080  18.696  0.00  0.00    +0.000 C 
ATOM      3  N   UNL     1       1.491   9.015  17.844  0.00  0.00    +0.000 N 
ATOM      4  N   UNL     1       2.981   7.270  18.055  0.00  0.00    +0.000 N 
ATOM      5  H   UNL     1       1.718   8.935  16.867  0.00  0.00    +0.000 HD
ATOM      6  H   UNL     1       2.842   7.090  17.074  0.00  0.00    +0.000 HD
ENDROOT
BRANCH   3   7
ATOM      7  C   UNL     1       0.542  10.017  18.195  0.00  0.00    +0.000 A 
ATOM      8  C   UNL     1       0.881  11.181  18.895  0.00  0.00    +0.000 A 
ATOM      9  C   UNL     1      -0.075  12.137  19.270  0.00  0.00    +0.000 A 
ATOM     10  C   UNL     1      -1.400  11.885  18.919  0.00  0.00    +0.000 A 
ATOM     11  N   UNL     1      -2.552  12.587  19.154  0.00  0.00    +0.000 N 
ATOM     12  N   UNL     1      -3.655  12.014  18.641  0.00  0.00    +0.000 NA
ATOM     13  C   UNL     1      -3.185  10.903  18.065  0.00  0.00    +0.000 A 
ATOM     14  C   UNL     1      -1.785  10.760  18.203  0.00  0.00    +0.000 A 
ATOM     15  C   UNL     1      -0.803   9.816  17.820  0.00  0.00    +0.000 A 
ATOM     16  H   UNL     1      -2.653  13.461  19.657  0.00  0.00    +0.000 HD
ENDBRANCH   3   7
BRANCH   4  17
ATOM     17  C   UNL     1       3.661   6.196  18.801  0.00  0.00    +0.000 C 
BRANCH  17  18
ATOM     18  C   UNL     1       2.744   5.002  19.027  0.00  0.00    +0.000 A 
ATOM     19  C   UNL     1       1.952   4.412  18.031  0.00  0.00    +0.000 A 
ATOM     20  C   UNL     1       1.166   3.287  18.311  0.00  0.00    +0.000 A 
ATOM     21  C   UNL     1       1.142   2.744  19.595  0.00  0.00    +0.000 A 
ATOM     22  C   UNL     1       1.886   3.340  20.606  0.00  0.00    +0.000 A 
ATOM     23  C   UNL     1       2.673   4.461  20.326  0.00  0.00    +0.000 A 
ENDBRANCH  17  18
BRANCH  17  24
ATOM     24  C   UNL     1       4.970   5.866  18.039  0.00  0.00    +0.000 C 
ATOM     25  C   UNL     1       6.129   5.461  19.024  0.00  0.00    +0.000 C 
ATOM     26  C   UNL     1       6.639   4.517  17.920  0.00  0.00    +0.000 C 
ATOM     27  C   UNL     1       5.170   4.424  17.442  0.00  0.00    +0.000 C 
BRANCH  24  28
ATOM     28  O   UNL     1       5.330   6.939  17.120  0.00  0.00    +0.000 OA
ATOM     29  H   UNL     1       5.622   7.658  17.703  0.00  0.00    +0.000 HD
ENDBRANCH  24  28
ENDBRANCH  17  24
ENDBRANCH   4  17
TORSDOF 5
ENDMDL
