MODEL 1
REMARK VINA RESULT:      -8.4      0.000      0.000
REMARK  Name = 
REMARK  5 active torsions:
REMARK  status: ('A' for Active; 'I' for Inactive)
REMARK    1  A    between atoms: C_2  and  C_4
REMARK    2  A    between atoms: C_6  and  N_7
REMARK    3  A    between atoms: C_8  and  C_10
REMARK    4  A    between atoms: C_10  and  O_11
REMARK    5  A    between atoms: O_11  and  C_12
REMARK                            x       y       z     vdW  Elec       q    Type
REMARK                         _______ _______ _______ _____ _____    ______ ____
ROOT
ATOM      1  N   UNL     1       2.714   6.953  18.766  0.00  0.00    +0.000 N 
ATOM      2  C   UNL     1       2.308   8.166  18.226  0.00  0.00    +0.000 C 
ATOM      3  O   UNL     1       2.559   8.575  17.093  0.00  0.00    +0.000 OA
ATOM      4  H   UNL     1       2.413   6.738  19.715  0.00  0.00    +0.000 HD
ENDROOT
BRANCH   1   7
ATOM      5  C   UNL     1       5.569   5.107  17.154  0.00  0.00    +0.000 A 
ATOM      6  C   UNL     1       4.845   6.103  17.826  0.00  0.00    +0.000 A 
ATOM      7  C   UNL     1       3.479   5.961  18.098  0.00  0.00    +0.000 A 
ATOM      8  C   UNL     1       2.837   4.782  17.689  0.00  0.00    +0.000 A 
ATOM      9  C   UNL     1       3.551   3.781  17.016  0.00  0.00    +0.000 A 
ATOM     10  C   UNL     1       4.906   3.952  16.751  0.00  0.00    +0.000 A 
ATOM     11  F   UNL     1       5.550   2.967  16.103  0.00  0.00    +0.000 F 
BRANCH   5  13
ATOM     12  N   UNL     1       7.891   4.382  17.360  0.00  0.00    +0.000 N 
ATOM     13  C   UNL     1       7.021   5.333  16.910  0.00  0.00    +0.000 C 
ATOM     14  O   UNL     1       7.440   6.334  16.342  0.00  0.00    +0.000 OA
ATOM     15  H   UNL     1       8.879   4.549  17.236  0.00  0.00    +0.000 HD
ATOM     16  H   UNL     1       7.593   3.556  17.863  0.00  0.00    +0.000 HD
ENDBRANCH   5  13
ENDBRANCH   1   7
BRANCH   2  17
ATOM     17  C   UNL     1       1.480   9.040  19.158  0.00  0.00    +0.000 C 
BRANCH  17  18
ATOM     18  O   UNL     1       0.868  10.048  18.364  0.00  0.00    +0.000 OA
BRANCH  18  19
ATOM     19  C   UNL     1      -0.102  10.827  18.946  0.00  0.00    +0.000 A 
ATOM     20  C   UNL     1       0.120  11.618  20.077  0.00  0.00    +0.000 A 
ATOM     21  C   UNL     1      -0.928  12.344  20.636  0.00  0.00    +0.000 A 
ATOM     22  C   UNL     1      -2.203  12.290  20.072  0.00  0.00    +0.000 A 
ATOM     23 CL   UNL     1      -3.436  13.225  20.856  0.00  0.00    +0.000 Cl
ATOM     24  C   UNL     1      -2.463  11.514  18.917  0.00  0.00    +0.000 A 
ATOM     25  C   UNL     1      -3.735  11.443  18.297  0.00  0.00    +0.000 A 
ATOM     26  C   UNL     1      -3.953  10.685  17.146  0.00  0.00    +0.000 A 
ATOM     27  C   UNL     1      -2.903   9.974  16.585  0.00  0.00    +0.000 A 
ATOM     28  C   UNL     1      -1.642  10.018  17.181  0.00  0.00    +0.000 A 
ATOM     29  C   UNL     1      -1.391  10.777  18.347  0.00  0.00    +0.000 A 
ENDBRANCH  18  19
ENDBRANCH  17  18
ENDBRANCH   2  17
TORSDOF 5
ENDMDL
MODEL 2
REMARK VINA RESULT:      -8.3      2.298      2.981
REMARK  Name = 
REMARK  5 active torsions:
REMARK  status: ('A' for Active; 'I' for Inactive)
REMARK    1  A    between atoms: C_2  and  C_4
REMARK    2  A    between atoms: C_6  and  N_7
REMARK    3  A    between atoms: C_8  and  C_10
REMARK    4  A    between atoms: C_10  and  O_11
REMARK    5  A    between atoms: O_11  and  C_12
REMARK                            x       y       z     vdW  Elec       q    Type
REMARK                         _______ _______ _______ _____ _____    ______ ____
ROOT
ATOM      1  N   UNL     1       2.548   7.405  17.960  0.00  0.00    +0.000 N 
ATOM      2  C   UNL     1       1.991   8.339  18.824  0.00  0.00    +0.000 C 
ATOM      3  O   UNL     1       1.798   8.186  20.028  0.00  0.00    +0.000 OA
ATOM      4  H   UNL     1       2.667   7.678  16.985  0.00  0.00    +0.000 HD
ENDROOT
BRANCH   1   7
ATOM      5  C   UNL     1       2.641   3.796  19.020  0.00  0.00    +0.000 A 
ATOM      6  C   UNL     1       2.151   5.059  18.658  0.00  0.00    +0.000 A 
ATOM      7  C   UNL     1       3.010   6.111  18.320  0.00  0.00    +0.000 A 
ATOM      8  C   UNL     1       4.393   5.874  18.341  0.00  0.00    +0.000 A 
ATOM      9  C   UNL     1       4.893   4.616  18.702  0.00  0.00    +0.000 A 
ATOM     10  C   UNL     1       4.016   3.590  19.041  0.00  0.00    +0.000 A 
ATOM     11  F   UNL     1       4.541   2.402  19.383  0.00  0.00    +0.000 F 
BRANCH   5  13
ATOM     12  N   UNL     1       1.558   1.670  18.502  0.00  0.00    +0.000 N 
ATOM     13  C   UNL     1       1.658   2.728  19.359  0.00  0.00    +0.000 C 
ATOM     14  O   UNL     1       0.948   2.785  20.355  0.00  0.00    +0.000 OA
ATOM     15  H   UNL     1       0.864   0.964  18.702  0.00  0.00    +0.000 HD
ATOM     16  H   UNL     1       2.099   1.597  17.650  0.00  0.00    +0.000 HD
ENDBRANCH   5  13
ENDBRANCH   1   7
BRANCH   2  17
ATOM     17  C   UNL     1       1.595   9.657  18.175  0.00  0.00    +0.000 C 
BRANCH  17  18
ATOM     18  O   UNL     1       0.215   9.569  17.843  0.00  0.00    +0.000 OA
BRANCH  18  19
ATOM     19  C   UNL     1      -0.652  10.445  18.452  0.00  0.00    +0.000 A 
ATOM     20  C   UNL     1      -0.369  11.101  19.653  0.00  0.00    +0.000 A 
ATOM     21  C   UNL     1      -1.319  11.937  20.230  0.00  0.00    +0.000 A 
ATOM     22  C   UNL     1      -2.557  12.129  19.616  0.00  0.00    +0.000 A 
ATOM     23 CL   UNL     1      -3.669  13.184  20.428  0.00  0.00    +0.000 Cl
ATOM     24  C   UNL     1      -2.874  11.496  18.390  0.00  0.00    +0.000 A 
ATOM     25  C   UNL     1      -4.108  11.675  17.718  0.00  0.00    +0.000 A 
ATOM     26  C   UNL     1      -4.381  11.052  16.500  0.00  0.00    +0.000 A 
ATOM     27  C   UNL     1      -3.427  10.230  15.922  0.00  0.00    +0.000 A 
ATOM     28  C   UNL     1      -2.206  10.027  16.567  0.00  0.00    +0.000 A 
ATOM     29  C   UNL     1      -1.900  10.645  17.801  0.00  0.00    +0.000 A 
ENDBRANCH  18  19
ENDBRANCH  17  18
ENDBRANCH   2  17
TORSDOF 5
ENDMDL
MODEL 3
REMARK VINA RESULT:      -8.3      4.720      9.528
REMARK  Name = 
REMARK  5 active torsions:
REMARK  status: ('A' for Active; 'I' for Inactive)
REMARK    1  A    between atoms: C_2  and  C_4
REMARK    2  A    between atoms: C_6  and  N_7
REMARK    3  A    between atoms: C_8  and  C_10
REMARK    4  A    between atoms: C_10  and  O_11
REMARK    5  A    between atoms: O_11  and  C_12
REMARK                            x       y       z     vdW  Elec       q    Type
REMARK                         _______ _______ _______ _____ _____    ______ ____
ROOT
ATOM      1  N   UNL     1       0.436  10.132  17.948  0.00  0.00    +0.000 N 
ATOM      2  C   UNL     1       1.277   9.277  18.648  0.00  0.00    +0.000 C 
ATOM      3  O   UNL     1       1.211   9.018  19.848  0.00  0.00    +0.000 OA
ATOM      4  H   UNL     1       0.599  10.236  16.947  0.00  0.00    +0.000 HD
ENDROOT
BRANCH   1   7
ATOM      5  C   UNL     1      -3.014  11.531  18.495  0.00  0.00    +0.000 A 
ATOM      6  C   UNL     1      -1.949  10.807  17.937  0.00  0.00    +0.000 A 
ATOM      7  C   UNL     1      -0.665  10.844  18.493  0.00  0.00    +0.000 A 
ATOM      8  C   UNL     1      -0.458  11.624  19.640  0.00  0.00    +0.000 A 
ATOM      9  C   UNL     1      -1.514  12.352  20.205  0.00  0.00    +0.000 A 
ATOM     10  C   UNL     1      -2.779  12.304  19.628  0.00  0.00    +0.000 A 
ATOM     11  F   UNL     1      -3.760  13.020  20.201  0.00  0.00    +0.000 F 
BRANCH   5  13
ATOM     12  N   UNL     1      -4.502  12.020  16.623  0.00  0.00    +0.000 N 
ATOM     13  C   UNL     1      -4.351  11.433  17.846  0.00  0.00    +0.000 C 
ATOM     14  O   UNL     1      -5.296  10.864  18.379  0.00  0.00    +0.000 OA
ATOM     15  H   UNL     1      -5.418  11.995  16.196  0.00  0.00    +0.000 HD
ATOM     16  H   UNL     1      -3.760  12.530  16.160  0.00  0.00    +0.000 HD
ENDBRANCH   5  13
ENDBRANCH   1   7
BRANCH   2  17
ATOM     17  C   UNL     1       2.372   8.627  17.813  0.00  0.00    +0.000 C 
BRANCH  17  18
ATOM     18  O   UNL     1       2.775   7.443  18.489  0.00  0.00    +0.000 OA
BRANCH  18  19
ATOM     19  C   UNL     1       3.575   6.554  17.811  0.00  0.00    +0.000 A 
ATOM     20  C   UNL     1       4.727   6.930  17.115  0.00  0.00    +0.000 A 
ATOM     21  C   UNL     1       5.459   5.977  16.414  0.00  0.00    +0.000 A 
ATOM     22  C   UNL     1       5.052   4.642  16.403  0.00  0.00    +0.000 A 
ATOM     23 CL   UNL     1       6.032   3.541  15.489  0.00  0.00    +0.000 Cl
ATOM     24  C   UNL     1       3.901   4.221  17.110  0.00  0.00    +0.000 A 
ATOM     25  C   UNL     1       3.458   2.875  17.145  0.00  0.00    +0.000 A 
ATOM     26  C   UNL     1       2.331   2.488  17.870  0.00  0.00    +0.000 A 
ATOM     27  C   UNL     1       1.612   3.439  18.577  0.00  0.00    +0.000 A 
ATOM     28  C   UNL     1       2.018   4.774  18.552  0.00  0.00    +0.000 A 
ATOM     29  C   UNL     1       3.157   5.195  17.828  0.00  0.00    +0.000 A 
ENDBRANCH  18  19
ENDBRANCH  17  18
ENDBRANCH   2  17
TORSDOF 5
ENDMDL
MODEL 4
REMARK VINA RESULT:      -8.3      2.596      2.811
REMARK  Name = 
REMARK  5 active torsions:
REMARK  status: ('A' for Active; 'I' for Inactive)
REMARK    1  A    between atoms: C_2  and  C_4
REMARK    2  A    between atoms: C_6  and  N_7
REMARK    3  A    between atoms: C_8  and  C_10
REMARK    4  A    between atoms: C_10  and  O_11
REMARK    5  A    between atoms: O_11  and  C_12
REMARK                            x       y       z     vdW  Elec       q    Type
REMARK                         _______ _______ _______ _____ _____    ______ ____
ROOT
ATOM      1  N   UNL     1       1.538   6.465  21.013  0.00  0.00    +0.000 N 
ATOM      2  C   UNL     1       1.694   7.640  20.289  0.00  0.00    +0.000 C 
ATOM      3  O   UNL     1       2.088   7.728  19.128  0.00  0.00    +0.000 OA
ATOM      4  H   UNL     1       1.181   6.544  21.964  0.00  0.00    +0.000 HD
ENDROOT
BRANCH   1   7
ATOM      5  C   UNL     1       3.295   3.337  19.879  0.00  0.00    +0.000 A 
ATOM      6  C   UNL     1       3.080   4.635  20.366  0.00  0.00    +0.000 A 
ATOM      7  C   UNL     1       1.790   5.153  20.532  0.00  0.00    +0.000 A 
ATOM      8  C   UNL     1       0.697   4.337  20.205  0.00  0.00    +0.000 A 
ATOM      9  C   UNL     1       0.901   3.039  19.716  0.00  0.00    +0.000 A 
ATOM     10  C   UNL     1       2.194   2.552  19.554  0.00  0.00    +0.000 A 
ATOM     11  F   UNL     1       2.341   1.304  19.080  0.00  0.00    +0.000 F 
BRANCH   5  13
ATOM     12  N   UNL     1       5.503   3.521  18.856  0.00  0.00    +0.000 N 
ATOM     13  C   UNL     1       4.699   2.860  19.738  0.00  0.00    +0.000 C 
ATOM     14  O   UNL     1       5.131   1.903  20.370  0.00  0.00    +0.000 OA
ATOM     15  H   UNL     1       6.444   3.177  18.723  0.00  0.00    +0.000 HD
ATOM     16  H   UNL     1       5.181   4.295  18.288  0.00  0.00    +0.000 HD
ENDBRANCH   5  13
ENDBRANCH   1   7
BRANCH   2  17
ATOM     17  C   UNL     1       1.335   8.912  21.044  0.00  0.00    +0.000 C 
BRANCH  17  18
ATOM     18  O   UNL     1       1.130   9.936  20.079  0.00  0.00    +0.000 OA
BRANCH  18  19
ATOM     19  C   UNL     1       0.078  10.800  20.269  0.00  0.00    +0.000 A 
ATOM     20  C   UNL     1      -0.045  11.632  21.384  0.00  0.00    +0.000 A 
ATOM     21  C   UNL     1      -1.165  12.445  21.527  0.00  0.00    +0.000 A 
ATOM     22  C   UNL     1      -2.169  12.439  20.558  0.00  0.00    +0.000 A 
ATOM     23 CL   UNL     1      -3.524  13.484  20.841  0.00  0.00    +0.000 Cl
ATOM     24  C   UNL     1      -2.071  11.624  19.405  0.00  0.00    +0.000 A 
ATOM     25  C   UNL     1      -3.054  11.597  18.384  0.00  0.00    +0.000 A 
ATOM     26  C   UNL     1      -2.917  10.797  17.249  0.00  0.00    +0.000 A 
ATOM     27  C   UNL     1      -1.794   9.998  17.106  0.00  0.00    +0.000 A 
ATOM     28  C   UNL     1      -0.815   9.996  18.101  0.00  0.00    +0.000 A 
ATOM     29  C   UNL     1      -0.925  10.797  19.261  0.00  0.00    +0.000 A 
ENDBRANCH  18  19
ENDBRANCH  17  18
ENDBRANCH   2  17
TORSDOF 5
ENDMDL
MODEL 5
REMARK VINA RESULT:      -8.3      7.116      8.980
REMARK  Name = 
REMARK  5 active torsions:
REMARK  status: ('A' for Active; 'I' for Inactive)
REMARK    1  A    between atoms: C_2  and  C_4
REMARK    2  A    between atoms: C_6  and  N_7
REMARK    3  A    between atoms: C_8  and  C_10
REMARK    4  A    between atoms: C_10  and  O_11
REMARK    5  A    between atoms: O_11  and  C_12
REMARK                            x       y       z     vdW  Elec       q    Type
REMARK                         _______ _______ _______ _____ _____    ______ ____
ROOT
ATOM      1  N   UNL     1       6.707   7.592  17.054  0.00  0.00    +0.000 N 
ATOM      2  C   UNL     1       7.787   7.944  17.854  0.00  0.00    +0.000 C 
ATOM      3  O   UNL     1       8.355   7.214  18.664  0.00  0.00    +0.000 OA
ATOM      4  H   UNL     1       6.350   8.298  16.411  0.00  0.00    +0.000 HD
ENDROOT
BRANCH   1   7
ATOM      5  C   UNL     1       4.953   4.427  18.085  0.00  0.00    +0.000 A 
ATOM      6  C   UNL     1       5.558   5.691  18.154  0.00  0.00    +0.000 A 
ATOM      7  C   UNL     1       6.080   6.319  17.017  0.00  0.00    +0.000 A 
ATOM      8  C   UNL     1       5.979   5.656  15.785  0.00  0.00    +0.000 A 
ATOM      9  C   UNL     1       5.377   4.393  15.704  0.00  0.00    +0.000 A 
ATOM     10  C   UNL     1       4.874   3.788  16.852  0.00  0.00    +0.000 A 
ATOM     11  F   UNL     1       4.308   2.576  16.728  0.00  0.00    +0.000 F 
BRANCH   5  13
ATOM     12  N   UNL     1       5.011   2.690  19.799  0.00  0.00    +0.000 N 
ATOM     13  C   UNL     1       4.417   3.831  19.341  0.00  0.00    +0.000 C 
ATOM     14  O   UNL     1       3.473   4.322  19.946  0.00  0.00    +0.000 OA
ATOM     15  H   UNL     1       4.625   2.256  20.626  0.00  0.00    +0.000 HD
ATOM     16  H   UNL     1       5.771   2.231  19.314  0.00  0.00    +0.000 HD
ENDBRANCH   5  13
ENDBRANCH   1   7
BRANCH   2  17
ATOM     17  C   UNL     1       8.274   9.375  17.682  0.00  0.00    +0.000 C 
BRANCH  17  18
ATOM     18  O   UNL     1       8.983   9.727  18.864  0.00  0.00    +0.000 OA
BRANCH  18  19
ATOM     19  C   UNL     1       9.689  10.906  18.865  0.00  0.00    +0.000 A 
ATOM     20  C   UNL     1      10.487  11.329  17.799  0.00  0.00    +0.000 A 
ATOM     21  C   UNL     1      11.208  12.515  17.897  0.00  0.00    +0.000 A 
ATOM     22  C   UNL     1      11.137  13.291  19.055  0.00  0.00    +0.000 A 
ATOM     23 CL   UNL     1      12.085  14.743  19.072  0.00  0.00    +0.000 Cl
ATOM     24  C   UNL     1      10.326  12.905  20.148  0.00  0.00    +0.000 A 
ATOM     25  C   UNL     1      10.206  13.668  21.336  0.00  0.00    +0.000 A 
ATOM     26  C   UNL     1       9.380  13.270  22.388  0.00  0.00    +0.000 A 
ATOM     27  C   UNL     1       8.654  12.094  22.282  0.00  0.00    +0.000 A 
ATOM     28  C   UNL     1       8.761  11.317  21.127  0.00  0.00    +0.000 A 
ATOM     29  C   UNL     1       9.588  11.695  20.044  0.00  0.00    +0.000 A 
ENDBRANCH  18  19
ENDBRANCH  17  18
ENDBRANCH   2  17
TORSDOF 5
ENDMDL
MODEL 6
REMARK VINA RESULT:      -8.2      2.760      3.774
REMARK  Name = 
REMARK  5 active torsions:
REMARK  status: ('A' for Active; 'I' for Inactive)
REMARK    1  A    between atoms: C_2  and  C_4
REMARK    2  A    between atoms: C_6  and  N_7
REMARK    3  A    between atoms: C_8  and  C_10
REMARK    4  A    between atoms: C_10  and  O_11
REMARK    5  A    between atoms: O_11  and  C_12
REMARK                            x       y       z     vdW  Elec       q    Type
REMARK                         _______ _______ _______ _____ _____    ______ ____
ROOT
ATOM      1  N   UNL     1       2.258   6.268  18.503  0.00  0.00    +0.000 N 
ATOM      2  C   UNL     1       3.001   7.269  17.892  0.00  0.00    +0.000 C 
ATOM      3  O   UNL     1       4.049   7.115  17.268  0.00  0.00    +0.000 OA
ATOM      4  H   UNL     1       1.395   6.542  18.971  0.00  0.00    +0.000 HD
ENDROOT
BRANCH   1   7
ATOM      5  C   UNL     1       3.411   2.848  19.567  0.00  0.00    +0.000 A 
ATOM      6  C   UNL     1       3.105   4.216  19.608  0.00  0.00    +0.000 A 
ATOM      7  C   UNL     1       2.570   4.882  18.499  0.00  0.00    +0.000 A 
ATOM      8  C   UNL     1       2.332   4.145  17.330  0.00  0.00    +0.000 A 
ATOM      9  C   UNL     1       2.634   2.777  17.278  0.00  0.00    +0.000 A 
ATOM     10  C   UNL     1       3.174   2.142  18.392  0.00  0.00    +0.000 A 
ATOM     11  F   UNL     1       3.451   0.831  18.296  0.00  0.00    +0.000 F 
BRANCH   5  13
ATOM     12  N   UNL     1       5.208   1.639  20.694  0.00  0.00    +0.000 N 
ATOM     13  C   UNL     1       3.973   2.213  20.792  0.00  0.00    +0.000 C 
ATOM     14  O   UNL     1       3.361   2.183  21.853  0.00  0.00    +0.000 OA
ATOM     15  H   UNL     1       5.577   1.169  21.509  0.00  0.00    +0.000 HD
ATOM     16  H   UNL     1       5.735   1.610  19.831  0.00  0.00    +0.000 HD
ENDBRANCH   5  13
ENDBRANCH   1   7
BRANCH   2  17
ATOM     17  C   UNL     1       2.430   8.673  18.038  0.00  0.00    +0.000 C 
BRANCH  17  18
ATOM     18  O   UNL     1       1.657   8.695  19.232  0.00  0.00    +0.000 OA
BRANCH  18  19
ATOM     19  C   UNL     1       0.696   9.669  19.360  0.00  0.00    +0.000 A 
ATOM     20  C   UNL     1       0.211  10.419  18.286  0.00  0.00    +0.000 A 
ATOM     21  C   UNL     1      -0.730  11.421  18.505  0.00  0.00    +0.000 A 
ATOM     22  C   UNL     1      -1.196  11.681  19.794  0.00  0.00    +0.000 A 
ATOM     23 CL   UNL     1      -2.359  12.958  19.953  0.00  0.00    +0.000 Cl
ATOM     24  C   UNL     1      -0.742  10.931  20.904  0.00  0.00    +0.000 A 
ATOM     25  C   UNL     1      -1.200  11.144  22.228  0.00  0.00    +0.000 A 
ATOM     26  C   UNL     1      -0.747  10.372  23.298  0.00  0.00    +0.000 A 
ATOM     27  C   UNL     1       0.180   9.366  23.074  0.00  0.00    +0.000 A 
ATOM     28  C   UNL     1       0.657   9.141  21.781  0.00  0.00    +0.000 A 
ATOM     29  C   UNL     1       0.216   9.906  20.677  0.00  0.00    +0.000 A 
ENDBRANCH  18  19
ENDBRANCH  17  18
ENDBRANCH   2  17
TORSDOF 5
ENDMDL
MODEL 7
REMARK VINA RESULT:      -8.1      4.689      8.869
REMARK  Name = 
REMARK  5 active torsions:
REMARK  status: ('A' for Active; 'I' for Inactive)
REMARK    1  A    between atoms: C_2  and  C_4
REMARK    2  A    between atoms: C_6  and  N_7
REMARK    3  A    between atoms: C_8  and  C_10
REMARK    4  A    between atoms: C_10  and  O_11
REMARK    5  A    between atoms: O_11  and  C_12
REMARK                            x       y       z     vdW  Elec       q    Type
REMARK                         _______ _______ _______ _____ _____    ______ ____
ROOT
ATOM      1  N   UNL     1       2.876   5.660  20.177  0.00  0.00    +0.000 N 
ATOM      2  C   UNL     1       2.251   4.433  20.000  0.00  0.00    +0.000 C 
ATOM      3  O   UNL     1       1.119   4.254  19.552  0.00  0.00    +0.000 OA
ATOM      4  H   UNL     1       3.828   5.654  20.541  0.00  0.00    +0.000 HD
ENDROOT
BRANCH   1   7
ATOM      5  C   UNL     1       1.138   8.987  20.438  0.00  0.00    +0.000 A 
ATOM      6  C   UNL     1       1.682   7.743  20.793  0.00  0.00    +0.000 A 
ATOM      7  C   UNL     1       2.324   6.928  19.854  0.00  0.00    +0.000 A 
ATOM      8  C   UNL     1       2.425   7.386  18.532  0.00  0.00    +0.000 A 
ATOM      9  C   UNL     1       1.885   8.627  18.166  0.00  0.00    +0.000 A 
ATOM     10  C   UNL     1       1.244   9.413  19.118  0.00  0.00    +0.000 A 
ATOM     11  F   UNL     1       0.739  10.594  18.723  0.00  0.00    +0.000 F 
BRANCH   5  13
ATOM     12  N   UNL     1      -0.558   9.218  22.178  0.00  0.00    +0.000 N 
ATOM     13  C   UNL     1       0.476   9.796  21.499  0.00  0.00    +0.000 C 
ATOM     14  O   UNL     1       0.821  10.942  21.758  0.00  0.00    +0.000 OA
ATOM     15  H   UNL     1      -1.040   9.776  22.869  0.00  0.00    +0.000 HD
ATOM     16  H   UNL     1      -0.899   8.287  21.975  0.00  0.00    +0.000 HD
ENDBRANCH   5  13
ENDBRANCH   1   7
BRANCH   2  17
ATOM     17  C   UNL     1       3.078   3.224  20.416  0.00  0.00    +0.000 C 
BRANCH  17  18
ATOM     18  O   UNL     1       4.409   3.446  19.969  0.00  0.00    +0.000 OA
BRANCH  18  19
ATOM     19  C   UNL     1       4.610   3.669  18.628  0.00  0.00    +0.000 A 
ATOM     20  C   UNL     1       3.885   3.025  17.622  0.00  0.00    +0.000 A 
ATOM     21  C   UNL     1       4.181   3.270  16.285  0.00  0.00    +0.000 A 
ATOM     22  C   UNL     1       5.198   4.160  15.939  0.00  0.00    +0.000 A 
ATOM     23 CL   UNL     1       5.489   4.383  14.243  0.00  0.00    +0.000 Cl
ATOM     24  C   UNL     1       5.943   4.845  16.929  0.00  0.00    +0.000 A 
ATOM     25  C   UNL     1       6.971   5.772  16.628  0.00  0.00    +0.000 A 
ATOM     26  C   UNL     1       7.672   6.446  17.628  0.00  0.00    +0.000 A 
ATOM     27  C   UNL     1       7.366   6.209  18.958  0.00  0.00    +0.000 A 
ATOM     28  C   UNL     1       6.365   5.293  19.285  0.00  0.00    +0.000 A 
ATOM     29  C   UNL     1       5.636   4.595  18.293  0.00  0.00    +0.000 A 
ENDBRANCH  18  19
ENDBRANCH  17  18
ENDBRANCH   2  17
TORSDOF 5
ENDMDL
MODEL 8
REMARK VINA RESULT:      -8.1      1.933      2.169
REMARK  Name = 
REMARK  5 active torsions:
REMARK  status: ('A' for Active; 'I' for Inactive)
REMARK    1  A    between atoms: C_2  and  C_4
REMARK    2  A    between atoms: C_6  and  N_7
REMARK    3  A    between atoms: C_8  and  C_10
REMARK    4  A    between atoms: C_10  and  O_11
REMARK    5  A    between atoms: O_11  and  C_12
REMARK                            x       y       z     vdW  Elec       q    Type
REMARK                         _______ _______ _______ _____ _____    ______ ____
ROOT
ATOM      1  N   UNL     1       1.964   7.706  19.537  0.00  0.00    +0.000 N 
ATOM      2  C   UNL     1       2.147   8.449  18.378  0.00  0.00    +0.000 C 
ATOM      3  O   UNL     1       2.739   8.079  17.366  0.00  0.00    +0.000 OA
ATOM      4  H   UNL     1       1.433   8.137  20.292  0.00  0.00    +0.000 HD
ENDROOT
BRANCH   1   7
ATOM      5  C   UNL     1       3.963   4.523  19.360  0.00  0.00    +0.000 A 
ATOM      6  C   UNL     1       3.553   5.846  19.135  0.00  0.00    +0.000 A 
ATOM      7  C   UNL     1       2.412   6.375  19.749  0.00  0.00    +0.000 A 
ATOM      8  C   UNL     1       1.677   5.550  20.614  0.00  0.00    +0.000 A 
ATOM      9  C   UNL     1       2.077   4.227  20.844  0.00  0.00    +0.000 A 
ATOM     10  C   UNL     1       3.211   3.724  20.214  0.00  0.00    +0.000 A 
ATOM     11  F   UNL     1       3.555   2.449  20.463  0.00  0.00    +0.000 F 
BRANCH   5  13
ATOM     12  N   UNL     1       5.028   3.272  17.555  0.00  0.00    +0.000 N 
ATOM     13  C   UNL     1       5.193   4.039  18.672  0.00  0.00    +0.000 C 
ATOM     14  O   UNL     1       6.317   4.295  19.085  0.00  0.00    +0.000 OA
ATOM     15  H   UNL     1       5.856   2.904  17.108  0.00  0.00    +0.000 HD
ATOM     16  H   UNL     1       4.120   3.006  17.196  0.00  0.00    +0.000 HD
ENDBRANCH   5  13
ENDBRANCH   1   7
BRANCH   2  17
ATOM     17  C   UNL     1       1.549   9.849  18.412  0.00  0.00    +0.000 C 
BRANCH  17  18
ATOM     18  O   UNL     1       0.196   9.742  17.988  0.00  0.00    +0.000 OA
BRANCH  18  19
ATOM     19  C   UNL     1      -0.729  10.577  18.568  0.00  0.00    +0.000 A 
ATOM     20  C   UNL     1      -0.526  11.223  19.790  0.00  0.00    +0.000 A 
ATOM     21  C   UNL     1      -1.531  12.016  20.334  0.00  0.00    +0.000 A 
ATOM     22  C   UNL     1      -2.745  12.174  19.665  0.00  0.00    +0.000 A 
ATOM     23 CL   UNL     1      -3.931  13.175  20.439  0.00  0.00    +0.000 Cl
ATOM     24  C   UNL     1      -2.982  11.550  18.417  0.00  0.00    +0.000 A 
ATOM     25  C   UNL     1      -4.190  11.696  17.690  0.00  0.00    +0.000 A 
ATOM     26  C   UNL     1      -4.383  11.084  16.451  0.00  0.00    +0.000 A 
ATOM     27  C   UNL     1      -3.374  10.305  15.907  0.00  0.00    +0.000 A 
ATOM     28  C   UNL     1      -2.178  10.135  16.606  0.00  0.00    +0.000 A 
ATOM     29  C   UNL     1      -1.952  10.744  17.862  0.00  0.00    +0.000 A 
ENDBRANCH  18  19
ENDBRANCH  17  18
ENDBRANCH   2  17
TORSDOF 5
ENDMDL
MODEL 9
REMARK VINA RESULT:      -8.1      4.681      9.358
REMARK  Name = 
REMARK  5 active torsions:
REMARK  status: ('A' for Active; 'I' for Inactive)
REMARK    1  A    between atoms: C_2  and  C_4
REMARK    2  A    between atoms: C_6  and  N_7
REMARK    3  A    between atoms: C_8  and  C_10
REMARK    4  A    between atoms: C_10  and  O_11
REMARK    5  A    between atoms: O_11  and  C_12
REMARK                            x       y       z     vdW  Elec       q    Type
REMARK                         _______ _______ _______ _____ _____    ______ ____
ROOT
ATOM      1  N   UNL     1       0.175   9.953  17.732  0.00  0.00    +0.000 N 
ATOM      2  C   UNL     1       1.056   9.325  18.603  0.00  0.00    +0.000 C 
ATOM      3  O   UNL     1       0.910   9.205  19.819  0.00  0.00    +0.000 OA
ATOM      4  H   UNL     1       0.418   9.959  16.743  0.00  0.00    +0.000 HD
ENDROOT
BRANCH   1   7
ATOM      5  C   UNL     1      -2.423  12.075  19.437  0.00  0.00    +0.000 A 
ATOM      6  C   UNL     1      -1.183  11.511  19.102  0.00  0.00    +0.000 A 
ATOM      7  C   UNL     1      -1.062  10.551  18.090  0.00  0.00    +0.000 A 
ATOM      8  C   UNL     1      -2.220  10.162  17.400  0.00  0.00    +0.000 A 
ATOM      9  C   UNL     1      -3.464  10.718  17.727  0.00  0.00    +0.000 A 
ATOM     10  C   UNL     1      -3.556  11.665  18.743  0.00  0.00    +0.000 A 
ATOM     11  F   UNL     1      -4.769  12.169  19.024  0.00  0.00    +0.000 F 
BRANCH   5  13
ATOM     12  N   UNL     1      -3.053  12.738  21.700  0.00  0.00    +0.000 N 
ATOM     13  C   UNL     1      -2.463  13.095  20.522  0.00  0.00    +0.000 C 
ATOM     14  O   UNL     1      -2.005  14.222  20.378  0.00  0.00    +0.000 OA
ATOM     15  H   UNL     1      -3.124  13.438  22.425  0.00  0.00    +0.000 HD
ATOM     16  H   UNL     1      -3.475  11.831  21.853  0.00  0.00    +0.000 HD
ENDBRANCH   5  13
ENDBRANCH   1   7
BRANCH   2  17
ATOM     17  C   UNL     1       2.307   8.753  17.951  0.00  0.00    +0.000 C 
BRANCH  17  18
ATOM     18  O   UNL     1       2.563   7.493  18.556  0.00  0.00    +0.000 OA
BRANCH  18  19
ATOM     19  C   UNL     1       3.388   6.615  17.894  0.00  0.00    +0.000 A 
ATOM     20  C   UNL     1       4.546   7.006  17.218  0.00  0.00    +0.000 A 
ATOM     21  C   UNL     1       5.304   6.063  16.531  0.00  0.00    +0.000 A 
ATOM     22  C   UNL     1       4.917   4.723  16.515  0.00  0.00    +0.000 A 
ATOM     23 CL   UNL     1       5.929   3.635  15.621  0.00  0.00    +0.000 Cl
ATOM     24  C   UNL     1       3.760   4.285  17.203  0.00  0.00    +0.000 A 
ATOM     25  C   UNL     1       3.336   2.933  17.233  0.00  0.00    +0.000 A 
ATOM     26  C   UNL     1       2.202   2.531  17.939  0.00  0.00    +0.000 A 
ATOM     27  C   UNL     1       1.457   3.472  18.632  0.00  0.00    +0.000 A 
ATOM     28  C   UNL     1       1.845   4.813  18.612  0.00  0.00    +0.000 A 
ATOM     29  C   UNL     1       2.990   5.250  17.906  0.00  0.00    +0.000 A 
ENDBRANCH  18  19
ENDBRANCH  17  18
ENDBRANCH   2  17
TORSDOF 5
ENDMDL
