MODEL 1
REMARK VINA RESULT:      -9.0      0.000      0.000
REMARK  Name = 
REMARK  8 active torsions:
REMARK  status: ('A' for Active; 'I' for Inactive)
REMARK    1  A    between atoms: C_1  and  C_2
REMARK    2  A    between atoms: C_2  and  N_3
REMARK    3  A    between atoms: C_2  and  C_21
REMARK    4  A    between atoms: C_4  and  C_6
REMARK    5  A    between atoms: C_6  and  N_7
REMARK    6  A    between atoms: C_8  and  C_10
REMARK    7  A    between atoms: C_10  and  C_11
REMARK    8  A    between atoms: C_25  and  C_26
REMARK                            x       y       z     vdW  Elec       q    Type
REMARK                         _______ _______ _______ _____ _____    ______ ____
ROOT
ATOM      1  N   UNL     1       6.487   6.899  17.047  0.00  0.00    +0.000 N 
ATOM      2  C   UNL     1       7.496   7.378  17.863  0.00  0.00    +0.000 C 
ATOM      3  O   UNL     1       8.098   6.675  18.670  0.00  0.00    +0.000 OA
ATOM      4  H   UNL     1       5.869   7.564  16.610  0.00  0.00    +0.000 HD
ENDROOT
BRANCH   1   6
ATOM      5  C   UNL     1       6.220   4.866  15.695  0.00  0.00    +0.000 C 
ATOM      6  C   UNL     1       6.081   5.495  17.081  0.00  0.00    +0.000 C 
BRANCH   6   7
ATOM      7  C   UNL     1       4.663   5.360  17.606  0.00  0.00    +0.000 A 
ATOM      8  C   UNL     1       3.858   6.498  17.763  0.00  0.00    +0.000 A 
ATOM      9  C   UNL     1       2.524   6.378  18.153  0.00  0.00    +0.000 A 
ATOM     10  C   UNL     1       1.969   5.118  18.365  0.00  0.00    +0.000 A 
ATOM     11  C   UNL     1       2.750   3.966  18.215  0.00  0.00    +0.000 A 
ATOM     12  C   UNL     1       4.107   4.100  17.881  0.00  0.00    +0.000 A 
BRANCH  11  13
ATOM     13  C   UNL     1       2.141   2.591  18.316  0.00  0.00    +0.000 C 
ATOM     14  F   UNL     1       2.582   1.725  17.362  0.00  0.00    +0.000 F 
ATOM     15  F   UNL     1       2.435   2.000  19.510  0.00  0.00    +0.000 F 
ATOM     16  F   UNL     1       0.784   2.598  18.227  0.00  0.00    +0.000 F 
ENDBRANCH  11  13
ENDBRANCH   6   7
ENDBRANCH   1   6
BRANCH   2  17
ATOM     17  C   UNL     1       7.760   8.880  17.723  0.00  0.00    +0.000 C 
BRANCH  17  18
ATOM     18  N   UNL     1       8.843   9.335  18.572  0.00  0.00    +0.000 N 
ATOM     19  C   UNL     1       9.188  10.669  18.612  0.00  0.00    +0.000 C 
ATOM     20  O   UNL     1       8.606  11.535  17.958  0.00  0.00    +0.000 OA
ATOM     21  H   UNL     1       9.259   8.695  19.237  0.00  0.00    +0.000 HD
BRANCH  19  22
ATOM     22  C   UNL     1      10.362  11.000  19.513  0.00  0.00    +0.000 C 
BRANCH  22  23
ATOM     23  C   UNL     1      10.252  12.344  20.207  0.00  0.00    +0.000 A 
ATOM     24  C   UNL     1      11.041  13.404  19.708  0.00  0.00    +0.000 A 
ATOM     25  C   UNL     1      11.064  14.641  20.345  0.00  0.00    +0.000 A 
ATOM     26  C   UNL     1      10.312  14.839  21.496  0.00  0.00    +0.000 A 
ATOM     27  C   UNL     1       9.510  13.812  22.020  0.00  0.00    +0.000 A 
ATOM     28  C   UNL     1       8.774  14.033  23.196  0.00  0.00    +0.000 A 
ATOM     29  C   UNL     1       7.975  13.030  23.743  0.00  0.00    +0.000 A 
ATOM     30  C   UNL     1       7.890  11.799  23.112  0.00  0.00    +0.000 A 
ATOM     31  C   UNL     1       8.617  11.567  21.940  0.00  0.00    +0.000 A 
ATOM     32  C   UNL     1       9.457  12.551  21.369  0.00  0.00    +0.000 A 
ENDBRANCH  22  23
ENDBRANCH  19  22
ENDBRANCH  17  18
ENDBRANCH   2  17
TORSDOF 7
ENDMDL
MODEL 2
REMARK VINA RESULT:      -8.9      0.728      2.157
REMARK  Name = 
REMARK  8 active torsions:
REMARK  status: ('A' for Active; 'I' for Inactive)
REMARK    1  A    between atoms: C_1  and  C_2
REMARK    2  A    between atoms: C_2  and  N_3
REMARK    3  A    between atoms: C_2  and  C_21
REMARK    4  A    between atoms: C_4  and  C_6
REMARK    5  A    between atoms: C_6  and  N_7
REMARK    6  A    between atoms: C_8  and  C_10
REMARK    7  A    between atoms: C_10  and  C_11
REMARK    8  A    between atoms: C_25  and  C_26
REMARK                            x       y       z     vdW  Elec       q    Type
REMARK                         _______ _______ _______ _____ _____    ______ ____
ROOT
ATOM      1  N   UNL     1       6.705   7.293  16.910  0.00  0.00    +0.000 N 
ATOM      2  C   UNL     1       7.656   7.698  17.830  0.00  0.00    +0.000 C 
ATOM      3  O   UNL     1       8.144   6.943  18.667  0.00  0.00    +0.000 OA
ATOM      4  H   UNL     1       6.164   8.001  16.438  0.00  0.00    +0.000 HD
ENDROOT
BRANCH   1   6
ATOM      5  C   UNL     1       6.306   5.370  15.435  0.00  0.00    +0.000 C 
ATOM      6  C   UNL     1       6.229   5.911  16.862  0.00  0.00    +0.000 C 
BRANCH   6   7
ATOM      7  C   UNL     1       4.817   5.812  17.412  0.00  0.00    +0.000 A 
ATOM      8  C   UNL     1       4.047   6.971  17.590  0.00  0.00    +0.000 A 
ATOM      9  C   UNL     1       2.718   6.885  18.004  0.00  0.00    +0.000 A 
ATOM     10  C   UNL     1       2.132   5.639  18.219  0.00  0.00    +0.000 A 
ATOM     11  C   UNL     1       2.878   4.467  18.049  0.00  0.00    +0.000 A 
ATOM     12  C   UNL     1       4.233   4.566  17.690  0.00  0.00    +0.000 A 
BRANCH  11  13
ATOM     13  C   UNL     1       2.234   3.108  18.153  0.00  0.00    +0.000 C 
ATOM     14  F   UNL     1       2.495   2.296  17.092  0.00  0.00    +0.000 F 
ATOM     15  F   UNL     1       2.674   2.429  19.252  0.00  0.00    +0.000 F 
ATOM     16  F   UNL     1       0.881   3.164  18.267  0.00  0.00    +0.000 F 
ENDBRANCH  11  13
ENDBRANCH   6   7
ENDBRANCH   1   6
BRANCH   2  17
ATOM     17  C   UNL     1       8.005   9.187  17.761  0.00  0.00    +0.000 C 
BRANCH  17  18
ATOM     18  N   UNL     1       8.948   9.584  18.788  0.00  0.00    +0.000 N 
ATOM     19  C   UNL     1       9.576  10.809  18.726  0.00  0.00    +0.000 C 
ATOM     20  O   UNL     1       9.371  11.626  17.827  0.00  0.00    +0.000 OA
ATOM     21  H   UNL     1       9.046   9.017  19.622  0.00  0.00    +0.000 HD
BRANCH  19  22
ATOM     22  C   UNL     1      10.566  11.079  19.843  0.00  0.00    +0.000 C 
BRANCH  22  23
ATOM     23  C   UNL     1      10.145  12.187  20.789  0.00  0.00    +0.000 A 
ATOM     24  C   UNL     1       9.156  11.886  21.750  0.00  0.00    +0.000 A 
ATOM     25  C   UNL     1       8.651  12.872  22.593  0.00  0.00    +0.000 A 
ATOM     26  C   UNL     1       9.115  14.177  22.484  0.00  0.00    +0.000 A 
ATOM     27  C   UNL     1      10.102  14.516  21.544  0.00  0.00    +0.000 A 
ATOM     28  C   UNL     1      10.539  15.846  21.442  0.00  0.00    +0.000 A 
ATOM     29  C   UNL     1      11.514  16.213  20.515  0.00  0.00    +0.000 A 
ATOM     30  C   UNL     1      12.073  15.252  19.688  0.00  0.00    +0.000 A 
ATOM     31  C   UNL     1      11.647  13.922  19.781  0.00  0.00    +0.000 A 
ATOM     32  C   UNL     1      10.645  13.517  20.693  0.00  0.00    +0.000 A 
ENDBRANCH  22  23
ENDBRANCH  19  22
ENDBRANCH  17  18
ENDBRANCH   2  17
TORSDOF 7
ENDMDL
MODEL 3
REMARK VINA RESULT:      -8.8      1.452      2.202
REMARK  Name = 
REMARK  8 active torsions:
REMARK  status: ('A' for Active; 'I' for Inactive)
REMARK    1  A    between atoms: C_1  and  C_2
REMARK    2  A    between atoms: C_2  and  N_3
REMARK    3  A    between atoms: C_2  and  C_21
REMARK    4  A    between atoms: C_4  and  C_6
REMARK    5  A    between atoms: C_6  and  N_7
REMARK    6  A    between atoms: C_8  and  C_10
REMARK    7  A    between atoms: C_10  and  C_11
REMARK    8  A    between atoms: C_25  and  C_26
REMARK                            x       y       z     vdW  Elec       q    Type
REMARK                         _______ _______ _______ _____ _____    ______ ____
ROOT
ATOM      1  N   UNL     1       6.040   6.285  17.869  0.00  0.00    +0.000 N 
ATOM      2  C   UNL     1       7.381   6.560  18.076  0.00  0.00    +0.000 C 
ATOM      3  O   UNL     1       8.176   5.731  18.509  0.00  0.00    +0.000 OA
ATOM      4  H   UNL     1       5.404   7.060  17.768  0.00  0.00    +0.000 HD
ENDROOT
BRANCH   1   6
ATOM      5  C   UNL     1       5.177   4.235  16.829  0.00  0.00    +0.000 C 
ATOM      6  C   UNL     1       5.483   4.961  18.138  0.00  0.00    +0.000 C 
BRANCH   6   7
ATOM      7  C   UNL     1       4.243   5.069  19.009  0.00  0.00    +0.000 A 
ATOM      8  C   UNL     1       3.504   6.260  19.037  0.00  0.00    +0.000 A 
ATOM      9  C   UNL     1       2.312   6.341  19.758  0.00  0.00    +0.000 A 
ATOM     10  C   UNL     1       1.830   5.223  20.438  0.00  0.00    +0.000 A 
ATOM     11  C   UNL     1       2.548   4.022  20.426  0.00  0.00    +0.000 A 
ATOM     12  C   UNL     1       3.777   3.969  19.747  0.00  0.00    +0.000 A 
BRANCH  11  13
ATOM     13  C   UNL     1       1.986   2.769  21.046  0.00  0.00    +0.000 C 
ATOM     14  F   UNL     1       0.780   2.951  21.652  0.00  0.00    +0.000 F 
ATOM     15  F   UNL     1       1.783   1.796  20.111  0.00  0.00    +0.000 F 
ATOM     16  F   UNL     1       2.805   2.221  21.983  0.00  0.00    +0.000 F 
ENDBRANCH  11  13
ENDBRANCH   6   7
ENDBRANCH   1   6
BRANCH   2  17
ATOM     17  C   UNL     1       7.780   8.008  17.780  0.00  0.00    +0.000 C 
BRANCH  17  18
ATOM     18  N   UNL     1       8.601   8.583  18.827  0.00  0.00    +0.000 N 
ATOM     19  C   UNL     1       8.921   9.923  18.811  0.00  0.00    +0.000 C 
ATOM     20  O   UNL     1       8.529  10.698  17.937  0.00  0.00    +0.000 OA
ATOM     21  H   UNL     1       8.830   8.028  19.643  0.00  0.00    +0.000 HD
BRANCH  19  22
ATOM     22  C   UNL     1       9.817  10.382  19.944  0.00  0.00    +0.000 C 
BRANCH  22  23
ATOM     23  C   UNL     1      10.541  11.687  19.672  0.00  0.00    +0.000 A 
ATOM     24  C   UNL     1      11.561  11.677  18.697  0.00  0.00    +0.000 A 
ATOM     25  C   UNL     1      12.333  12.809  18.454  0.00  0.00    +0.000 A 
ATOM     26  C   UNL     1      12.110  13.967  19.189  0.00  0.00    +0.000 A 
ATOM     27  C   UNL     1      11.101  14.019  20.165  0.00  0.00    +0.000 A 
ATOM     28  C   UNL     1      10.909  15.196  20.907  0.00  0.00    +0.000 A 
ATOM     29  C   UNL     1       9.920  15.275  21.886  0.00  0.00    +0.000 A 
ATOM     30  C   UNL     1       9.101  14.182  22.125  0.00  0.00    +0.000 A 
ATOM     31  C   UNL     1       9.282  13.005  21.392  0.00  0.00    +0.000 A 
ATOM     32  C   UNL     1      10.289  12.879  20.408  0.00  0.00    +0.000 A 
ENDBRANCH  22  23
ENDBRANCH  19  22
ENDBRANCH  17  18
ENDBRANCH   2  17
TORSDOF 7
ENDMDL
MODEL 4
REMARK VINA RESULT:      -8.8      0.566      2.151
REMARK  Name = 
REMARK  8 active torsions:
REMARK  status: ('A' for Active; 'I' for Inactive)
REMARK    1  A    between atoms: C_1  and  C_2
REMARK    2  A    between atoms: C_2  and  N_3
REMARK    3  A    between atoms: C_2  and  C_21
REMARK    4  A    between atoms: C_4  and  C_6
REMARK    5  A    between atoms: C_6  and  N_7
REMARK    6  A    between atoms: C_8  and  C_10
REMARK    7  A    between atoms: C_10  and  C_11
REMARK    8  A    between atoms: C_25  and  C_26
REMARK                            x       y       z     vdW  Elec       q    Type
REMARK                         _______ _______ _______ _____ _____    ______ ____
ROOT
ATOM      1  N   UNL     1       6.570   6.650  17.263  0.00  0.00    +0.000 N 
ATOM      2  C   UNL     1       7.602   7.192  18.009  0.00  0.00    +0.000 C 
ATOM      3  O   UNL     1       8.227   6.554  18.851  0.00  0.00    +0.000 OA
ATOM      4  H   UNL     1       5.938   7.278  16.793  0.00  0.00    +0.000 HD
ENDROOT
BRANCH   1   6
ATOM      5  C   UNL     1       6.436   4.473  16.133  0.00  0.00    +0.000 C 
ATOM      6  C   UNL     1       6.168   5.253  17.420  0.00  0.00    +0.000 C 
BRANCH   6   7
ATOM      7  C   UNL     1       4.707   5.159  17.825  0.00  0.00    +0.000 A 
ATOM      8  C   UNL     1       3.878   6.287  17.740  0.00  0.00    +0.000 A 
ATOM      9  C   UNL     1       2.515   6.190  18.019  0.00  0.00    +0.000 A 
ATOM     10  C   UNL     1       1.957   4.959  18.359  0.00  0.00    +0.000 A 
ATOM     11  C   UNL     1       2.762   3.818  18.451  0.00  0.00    +0.000 A 
ATOM     12  C   UNL     1       4.144   3.938  18.227  0.00  0.00    +0.000 A 
BRANCH  11  13
ATOM     13  C   UNL     1       2.163   2.456  18.693  0.00  0.00    +0.000 C 
ATOM     14  F   UNL     1       2.137   2.095  20.006  0.00  0.00    +0.000 F 
ATOM     15  F   UNL     1       0.866   2.398  18.272  0.00  0.00    +0.000 F 
ATOM     16  F   UNL     1       2.814   1.460  18.036  0.00  0.00    +0.000 F 
ENDBRANCH  11  13
ENDBRANCH   6   7
ENDBRANCH   1   6
BRANCH   2  17
ATOM     17  C   UNL     1       7.859   8.677  17.742  0.00  0.00    +0.000 C 
BRANCH  17  18
ATOM     18  N   UNL     1       8.897   9.223  18.594  0.00  0.00    +0.000 N 
ATOM     19  C   UNL     1       9.161  10.575  18.597  0.00  0.00    +0.000 C 
ATOM     20  O   UNL     1       8.541  11.384  17.906  0.00  0.00    +0.000 OA
ATOM     21  H   UNL     1       9.338   8.629  19.287  0.00  0.00    +0.000 HD
BRANCH  19  22
ATOM     22  C   UNL     1      10.297  11.004  19.506  0.00  0.00    +0.000 C 
BRANCH  22  23
ATOM     23  C   UNL     1       9.872  11.917  20.641  0.00  0.00    +0.000 A 
ATOM     24  C   UNL     1       8.922  11.419  21.559  0.00  0.00    +0.000 A 
ATOM     25  C   UNL     1       8.414  12.226  22.573  0.00  0.00    +0.000 A 
ATOM     26  C   UNL     1       8.833  13.546  22.681  0.00  0.00    +0.000 A 
ATOM     27  C   UNL     1       9.780  14.077  21.789  0.00  0.00    +0.000 A 
ATOM     28  C   UNL     1      10.173  15.420  21.909  0.00  0.00    +0.000 A 
ATOM     29  C   UNL     1      11.107  15.976  21.035  0.00  0.00    +0.000 A 
ATOM     30  C   UNL     1      11.669  15.192  20.040  0.00  0.00    +0.000 A 
ATOM     31  C   UNL     1      11.287  13.852  19.912  0.00  0.00    +0.000 A 
ATOM     32  C   UNL     1      10.327  13.260  20.764  0.00  0.00    +0.000 A 
ENDBRANCH  22  23
ENDBRANCH  19  22
ENDBRANCH  17  18
ENDBRANCH   2  17
TORSDOF 7
ENDMDL
MODEL 5
REMARK VINA RESULT:      -8.8      2.007      2.491
REMARK  Name = 
REMARK  8 active torsions:
REMARK  status: ('A' for Active; 'I' for Inactive)
REMARK    1  A    between atoms: C_1  and  C_2
REMARK    2  A    between atoms: C_2  and  N_3
REMARK    3  A    between atoms: C_2  and  C_21
REMARK    4  A    between atoms: C_4  and  C_6
REMARK    5  A    between atoms: C_6  and  N_7
REMARK    6  A    between atoms: C_8  and  C_10
REMARK    7  A    between atoms: C_10  and  C_11
REMARK    8  A    between atoms: C_25  and  C_26
REMARK                            x       y       z     vdW  Elec       q    Type
REMARK                         _______ _______ _______ _____ _____    ______ ____
ROOT
ATOM      1  N   UNL     1       7.050   6.925  16.821  0.00  0.00    +0.000 N 
ATOM      2  C   UNL     1       7.781   7.378  17.905  0.00  0.00    +0.000 C 
ATOM      3  O   UNL     1       8.053   6.673  18.873  0.00  0.00    +0.000 OA
ATOM      4  H   UNL     1       6.643   7.607  16.201  0.00  0.00    +0.000 HD
ENDROOT
BRANCH   1   6
ATOM      5  C   UNL     1       6.809   4.969  15.355  0.00  0.00    +0.000 C 
ATOM      6  C   UNL     1       6.566   5.547  16.749  0.00  0.00    +0.000 C 
BRANCH   6   7
ATOM      7  C   UNL     1       5.097   5.475  17.126  0.00  0.00    +0.000 A 
ATOM      8  C   UNL     1       4.486   4.232  17.345  0.00  0.00    +0.000 A 
ATOM      9  C   UNL     1       3.164   4.156  17.784  0.00  0.00    +0.000 A 
ATOM     10  C   UNL     1       2.444   5.323  18.036  0.00  0.00    +0.000 A 
ATOM     11  C   UNL     1       3.030   6.576  17.825  0.00  0.00    +0.000 A 
ATOM     12  C   UNL     1       4.341   6.641  17.326  0.00  0.00    +0.000 A 
BRANCH  11  13
ATOM     13  C   UNL     1       2.316   7.847  18.209  0.00  0.00    +0.000 C 
ATOM     14  F   UNL     1       2.045   7.942  19.540  0.00  0.00    +0.000 F 
ATOM     15  F   UNL     1       3.061   8.950  17.908  0.00  0.00    +0.000 F 
ATOM     16  F   UNL     1       1.130   8.010  17.565  0.00  0.00    +0.000 F 
ENDBRANCH  11  13
ENDBRANCH   6   7
ENDBRANCH   1   6
BRANCH   2  17
ATOM     17  C   UNL     1       8.168   8.857  17.830  0.00  0.00    +0.000 C 
BRANCH  17  18
ATOM     18  N   UNL     1       8.951   9.285  18.973  0.00  0.00    +0.000 N 
ATOM     19  C   UNL     1       9.331  10.603  19.107  0.00  0.00    +0.000 C 
ATOM     20  O   UNL     1       9.027  11.478  18.295  0.00  0.00    +0.000 OA
ATOM     21  H   UNL     1       9.105   8.643  19.741  0.00  0.00    +0.000 HD
BRANCH  19  22
ATOM     22  C   UNL     1      10.177  10.904  20.329  0.00  0.00    +0.000 C 
BRANCH  22  23
ATOM     23  C   UNL     1       9.980  12.299  20.891  0.00  0.00    +0.000 A 
ATOM     24  C   UNL     1      10.730  13.348  20.315  0.00  0.00    +0.000 A 
ATOM     25  C   UNL     1      10.673  14.638  20.834  0.00  0.00    +0.000 A 
ATOM     26  C   UNL     1       9.880  14.902  21.943  0.00  0.00    +0.000 A 
ATOM     27  C   UNL     1       9.115  13.887  22.541  0.00  0.00    +0.000 A 
ATOM     28  C   UNL     1       8.335  14.177  23.673  0.00  0.00    +0.000 A 
ATOM     29  C   UNL     1       7.571  13.189  24.291  0.00  0.00    +0.000 A 
ATOM     30  C   UNL     1       7.566  11.902  23.777  0.00  0.00    +0.000 A 
ATOM     31  C   UNL     1       8.337  11.601  22.650  0.00  0.00    +0.000 A 
ATOM     32  C   UNL     1       9.143  12.570  22.009  0.00  0.00    +0.000 A 
ENDBRANCH  22  23
ENDBRANCH  19  22
ENDBRANCH  17  18
ENDBRANCH   2  17
TORSDOF 7
ENDMDL
MODEL 6
REMARK VINA RESULT:      -8.8      0.868      1.101
REMARK  Name = 
REMARK  8 active torsions:
REMARK  status: ('A' for Active; 'I' for Inactive)
REMARK    1  A    between atoms: C_1  and  C_2
REMARK    2  A    between atoms: C_2  and  N_3
REMARK    3  A    between atoms: C_2  and  C_21
REMARK    4  A    between atoms: C_4  and  C_6
REMARK    5  A    between atoms: C_6  and  N_7
REMARK    6  A    between atoms: C_8  and  C_10
REMARK    7  A    between atoms: C_10  and  C_11
REMARK    8  A    between atoms: C_25  and  C_26
REMARK                            x       y       z     vdW  Elec       q    Type
REMARK                         _______ _______ _______ _____ _____    ______ ____
ROOT
ATOM      1  N   UNL     1       6.912   6.989  16.873  0.00  0.00    +0.000 N 
ATOM      2  C   UNL     1       7.721   7.485  17.880  0.00  0.00    +0.000 C 
ATOM      3  O   UNL     1       8.137   6.795  18.807  0.00  0.00    +0.000 OA
ATOM      4  H   UNL     1       6.399   7.645  16.305  0.00  0.00    +0.000 HD
ENDROOT
BRANCH   1   6
ATOM      5  C   UNL     1       6.379   5.103  15.392  0.00  0.00    +0.000 C 
ATOM      6  C   UNL     1       6.513   5.583  16.837  0.00  0.00    +0.000 C 
BRANCH   6   7
ATOM      7  C   UNL     1       5.221   5.374  17.607  0.00  0.00    +0.000 A 
ATOM      8  C   UNL     1       4.143   6.254  17.429  0.00  0.00    +0.000 A 
ATOM      9  C   UNL     1       2.920   6.018  18.057  0.00  0.00    +0.000 A 
ATOM     10  C   UNL     1       2.749   4.884  18.850  0.00  0.00    +0.000 A 
ATOM     11  C   UNL     1       3.808   3.990  19.044  0.00  0.00    +0.000 A 
ATOM     12  C   UNL     1       5.053   4.268  18.456  0.00  0.00    +0.000 A 
BRANCH  11  13
ATOM     13  C   UNL     1       3.611   2.696  19.792  0.00  0.00    +0.000 C 
ATOM     14  F   UNL     1       2.730   1.847  19.194  0.00  0.00    +0.000 F 
ATOM     15  F   UNL     1       4.778   1.998  19.899  0.00  0.00    +0.000 F 
ATOM     16  F   UNL     1       3.165   2.875  21.063  0.00  0.00    +0.000 F 
ENDBRANCH  11  13
ENDBRANCH   6   7
ENDBRANCH   1   6
BRANCH   2  17
ATOM     17  C   UNL     1       8.003   8.986  17.780  0.00  0.00    +0.000 C 
BRANCH  17  18
ATOM     18  N   UNL     1       8.968   9.436  18.765  0.00  0.00    +0.000 N 
ATOM     19  C   UNL     1       9.416  10.739  18.761  0.00  0.00    +0.000 C 
ATOM     20  O   UNL     1       9.026  11.583  17.953  0.00  0.00    +0.000 OA
ATOM     21  H   UNL     1       9.212   8.829  19.538  0.00  0.00    +0.000 HD
BRANCH  19  22
ATOM     22  C   UNL     1      10.450  11.064  19.821  0.00  0.00    +0.000 C 
BRANCH  22  23
ATOM     23  C   UNL     1      10.411  12.501  20.306  0.00  0.00    +0.000 A 
ATOM     24  C   UNL     1      11.221  13.441  19.633  0.00  0.00    +0.000 A 
ATOM     25  C   UNL     1      11.310  14.757  20.074  0.00  0.00    +0.000 A 
ATOM     26  C   UNL     1      10.603  15.157  21.202  0.00  0.00    +0.000 A 
ATOM     27  C   UNL     1       9.782  14.253  21.896  0.00  0.00    +0.000 A 
ATOM     28  C   UNL     1       9.093  14.678  23.044  0.00  0.00    +0.000 A 
ATOM     29  C   UNL     1       8.275  13.802  23.757  0.00  0.00    +0.000 A 
ATOM     30  C   UNL     1       8.126  12.494  23.323  0.00  0.00    +0.000 A 
ATOM     31  C   UNL     1       8.806  12.059  22.180  0.00  0.00    +0.000 A 
ATOM     32  C   UNL     1       9.662  12.912  21.445  0.00  0.00    +0.000 A 
ENDBRANCH  22  23
ENDBRANCH  19  22
ENDBRANCH  17  18
ENDBRANCH   2  17
TORSDOF 7
ENDMDL
MODEL 7
REMARK VINA RESULT:      -8.8      2.122      2.793
REMARK  Name = 
REMARK  8 active torsions:
REMARK  status: ('A' for Active; 'I' for Inactive)
REMARK    1  A    between atoms: C_1  and  C_2
REMARK    2  A    between atoms: C_2  and  N_3
REMARK    3  A    between atoms: C_2  and  C_21
REMARK    4  A    between atoms: C_4  and  C_6
REMARK    5  A    between atoms: C_6  and  N_7
REMARK    6  A    between atoms: C_8  and  C_10
REMARK    7  A    between atoms: C_10  and  C_11
REMARK    8  A    between atoms: C_25  and  C_26
REMARK                            x       y       z     vdW  Elec       q    Type
REMARK                         _______ _______ _______ _____ _____    ______ ____
ROOT
ATOM      1  N   UNL     1       6.809   6.122  16.619  0.00  0.00    +0.000 N 
ATOM      2  C   UNL     1       7.415   6.689  17.725  0.00  0.00    +0.000 C 
ATOM      3  O   UNL     1       7.427   6.156  18.831  0.00  0.00    +0.000 OA
ATOM      4  H   UNL     1       6.608   6.713  15.828  0.00  0.00    +0.000 HD
ENDROOT
BRANCH   1   6
ATOM      5  C   UNL     1       6.289   4.074  15.366  0.00  0.00    +0.000 C 
ATOM      6  C   UNL     1       6.151   4.818  16.693  0.00  0.00    +0.000 C 
BRANCH   6   7
ATOM      7  C   UNL     1       4.693   4.976  17.085  0.00  0.00    +0.000 A 
ATOM      8  C   UNL     1       3.894   3.844  17.302  0.00  0.00    +0.000 A 
ATOM      9  C   UNL     1       2.581   3.975  17.754  0.00  0.00    +0.000 A 
ATOM     10  C   UNL     1       2.057   5.239  18.022  0.00  0.00    +0.000 A 
ATOM     11  C   UNL     1       2.833   6.385  17.815  0.00  0.00    +0.000 A 
ATOM     12  C   UNL     1       4.134   6.246  17.302  0.00  0.00    +0.000 A 
BRANCH  11  13
ATOM     13  C   UNL     1       2.334   7.749  18.216  0.00  0.00    +0.000 C 
ATOM     14  F   UNL     1       2.020   7.851  19.537  0.00  0.00    +0.000 F 
ATOM     15  F   UNL     1       3.272   8.713  17.987  0.00  0.00    +0.000 F 
ATOM     16  F   UNL     1       1.226   8.137  17.530  0.00  0.00    +0.000 F 
ENDBRANCH  11  13
ENDBRANCH   6   7
ENDBRANCH   1   6
BRANCH   2  17
ATOM     17  C   UNL     1       8.018   8.074  17.473  0.00  0.00    +0.000 C 
BRANCH  17  18
ATOM     18  N   UNL     1       8.670   8.618  18.648  0.00  0.00    +0.000 N 
ATOM     19  C   UNL     1       8.836   9.979  18.790  0.00  0.00    +0.000 C 
ATOM     20  O   UNL     1       8.440  10.795  17.957  0.00  0.00    +0.000 OA
ATOM     21  H   UNL     1       8.884   8.008  19.428  0.00  0.00    +0.000 HD
BRANCH  19  22
ATOM     22  C   UNL     1       9.566  10.408  20.047  0.00  0.00    +0.000 C 
BRANCH  22  23
ATOM     23  C   UNL     1      10.370  11.685  19.892  0.00  0.00    +0.000 A 
ATOM     24  C   UNL     1      11.491  11.651  19.034  0.00  0.00    +0.000 A 
ATOM     25  C   UNL     1      12.332  12.753  18.909  0.00  0.00    +0.000 A 
ATOM     26  C   UNL     1      12.077  13.903  19.646  0.00  0.00    +0.000 A 
ATOM     27  C   UNL     1      10.969  13.978  20.506  0.00  0.00    +0.000 A 
ATOM     28  C   UNL     1      10.745  15.145  21.253  0.00  0.00    +0.000 A 
ATOM     29  C   UNL     1       9.657  15.247  22.120  0.00  0.00    +0.000 A 
ATOM     30  C   UNL     1       8.772  14.187  22.238  0.00  0.00    +0.000 A 
ATOM     31  C   UNL     1       8.984  13.019  21.497  0.00  0.00    +0.000 A 
ATOM     32  C   UNL     1      10.088  12.870  20.627  0.00  0.00    +0.000 A 
ENDBRANCH  22  23
ENDBRANCH  19  22
ENDBRANCH  17  18
ENDBRANCH   2  17
TORSDOF 7
ENDMDL
MODEL 8
REMARK VINA RESULT:      -8.7      1.084      2.334
REMARK  Name = 
REMARK  8 active torsions:
REMARK  status: ('A' for Active; 'I' for Inactive)
REMARK    1  A    between atoms: C_1  and  C_2
REMARK    2  A    between atoms: C_2  and  N_3
REMARK    3  A    between atoms: C_2  and  C_21
REMARK    4  A    between atoms: C_4  and  C_6
REMARK    5  A    between atoms: C_6  and  N_7
REMARK    6  A    between atoms: C_8  and  C_10
REMARK    7  A    between atoms: C_10  and  C_11
REMARK    8  A    between atoms: C_25  and  C_26
REMARK                            x       y       z     vdW  Elec       q    Type
REMARK                         _______ _______ _______ _____ _____    ______ ____
ROOT
ATOM      1  N   UNL     1       6.450   6.707  17.374  0.00  0.00    +0.000 N 
ATOM      2  C   UNL     1       7.544   7.239  18.033  0.00  0.00    +0.000 C 
ATOM      3  O   UNL     1       8.231   6.595  18.821  0.00  0.00    +0.000 OA
ATOM      4  H   UNL     1       5.787   7.341  16.958  0.00  0.00    +0.000 HD
ENDROOT
BRANCH   1   6
ATOM      5  C   UNL     1       6.081   4.564  16.231  0.00  0.00    +0.000 C 
ATOM      6  C   UNL     1       6.049   5.313  17.563  0.00  0.00    +0.000 C 
BRANCH   6   7
ATOM      7  C   UNL     1       4.676   5.233  18.206  0.00  0.00    +0.000 A 
ATOM      8  C   UNL     1       3.626   6.030  17.727  0.00  0.00    +0.000 A 
ATOM      9  C   UNL     1       2.338   5.898  18.247  0.00  0.00    +0.000 A 
ATOM     10  C   UNL     1       2.076   4.947  19.232  0.00  0.00    +0.000 A 
ATOM     11  C   UNL     1       3.106   4.138  19.727  0.00  0.00    +0.000 A 
ATOM     12  C   UNL     1       4.412   4.322  19.241  0.00  0.00    +0.000 A 
BRANCH  11  13
ATOM     13  C   UNL     1       2.824   3.021  20.698  0.00  0.00    +0.000 C 
ATOM     14  F   UNL     1       1.849   2.167  20.282  0.00  0.00    +0.000 F 
ATOM     15  F   UNL     1       3.928   2.245  20.902  0.00  0.00    +0.000 F 
ATOM     16  F   UNL     1       2.446   3.463  21.927  0.00  0.00    +0.000 F 
ENDBRANCH  11  13
ENDBRANCH   6   7
ENDBRANCH   1   6
BRANCH   2  17
ATOM     17  C   UNL     1       7.791   8.722  17.746  0.00  0.00    +0.000 C 
BRANCH  17  18
ATOM     18  N   UNL     1       8.848   9.278  18.568  0.00  0.00    +0.000 N 
ATOM     19  C   UNL     1       9.159  10.619  18.497  0.00  0.00    +0.000 C 
ATOM     20  O   UNL     1       8.565  11.410  17.763  0.00  0.00    +0.000 OA
ATOM     21  H   UNL     1       9.270   8.708  19.291  0.00  0.00    +0.000 HD
BRANCH  19  22
ATOM     22  C   UNL     1      10.310  11.057  19.382  0.00  0.00    +0.000 C 
BRANCH  22  23
ATOM     23  C   UNL     1       9.892  11.912  20.563  0.00  0.00    +0.000 A 
ATOM     24  C   UNL     1       8.966  11.360  21.475  0.00  0.00    +0.000 A 
ATOM     25  C   UNL     1       8.465  12.113  22.532  0.00  0.00    +0.000 A 
ATOM     26  C   UNL     1       8.868  13.433  22.692  0.00  0.00    +0.000 A 
ATOM     27  C   UNL     1       9.792  14.017  21.809  0.00  0.00    +0.000 A 
ATOM     28  C   UNL     1      10.168  15.359  21.983  0.00  0.00    +0.000 A 
ATOM     29  C   UNL     1      11.078  15.967  21.119  0.00  0.00    +0.000 A 
ATOM     30  C   UNL     1      11.633  15.237  20.080  0.00  0.00    +0.000 A 
ATOM     31  C   UNL     1      11.267  13.899  19.898  0.00  0.00    +0.000 A 
ATOM     32  C   UNL     1      10.331  13.255  20.739  0.00  0.00    +0.000 A 
ENDBRANCH  22  23
ENDBRANCH  19  22
ENDBRANCH  17  18
ENDBRANCH   2  17
TORSDOF 7
ENDMDL
MODEL 9
REMARK VINA RESULT:      -8.6      1.178      1.933
REMARK  Name = 
REMARK  8 active torsions:
REMARK  status: ('A' for Active; 'I' for Inactive)
REMARK    1  A    between atoms: C_1  and  C_2
REMARK    2  A    between atoms: C_2  and  N_3
REMARK    3  A    between atoms: C_2  and  C_21
REMARK    4  A    between atoms: C_4  and  C_6
REMARK    5  A    between atoms: C_6  and  N_7
REMARK    6  A    between atoms: C_8  and  C_10
REMARK    7  A    between atoms: C_10  and  C_11
REMARK    8  A    between atoms: C_25  and  C_26
REMARK                            x       y       z     vdW  Elec       q    Type
REMARK                         _______ _______ _______ _____ _____    ______ ____
ROOT
ATOM      1  N   UNL     1       6.882   6.153  16.675  0.00  0.00    +0.000 N 
ATOM      2  C   UNL     1       7.459   6.780  17.765  0.00  0.00    +0.000 C 
ATOM      3  O   UNL     1       7.586   6.239  18.860  0.00  0.00    +0.000 OA
ATOM      4  H   UNL     1       6.573   6.723  15.904  0.00  0.00    +0.000 HD
ENDROOT
BRANCH   1   6
ATOM      5  C   UNL     1       6.287   4.167  15.358  0.00  0.00    +0.000 C 
ATOM      6  C   UNL     1       6.398   4.775  16.756  0.00  0.00    +0.000 C 
BRANCH   6   7
ATOM      7  C   UNL     1       5.069   4.717  17.487  0.00  0.00    +0.000 A 
ATOM      8  C   UNL     1       4.083   5.683  17.238  0.00  0.00    +0.000 A 
ATOM      9  C   UNL     1       2.825   5.586  17.832  0.00  0.00    +0.000 A 
ATOM     10  C   UNL     1       2.525   4.507  18.662  0.00  0.00    +0.000 A 
ATOM     11  C   UNL     1       3.491   3.529  18.928  0.00  0.00    +0.000 A 
ATOM     12  C   UNL     1       4.774   3.668  18.373  0.00  0.00    +0.000 A 
BRANCH  11  13
ATOM     13  C   UNL     1       3.152   2.291  19.718  0.00  0.00    +0.000 C 
ATOM     14  F   UNL     1       2.818   2.543  21.014  0.00  0.00    +0.000 F 
ATOM     15  F   UNL     1       2.081   1.635  19.185  0.00  0.00    +0.000 F 
ATOM     16  F   UNL     1       4.164   1.385  19.754  0.00  0.00    +0.000 F 
ENDBRANCH  11  13
ENDBRANCH   6   7
ENDBRANCH   1   6
BRANCH   2  17
ATOM     17  C   UNL     1       7.870   8.232  17.511  0.00  0.00    +0.000 C 
BRANCH  17  18
ATOM     18  N   UNL     1       8.632   8.794  18.609  0.00  0.00    +0.000 N 
ATOM     19  C   UNL     1       8.850  10.152  18.688  0.00  0.00    +0.000 C 
ATOM     20  O   UNL     1       8.413  10.953  17.861  0.00  0.00    +0.000 OA
ATOM     21  H   UNL     1       8.890   8.204  19.391  0.00  0.00    +0.000 HD
BRANCH  19  22
ATOM     22  C   UNL     1       9.694  10.599  19.866  0.00  0.00    +0.000 C 
BRANCH  22  23
ATOM     23  C   UNL     1      10.482  11.871  19.618  0.00  0.00    +0.000 A 
ATOM     24  C   UNL     1      11.507  11.826  18.648  0.00  0.00    +0.000 A 
ATOM     25  C   UNL     1      12.333  12.923  18.427  0.00  0.00    +0.000 A 
ATOM     26  C   UNL     1      12.162  14.079  19.178  0.00  0.00    +0.000 A 
ATOM     27  C   UNL     1      11.151  14.165  20.149  0.00  0.00    +0.000 A 
ATOM     28  C   UNL     1      11.011  15.339  20.907  0.00  0.00    +0.000 A 
ATOM     29  C   UNL     1      10.020  15.451  21.882  0.00  0.00    +0.000 A 
ATOM     30  C   UNL     1       9.148  14.396  22.100  0.00  0.00    +0.000 A 
ATOM     31  C   UNL     1       9.277  13.222  21.350  0.00  0.00    +0.000 A 
ATOM     32  C   UNL     1      10.283  13.063  20.370  0.00  0.00    +0.000 A 
ENDBRANCH  22  23
ENDBRANCH  19  22
ENDBRANCH  17  18
ENDBRANCH   2  17
TORSDOF 7
ENDMDL
