MODEL 1
REMARK VINA RESULT:      -8.4      0.000      0.000
REMARK  Name = 
REMARK  2 active torsions:
REMARK  status: ('A' for Active; 'I' for Inactive)
REMARK    1  A    between atoms: C_2  and  C_3
REMARK    2  A    between atoms: C_15  and  N_16
REMARK                            x       y       z     vdW  Elec       q    Type
REMARK                         _______ _______ _______ _____ _____    ______ ____
ROOT
ATOM      1  O   UNL     1       4.063   2.642  19.748  0.00  0.00    +0.000 OA
ATOM      2  C   UNL     1       4.287   3.847  19.605  0.00  0.00    +0.000 C 
ATOM      3  N   UNL     1       3.461   4.814  20.172  0.00  0.00    +0.000 N 
ATOM      4  C   UNL     1       2.379   4.445  21.062  0.00  0.00    +0.000 C 
ATOM      5  C   UNL     1       1.168   5.149  20.475  0.00  0.00    +0.000 C 
ATOM      6  C   UNL     1       1.745   6.470  19.951  0.00  0.00    +0.000 C 
ATOM      7  C   UNL     1       3.152   6.059  19.470  0.00  0.00    +0.000 C 
ENDROOT
BRANCH   6   8
ATOM      8  N   UNL     1       1.803   7.476  21.016  0.00  0.00    +0.000 N 
ATOM      9  C   UNL     1       1.099   8.605  20.806  0.00  0.00    +0.000 A 
ATOM     10  N   UNL     1       0.031   8.798  20.063  0.00  0.00    +0.000 NA
ATOM     11  C   UNL     1      -0.172  10.158  20.128  0.00  0.00    +0.000 A 
ATOM     12  C   UNL     1      -1.131  11.004  19.554  0.00  0.00    +0.000 A 
ATOM     13  F   UNL     1      -2.112  10.520  18.778  0.00  0.00    +0.000 F 
ATOM     14  C   UNL     1      -1.062  12.382  19.791  0.00  0.00    +0.000 A 
ATOM     15  C   UNL     1      -0.047  12.919  20.590  0.00  0.00    +0.000 A 
ATOM     16  C   UNL     1       0.923  12.097  21.181  0.00  0.00    +0.000 A 
ATOM     17  C   UNL     1       0.809  10.734  20.919  0.00  0.00    +0.000 A 
ATOM     18  O   UNL     1       1.622   9.735  21.368  0.00  0.00    +0.000 OA
ATOM     19  H   UNL     1       2.735   7.650  21.378  0.00  0.00    +0.000 HD
ENDBRANCH   6   8
BRANCH   2  20
ATOM     20  C   UNL     1       5.451   4.313  18.822  0.00  0.00    +0.000 A 
ATOM     21  N   UNL     1       6.595   4.742  19.401  0.00  0.00    +0.000 NA
ATOM     22  N   UNL     1       7.445   4.933  18.378  0.00  0.00    +0.000 N 
ATOM     23  C   UNL     1       6.885   4.692  17.166  0.00  0.00    +0.000 A 
ATOM     24  C   UNL     1       5.581   4.327  17.407  0.00  0.00    +0.000 A 
ATOM     25  C   UNL     1       4.626   4.024  16.309  0.00  0.00    +0.000 C 
ATOM     26  C   UNL     1       5.130   4.666  14.997  0.00  0.00    +0.000 C 
ATOM     27  C   UNL     1       6.607   4.312  14.735  0.00  0.00    +0.000 C 
ATOM     28  C   UNL     1       7.543   4.838  15.844  0.00  0.00    +0.000 C 
ATOM     29  H   UNL     1       8.394   5.231  18.590  0.00  0.00    +0.000 HD
ENDBRANCH   2  20
TORSDOF 2
ENDMDL
MODEL 2
REMARK VINA RESULT:      -7.8      3.625      9.253
REMARK  Name = 
REMARK  2 active torsions:
REMARK  status: ('A' for Active; 'I' for Inactive)
REMARK    1  A    between atoms: C_2  and  C_3
REMARK    2  A    between atoms: C_15  and  N_16
REMARK                            x       y       z     vdW  Elec       q    Type
REMARK                         _______ _______ _______ _____ _____    ______ ____
ROOT
ATOM      1  O   UNL     1       0.230  13.352  18.175  0.00  0.00    +0.000 OA
ATOM      2  C   UNL     1      -0.199  12.348  18.748  0.00  0.00    +0.000 C 
ATOM      3  N   UNL     1       0.615  11.244  18.993  0.00  0.00    +0.000 N 
ATOM      4  C   UNL     1       2.034  11.283  18.700  0.00  0.00    +0.000 C 
ATOM      5  C   UNL     1       2.265  10.044  17.854  0.00  0.00    +0.000 C 
ATOM      6  C   UNL     1       1.306   9.013  18.462  0.00  0.00    +0.000 C 
ATOM      7  C   UNL     1       0.101   9.880  18.887  0.00  0.00    +0.000 C 
ENDROOT
BRANCH   6   8
ATOM      8  N   UNL     1       1.922   8.336  19.608  0.00  0.00    +0.000 N 
ATOM      9  C   UNL     1       2.040   6.997  19.513  0.00  0.00    +0.000 A 
ATOM     10  N   UNL     1       2.127   6.239  18.442  0.00  0.00    +0.000 NA
ATOM     11  C   UNL     1       2.098   4.958  18.944  0.00  0.00    +0.000 A 
ATOM     12  C   UNL     1       2.147   3.697  18.332  0.00  0.00    +0.000 A 
ATOM     13  F   UNL     1       2.257   3.571  17.002  0.00  0.00    +0.000 F 
ATOM     14  C   UNL     1       2.072   2.546  19.126  0.00  0.00    +0.000 A 
ATOM     15  C   UNL     1       1.950   2.643  20.516  0.00  0.00    +0.000 A 
ATOM     16  C   UNL     1       1.904   3.890  21.154  0.00  0.00    +0.000 A 
ATOM     17  C   UNL     1       1.986   5.005  20.323  0.00  0.00    +0.000 A 
ATOM     18  O   UNL     1       1.960   6.317  20.695  0.00  0.00    +0.000 OA
ATOM     19  H   UNL     1       1.577   8.642  20.512  0.00  0.00    +0.000 HD
ENDBRANCH   6   8
BRANCH   2  20
ATOM     20  C   UNL     1      -1.604  12.277  19.202  0.00  0.00    +0.000 A 
ATOM     21  N   UNL     1      -1.988  12.649  20.444  0.00  0.00    +0.000 NA
ATOM     22  N   UNL     1      -3.330  12.581  20.420  0.00  0.00    +0.000 N 
ATOM     23  C   UNL     1      -3.822  12.136  19.237  0.00  0.00    +0.000 A 
ATOM     24  C   UNL     1      -2.734  11.889  18.433  0.00  0.00    +0.000 A 
ATOM     25  C   UNL     1      -2.871  11.342  17.057  0.00  0.00    +0.000 C 
ATOM     26  C   UNL     1      -4.244  10.648  16.914  0.00  0.00    +0.000 C 
ATOM     27  C   UNL     1      -5.385  11.563  17.403  0.00  0.00    +0.000 C 
ATOM     28  C   UNL     1      -5.251  11.920  18.899  0.00  0.00    +0.000 C 
ATOM     29  H   UNL     1      -3.841  12.854  21.257  0.00  0.00    +0.000 HD
ENDBRANCH   2  20
TORSDOF 2
ENDMDL
MODEL 3
REMARK VINA RESULT:      -7.8      4.725      7.090
REMARK  Name = 
REMARK  2 active torsions:
REMARK  status: ('A' for Active; 'I' for Inactive)
REMARK    1  A    between atoms: C_2  and  C_3
REMARK    2  A    between atoms: C_15  and  N_16
REMARK                            x       y       z     vdW  Elec       q    Type
REMARK                         _______ _______ _______ _____ _____    ______ ____
ROOT
ATOM      1  O   UNL     1       3.976   3.371  18.130  0.00  0.00    +0.000 OA
ATOM      2  C   UNL     1       4.184   4.560  18.381  0.00  0.00    +0.000 C 
ATOM      3  N   UNL     1       5.302   5.226  17.884  0.00  0.00    +0.000 N 
ATOM      4  C   UNL     1       6.199   4.584  16.946  0.00  0.00    +0.000 C 
ATOM      5  C   UNL     1       7.571   4.768  17.568  0.00  0.00    +0.000 C 
ATOM      6  C   UNL     1       7.484   6.155  18.216  0.00  0.00    +0.000 C 
ATOM      7  C   UNL     1       6.015   6.219  18.686  0.00  0.00    +0.000 C 
ENDROOT
BRANCH   6   8
ATOM      8  N   UNL     1       7.793   7.209  17.243  0.00  0.00    +0.000 N 
ATOM      9  C   UNL     1       8.213   8.383  17.752  0.00  0.00    +0.000 A 
ATOM     10  N   UNL     1       8.822   8.630  18.891  0.00  0.00    +0.000 NA
ATOM     11  C   UNL     1       8.890  10.004  18.935  0.00  0.00    +0.000 A 
ATOM     12  C   UNL     1       9.409  10.900  19.880  0.00  0.00    +0.000 A 
ATOM     13  F   UNL     1       9.996  10.465  21.004  0.00  0.00    +0.000 F 
ATOM     14  C   UNL     1       9.307  12.277  19.650  0.00  0.00    +0.000 A 
ATOM     15  C   UNL     1       8.693  12.764  18.491  0.00  0.00    +0.000 A 
ATOM     16  C   UNL     1       8.170  11.892  17.526  0.00  0.00    +0.000 A 
ATOM     17  C   UNL     1       8.300  10.532  17.798  0.00  0.00    +0.000 A 
ATOM     18  O   UNL     1       7.873   9.491  17.028  0.00  0.00    +0.000 OA
ATOM     19  H   UNL     1       7.100   7.318  16.509  0.00  0.00    +0.000 HD
ENDBRANCH   6   8
BRANCH   2  20
ATOM     20  C   UNL     1       3.245   5.331  19.224  0.00  0.00    +0.000 A 
ATOM     21  N   UNL     1       2.802   4.883  20.420  0.00  0.00    +0.000 NA
ATOM     22  N   UNL     1       2.102   5.910  20.932  0.00  0.00    +0.000 N 
ATOM     23  C   UNL     1       2.035   6.979  20.098  0.00  0.00    +0.000 A 
ATOM     24  C   UNL     1       2.729   6.629  18.963  0.00  0.00    +0.000 A 
ATOM     25  C   UNL     1       2.842   7.537  17.791  0.00  0.00    +0.000 C 
ATOM     26  C   UNL     1       1.704   8.582  17.838  0.00  0.00    +0.000 C 
ATOM     27  C   UNL     1       1.627   9.258  19.222  0.00  0.00    +0.000 C 
ATOM     28  C   UNL     1       1.317   8.253  20.351  0.00  0.00    +0.000 C 
ATOM     29  H   UNL     1       1.697   5.803  21.859  0.00  0.00    +0.000 HD
ENDBRANCH   2  20
TORSDOF 2
ENDMDL
MODEL 4
REMARK VINA RESULT:      -7.7      3.015      8.478
REMARK  Name = 
REMARK  2 active torsions:
REMARK  status: ('A' for Active; 'I' for Inactive)
REMARK    1  A    between atoms: C_2  and  C_3
REMARK    2  A    between atoms: C_15  and  N_16
REMARK                            x       y       z     vdW  Elec       q    Type
REMARK                         _______ _______ _______ _____ _____    ______ ____
ROOT
ATOM      1  O   UNL     1      -1.188  11.962  21.667  0.00  0.00    +0.000 OA
ATOM      2  C   UNL     1      -0.909  11.206  20.733  0.00  0.00    +0.000 C 
ATOM      3  N   UNL     1      -0.291   9.976  20.949  0.00  0.00    +0.000 N 
ATOM      4  C   UNL     1      -0.068   9.478  22.291  0.00  0.00    +0.000 C 
ATOM      5  C   UNL     1       1.409   9.127  22.309  0.00  0.00    +0.000 C 
ATOM      6  C   UNL     1       1.665   8.596  20.893  0.00  0.00    +0.000 C 
ATOM      7  C   UNL     1       0.722   9.461  20.030  0.00  0.00    +0.000 C 
ENDROOT
BRANCH   6   8
ATOM      8  N   UNL     1       1.336   7.170  20.801  0.00  0.00    +0.000 N 
ATOM      9  C   UNL     1       2.108   6.434  19.978  0.00  0.00    +0.000 A 
ATOM     10  N   UNL     1       3.350   6.634  19.596  0.00  0.00    +0.000 NA
ATOM     11  C   UNL     1       3.571   5.644  18.666  0.00  0.00    +0.000 A 
ATOM     12  C   UNL     1       4.683   5.309  17.881  0.00  0.00    +0.000 A 
ATOM     13  F   UNL     1       5.829   5.999  17.965  0.00  0.00    +0.000 F 
ATOM     14  C   UNL     1       4.594   4.235  16.987  0.00  0.00    +0.000 A 
ATOM     15  C   UNL     1       3.410   3.498  16.870  0.00  0.00    +0.000 A 
ATOM     16  C   UNL     1       2.285   3.808  17.646  0.00  0.00    +0.000 A 
ATOM     17  C   UNL     1       2.423   4.881  18.523  0.00  0.00    +0.000 A 
ATOM     18  O   UNL     1       1.482   5.379  19.375  0.00  0.00    +0.000 OA
ATOM     19  H   UNL     1       0.345   6.974  20.698  0.00  0.00    +0.000 HD
ENDBRANCH   6   8
BRANCH   2  20
ATOM     20  C   UNL     1      -1.225  11.578  19.338  0.00  0.00    +0.000 A 
ATOM     21  N   UNL     1      -0.720  12.683  18.745  0.00  0.00    +0.000 NA
ATOM     22  N   UNL     1      -1.113  12.593  17.463  0.00  0.00    +0.000 N 
ATOM     23  C   UNL     1      -1.887  11.507  17.216  0.00  0.00    +0.000 A 
ATOM     24  C   UNL     1      -2.017  10.844  18.414  0.00  0.00    +0.000 A 
ATOM     25  C   UNL     1      -2.841   9.614  18.555  0.00  0.00    +0.000 C 
ATOM     26  C   UNL     1      -3.860   9.541  17.395  0.00  0.00    +0.000 C 
ATOM     27  C   UNL     1      -3.168   9.749  16.033  0.00  0.00    +0.000 C 
ATOM     28  C   UNL     1      -2.503  11.137  15.918  0.00  0.00    +0.000 C 
ATOM     29  H   UNL     1      -0.812  13.318  16.815  0.00  0.00    +0.000 HD
ENDBRANCH   2  20
TORSDOF 2
ENDMDL
MODEL 5
REMARK VINA RESULT:      -7.6      3.654      9.830
REMARK  Name = 
REMARK  2 active torsions:
REMARK  status: ('A' for Active; 'I' for Inactive)
REMARK    1  A    between atoms: C_2  and  C_3
REMARK    2  A    between atoms: C_15  and  N_16
REMARK                            x       y       z     vdW  Elec       q    Type
REMARK                         _______ _______ _______ _____ _____    ______ ____
ROOT
ATOM      1  O   UNL     1      -1.058  13.407  18.851  0.00  0.00    +0.000 OA
ATOM      2  C   UNL     1      -1.269  12.207  18.659  0.00  0.00    +0.000 C 
ATOM      3  N   UNL     1      -0.284  11.248  18.887  0.00  0.00    +0.000 N 
ATOM      4  C   UNL     1       0.986  11.609  19.483  0.00  0.00    +0.000 C 
ATOM      5  C   UNL     1       2.015  11.031  18.527  0.00  0.00    +0.000 C 
ATOM      6  C   UNL     1       1.365   9.724  18.054  0.00  0.00    +0.000 C 
ATOM      7  C   UNL     1      -0.135  10.086  18.013  0.00  0.00    +0.000 C 
ENDROOT
BRANCH   6   8
ATOM      8  N   UNL     1       1.638   8.632  18.995  0.00  0.00    +0.000 N 
ATOM      9  C   UNL     1       2.443   7.650  18.547  0.00  0.00    +0.000 A 
ATOM     10  N   UNL     1       3.378   7.691  17.622  0.00  0.00    +0.000 NA
ATOM     11  C   UNL     1       3.776   6.379  17.500  0.00  0.00    +0.000 A 
ATOM     12  C   UNL     1       4.726   5.747  16.686  0.00  0.00    +0.000 A 
ATOM     13  F   UNL     1       5.476   6.444  15.820  0.00  0.00    +0.000 F 
ATOM     14  C   UNL     1       4.892   4.360  16.774  0.00  0.00    +0.000 A 
ATOM     15  C   UNL     1       4.120   3.603  17.662  0.00  0.00    +0.000 A 
ATOM     16  C   UNL     1       3.167   4.209  18.492  0.00  0.00    +0.000 A 
ATOM     17  C   UNL     1       3.041   5.591  18.370  0.00  0.00    +0.000 A 
ATOM     18  O   UNL     1       2.190   6.407  19.055  0.00  0.00    +0.000 OA
ATOM     19  H   UNL     1       0.819   8.284  19.482  0.00  0.00    +0.000 HD
ENDBRANCH   6   8
BRANCH   2  20
ATOM     20  C   UNL     1      -2.585  11.736  18.178  0.00  0.00    +0.000 A 
ATOM     21  N   UNL     1      -2.742  11.078  17.007  0.00  0.00    +0.000 NA
ATOM     22  N   UNL     1      -4.030  10.697  16.999  0.00  0.00    +0.000 N 
ATOM     23  C   UNL     1      -4.720  11.121  18.088  0.00  0.00    +0.000 A 
ATOM     24  C   UNL     1      -3.829  11.832  18.858  0.00  0.00    +0.000 A 
ATOM     25  C   UNL     1      -4.231  12.498  20.125  0.00  0.00    +0.000 C 
ATOM     26  C   UNL     1      -5.762  12.707  20.134  0.00  0.00    +0.000 C 
ATOM     27  C   UNL     1      -6.504  11.401  19.782  0.00  0.00    +0.000 C 
ATOM     28  C   UNL     1      -6.160  10.894  18.366  0.00  0.00    +0.000 C 
ATOM     29  H   UNL     1      -4.366  10.149  16.210  0.00  0.00    +0.000 HD
ENDBRANCH   2  20
TORSDOF 2
ENDMDL
MODEL 6
REMARK VINA RESULT:      -7.5      3.087      8.892
REMARK  Name = 
REMARK  2 active torsions:
REMARK  status: ('A' for Active; 'I' for Inactive)
REMARK    1  A    between atoms: C_2  and  C_3
REMARK    2  A    between atoms: C_15  and  N_16
REMARK                            x       y       z     vdW  Elec       q    Type
REMARK                         _______ _______ _______ _____ _____    ______ ____
ROOT
ATOM      1  O   UNL     1      -1.100  11.928  21.124  0.00  0.00    +0.000 OA
ATOM      2  C   UNL     1      -0.949  10.933  20.412  0.00  0.00    +0.000 C 
ATOM      3  N   UNL     1      -0.311   9.788  20.883  0.00  0.00    +0.000 N 
ATOM      4  C   UNL     1       0.088   9.672  22.270  0.00  0.00    +0.000 C 
ATOM      5  C   UNL     1       1.553   9.282  22.198  0.00  0.00    +0.000 C 
ATOM      6  C   UNL     1       1.617   8.370  20.966  0.00  0.00    +0.000 C 
ATOM      7  C   UNL     1       0.569   8.999  20.023  0.00  0.00    +0.000 C 
ENDROOT
BRANCH   6   8
ATOM      8  N   UNL     1       1.275   6.988  21.319  0.00  0.00    +0.000 N 
ATOM      9  C   UNL     1       1.767   6.029  20.511  0.00  0.00    +0.000 A 
ATOM     10  N   UNL     1       2.840   6.046  19.750  0.00  0.00    +0.000 NA
ATOM     11  C   UNL     1       2.773   4.856  19.063  0.00  0.00    +0.000 A 
ATOM     12  C   UNL     1       3.601   4.270  18.095  0.00  0.00    +0.000 A 
ATOM     13  F   UNL     1       4.720   4.877  17.676  0.00  0.00    +0.000 F 
ATOM     14  C   UNL     1       3.250   3.029  17.551  0.00  0.00    +0.000 A 
ATOM     15  C   UNL     1       2.085   2.372  17.962  0.00  0.00    +0.000 A 
ATOM     16  C   UNL     1       1.242   2.931  18.932  0.00  0.00    +0.000 A 
ATOM     17  C   UNL     1       1.635   4.164  19.446  0.00  0.00    +0.000 A 
ATOM     18  O   UNL     1       0.990   4.912  20.388  0.00  0.00    +0.000 OA
ATOM     19  H   UNL     1       0.299   6.845  21.557  0.00  0.00    +0.000 HD
ENDBRANCH   6   8
BRANCH   2  20
ATOM     20  C   UNL     1      -1.448  10.916  19.020  0.00  0.00    +0.000 A 
ATOM     21  N   UNL     1      -0.686  10.515  17.977  0.00  0.00    +0.000 NA
ATOM     22  N   UNL     1      -1.524  10.502  16.927  0.00  0.00    +0.000 N 
ATOM     23  C   UNL     1      -2.777  10.922  17.237  0.00  0.00    +0.000 A 
ATOM     24  C   UNL     1      -2.758  11.238  18.576  0.00  0.00    +0.000 A 
ATOM     25  C   UNL     1      -3.950  11.782  19.279  0.00  0.00    +0.000 C 
ATOM     26  C   UNL     1      -4.923  12.393  18.245  0.00  0.00    +0.000 C 
ATOM     27  C   UNL     1      -5.201  11.408  17.092  0.00  0.00    +0.000 C 
ATOM     28  C   UNL     1      -3.922  11.053  16.303  0.00  0.00    +0.000 C 
ATOM     29  H   UNL     1      -1.164  10.195  16.026  0.00  0.00    +0.000 HD
ENDBRANCH   2  20
TORSDOF 2
ENDMDL
MODEL 7
REMARK VINA RESULT:      -7.5      3.453      9.696
REMARK  Name = 
REMARK  2 active torsions:
REMARK  status: ('A' for Active; 'I' for Inactive)
REMARK    1  A    between atoms: C_2  and  C_3
REMARK    2  A    between atoms: C_15  and  N_16
REMARK                            x       y       z     vdW  Elec       q    Type
REMARK                         _______ _______ _______ _____ _____    ______ ____
ROOT
ATOM      1  O   UNL     1      -1.133  13.464  18.423  0.00  0.00    +0.000 OA
ATOM      2  C   UNL     1      -1.391  12.266  18.568  0.00  0.00    +0.000 C 
ATOM      3  N   UNL     1      -0.463  11.380  19.109  0.00  0.00    +0.000 N 
ATOM      4  C   UNL     1       0.797  11.854  19.644  0.00  0.00    +0.000 C 
ATOM      5  C   UNL     1       1.836  10.993  18.946  0.00  0.00    +0.000 C 
ATOM      6  C   UNL     1       1.146   9.629  18.829  0.00  0.00    +0.000 C 
ATOM      7  C   UNL     1      -0.332  10.014  18.608  0.00  0.00    +0.000 C 
ENDROOT
BRANCH   6   8
ATOM      8  N   UNL     1       1.329   8.842  20.053  0.00  0.00    +0.000 N 
ATOM      9  C   UNL     1       1.825   7.599  19.892  0.00  0.00    +0.000 A 
ATOM     10  N   UNL     1       2.585   7.121  18.932  0.00  0.00    +0.000 NA
ATOM     11  C   UNL     1       2.670   5.778  19.220  0.00  0.00    +0.000 A 
ATOM     12  C   UNL     1       3.321   4.710  18.587  0.00  0.00    +0.000 A 
ATOM     13  F   UNL     1       4.052   4.897  17.479  0.00  0.00    +0.000 F 
ATOM     14  C   UNL     1       3.201   3.420  19.118  0.00  0.00    +0.000 A 
ATOM     15  C   UNL     1       2.439   3.189  20.269  0.00  0.00    +0.000 A 
ATOM     16  C   UNL     1       1.783   4.239  20.926  0.00  0.00    +0.000 A 
ATOM     17  C   UNL     1       1.936   5.503  20.362  0.00  0.00    +0.000 A 
ATOM     18  O   UNL     1       1.399   6.676  20.805  0.00  0.00    +0.000 OA
ATOM     19  H   UNL     1       0.544   8.877  20.695  0.00  0.00    +0.000 HD
ENDBRANCH   6   8
BRANCH   2  20
ATOM     20  C   UNL     1      -2.707  11.722  18.171  0.00  0.00    +0.000 A 
ATOM     21  N   UNL     1      -2.881  10.969  17.062  0.00  0.00    +0.000 NA
ATOM     22  N   UNL     1      -4.157  10.552  17.129  0.00  0.00    +0.000 N 
ATOM     23  C   UNL     1      -4.824  11.042  18.203  0.00  0.00    +0.000 A 
ATOM     24  C   UNL     1      -3.932  11.838  18.883  0.00  0.00    +0.000 A 
ATOM     25  C   UNL     1      -4.313  12.591  20.107  0.00  0.00    +0.000 C 
ATOM     26  C   UNL     1      -5.849  12.757  20.152  0.00  0.00    +0.000 C 
ATOM     27  C   UNL     1      -6.561  11.408  19.931  0.00  0.00    +0.000 C 
ATOM     28  C   UNL     1      -6.247  10.798  18.548  0.00  0.00    +0.000 C 
ATOM     29  H   UNL     1      -4.501   9.934  16.397  0.00  0.00    +0.000 HD
ENDBRANCH   2  20
TORSDOF 2
ENDMDL
MODEL 8
REMARK VINA RESULT:      -7.5      2.144      2.643
REMARK  Name = 
REMARK  2 active torsions:
REMARK  status: ('A' for Active; 'I' for Inactive)
REMARK    1  A    between atoms: C_2  and  C_3
REMARK    2  A    between atoms: C_15  and  N_16
REMARK                            x       y       z     vdW  Elec       q    Type
REMARK                         _______ _______ _______ _____ _____    ______ ____
ROOT
ATOM      1  O   UNL     1       5.247   3.715  17.792  0.00  0.00    +0.000 OA
ATOM      2  C   UNL     1       5.311   4.830  17.269  0.00  0.00    +0.000 C 
ATOM      3  N   UNL     1       4.581   5.910  17.762  0.00  0.00    +0.000 N 
ATOM      4  C   UNL     1       3.817   5.798  18.987  0.00  0.00    +0.000 C 
ATOM      5  C   UNL     1       2.433   6.288  18.600  0.00  0.00    +0.000 C 
ATOM      6  C   UNL     1       2.723   7.410  17.595  0.00  0.00    +0.000 C 
ATOM      7  C   UNL     1       3.982   6.896  16.866  0.00  0.00    +0.000 C 
ENDROOT
BRANCH   6   8
ATOM      8  N   UNL     1       2.971   8.681  18.285  0.00  0.00    +0.000 N 
ATOM      9  C   UNL     1       1.914   9.506  18.409  0.00  0.00    +0.000 A 
ATOM     10  N   UNL     1       0.630   9.221  18.440  0.00  0.00    +0.000 NA
ATOM     11  C   UNL     1       0.021  10.455  18.453  0.00  0.00    +0.000 A 
ATOM     12  C   UNL     1      -1.324  10.849  18.477  0.00  0.00    +0.000 A 
ATOM     13  F   UNL     1      -2.315   9.947  18.510  0.00  0.00    +0.000 F 
ATOM     14  C   UNL     1      -1.640  12.213  18.461  0.00  0.00    +0.000 A 
ATOM     15  C   UNL     1      -0.630  13.180  18.420  0.00  0.00    +0.000 A 
ATOM     16  C   UNL     1       0.723  12.814  18.401  0.00  0.00    +0.000 A 
ATOM     17  C   UNL     1       0.986  11.447  18.422  0.00  0.00    +0.000 A 
ATOM     18  O   UNL     1       2.208  10.840  18.405  0.00  0.00    +0.000 OA
ATOM     19  H   UNL     1       3.816   9.159  17.990  0.00  0.00    +0.000 HD
ENDBRANCH   6   8
BRANCH   2  20
ATOM     20  C   UNL     1       6.174   5.066  16.092  0.00  0.00    +0.000 A 
ATOM     21  N   UNL     1       7.289   5.829  16.146  0.00  0.00    +0.000 NA
ATOM     22  N   UNL     1       7.863   5.679  14.940  0.00  0.00    +0.000 N 
ATOM     23  C   UNL     1       7.144   4.895  14.099  0.00  0.00    +0.000 A 
ATOM     24  C   UNL     1       6.021   4.509  14.794  0.00  0.00    +0.000 A 
ATOM     25  C   UNL     1       4.959   3.668  14.181  0.00  0.00    +0.000 C 
ATOM     26  C   UNL     1       5.050   3.766  12.641  0.00  0.00    +0.000 C 
ATOM     27  C   UNL     1       6.490   3.513  12.151  0.00  0.00    +0.000 C 
ATOM     28  C   UNL     1       7.487   4.558  12.695  0.00  0.00    +0.000 C 
ATOM     29  H   UNL     1       8.749   6.149  14.767  0.00  0.00    +0.000 HD
ENDBRANCH   2  20
TORSDOF 2
ENDMDL
MODEL 9
REMARK VINA RESULT:      -7.4      3.605      9.482
REMARK  Name = 
REMARK  2 active torsions:
REMARK  status: ('A' for Active; 'I' for Inactive)
REMARK    1  A    between atoms: C_2  and  C_3
REMARK    2  A    between atoms: C_15  and  N_16
REMARK                            x       y       z     vdW  Elec       q    Type
REMARK                         _______ _______ _______ _____ _____    ______ ____
ROOT
ATOM      1  O   UNL     1       0.600  13.343  18.146  0.00  0.00    +0.000 OA
ATOM      2  C   UNL     1       0.140  12.432  18.838  0.00  0.00    +0.000 C 
ATOM      3  N   UNL     1       0.851  11.255  19.062  0.00  0.00    +0.000 N 
ATOM      4  C   UNL     1       2.216  11.108  18.598  0.00  0.00    +0.000 C 
ATOM      5  C   UNL     1       2.198   9.803  17.821  0.00  0.00    +0.000 C 
ATOM      6  C   UNL     1       1.217   8.931  18.615  0.00  0.00    +0.000 C 
ATOM      7  C   UNL     1       0.180   9.958  19.118  0.00  0.00    +0.000 C 
ENDROOT
BRANCH   6   8
ATOM      8  N   UNL     1       1.897   8.253  19.723  0.00  0.00    +0.000 N 
ATOM      9  C   UNL     1       2.026   6.916  19.612  0.00  0.00    +0.000 A 
ATOM     10  N   UNL     1       2.071   6.168  18.531  0.00  0.00    +0.000 NA
ATOM     11  C   UNL     1       2.083   4.883  19.023  0.00  0.00    +0.000 A 
ATOM     12  C   UNL     1       2.117   3.628  18.400  0.00  0.00    +0.000 A 
ATOM     13  F   UNL     1       2.165   3.513  17.065  0.00  0.00    +0.000 F 
ATOM     14  C   UNL     1       2.096   2.469  19.186  0.00  0.00    +0.000 A 
ATOM     15  C   UNL     1       2.040   2.554  20.582  0.00  0.00    +0.000 A 
ATOM     16  C   UNL     1       2.010   3.796  21.232  0.00  0.00    +0.000 A 
ATOM     17  C   UNL     1       2.037   4.918  20.407  0.00  0.00    +0.000 A 
ATOM     18  O   UNL     1       2.012   6.226  20.791  0.00  0.00    +0.000 OA
ATOM     19  H   UNL     1       1.592   8.547  20.645  0.00  0.00    +0.000 HD
ENDBRANCH   6   8
BRANCH   2  20
ATOM     20  C   UNL     1      -1.194  12.555  19.462  0.00  0.00    +0.000 A 
ATOM     21  N   UNL     1      -2.342  12.505  18.749  0.00  0.00    +0.000 NA
ATOM     22  N   UNL     1      -3.319  12.503  19.672  0.00  0.00    +0.000 N 
ATOM     23  C   UNL     1      -2.853  12.599  20.943  0.00  0.00    +0.000 A 
ATOM     24  C   UNL     1      -1.483  12.675  20.849  0.00  0.00    +0.000 A 
ATOM     25  C   UNL     1      -0.613  12.834  22.044  0.00  0.00    +0.000 C 
ATOM     26  C   UNL     1      -1.447  13.403  23.215  0.00  0.00    +0.000 C 
ATOM     27  C   UNL     1      -2.746  12.597  23.417  0.00  0.00    +0.000 C 
ATOM     28  C   UNL     1      -3.669  12.652  22.181  0.00  0.00    +0.000 C 
ATOM     29  H   UNL     1      -4.282  12.437  19.353  0.00  0.00    +0.000 HD
ENDBRANCH   2  20
TORSDOF 2
ENDMDL
