MODEL 1
REMARK VINA RESULT:      -8.8      0.000      0.000
REMARK  Name = 
REMARK  4 active torsions:
REMARK  status: ('A' for Active; 'I' for Inactive)
REMARK    1  A    between atoms: C_2  and  C_17
REMARK    2  A    between atoms: N_3  and  C_4
REMARK    3  A    between atoms: C_8  and  O_9
REMARK    4  A    between atoms: O_9  and  C_10
REMARK                            x       y       z     vdW  Elec       q    Type
REMARK                         _______ _______ _______ _____ _____    ______ ____
ROOT
ATOM      1  O   UNL     1       2.637   7.563  18.004  0.00  0.00    +0.000 OA
ATOM      2  C   UNL     1       2.197   7.557  19.149  0.00  0.00    +0.000 C 
ATOM      3  N   UNL     1       2.333   6.550  20.088  0.00  0.00    +0.000 N 
ATOM      4  H   UNL     1       1.820   6.699  20.952  0.00  0.00    +0.000 HD
ENDROOT
BRANCH   2   5
ATOM      5  C   UNL     1       1.387   8.725  19.624  0.00  0.00    +0.000 A 
ATOM      6  C   UNL     1       1.394   9.895  18.879  0.00  0.00    +0.000 A 
ATOM      7  C   UNL     1       0.714  10.993  19.384  0.00  0.00    +0.000 A 
ATOM      8  C   UNL     1       0.115  10.911  20.644  0.00  0.00    +0.000 A 
ATOM      9  C   UNL     1      -0.438  12.047  21.255  0.00  0.00    +0.000 A 
ATOM     10  C   UNL     1      -0.955  11.967  22.545  0.00  0.00    +0.000 A 
ATOM     11  C   UNL     1      -0.978  10.741  23.200  0.00  0.00    +0.000 A 
ATOM     12  C   UNL     1      -0.458   9.603  22.574  0.00  0.00    +0.000 A 
ATOM     13  C   UNL     1       0.125   9.666  21.315  0.00  0.00    +0.000 A 
ATOM     14  N   UNL     1       0.715   8.570  20.798  0.00  0.00    +0.000 NA
ENDBRANCH   2   5
BRANCH   3  15
ATOM     15  C   UNL     1       3.008   5.325  19.918  0.00  0.00    +0.000 A 
ATOM     16  C   UNL     1       2.455   4.092  20.273  0.00  0.00    +0.000 A 
ATOM     17  C   UNL     1       3.175   2.908  20.090  0.00  0.00    +0.000 A 
ATOM     18  C   UNL     1       4.464   2.949  19.563  0.00  0.00    +0.000 A 
ATOM     19  C   UNL     1       5.038   4.176  19.232  0.00  0.00    +0.000 A 
ATOM     20  C   UNL     1       4.297   5.357  19.370  0.00  0.00    +0.000 A 
BRANCH  19  21
ATOM     21  O   UNL     1       6.297   4.300  18.684  0.00  0.00    +0.000 OA
BRANCH  21  22
ATOM     22  C   UNL     1       6.399   4.503  17.314  0.00  0.00    +0.000 A 
ATOM     23  C   UNL     1       7.232   5.526  16.885  0.00  0.00    +0.000 A 
ATOM     24  N   UNL     1       7.422   5.812  15.572  0.00  0.00    +0.000 NA
ATOM     25  C   UNL     1       6.746   5.019  14.708  0.00  0.00    +0.000 A 
ATOM     26  C   UNL     1       5.930   3.984  15.136  0.00  0.00    +0.000 A 
ATOM     27  N   UNL     1       5.745   3.695  16.445  0.00  0.00    +0.000 NA
ENDBRANCH  21  22
ENDBRANCH  19  21
ENDBRANCH   3  15
TORSDOF 4
ENDMDL
MODEL 2
REMARK VINA RESULT:      -8.7      0.827      1.497
REMARK  Name = 
REMARK  4 active torsions:
REMARK  status: ('A' for Active; 'I' for Inactive)
REMARK    1  A    between atoms: C_2  and  C_17
REMARK    2  A    between atoms: N_3  and  C_4
REMARK    3  A    between atoms: C_8  and  O_9
REMARK    4  A    between atoms: O_9  and  C_10
REMARK                            x       y       z     vdW  Elec       q    Type
REMARK                         _______ _______ _______ _____ _____    ______ ____
ROOT
ATOM      1  O   UNL     1       2.197   7.668  18.572  0.00  0.00    +0.000 OA
ATOM      2  C   UNL     1       1.955   7.512  19.764  0.00  0.00    +0.000 C 
ATOM      3  N   UNL     1       2.209   6.383  20.524  0.00  0.00    +0.000 N 
ATOM      4  H   UNL     1       1.853   6.420  21.475  0.00  0.00    +0.000 HD
ENDROOT
BRANCH   2   5
ATOM      5  C   UNL     1       1.280   8.614  20.521  0.00  0.00    +0.000 A 
ATOM      6  C   UNL     1       1.265   8.565  21.907  0.00  0.00    +0.000 A 
ATOM      7  C   UNL     1       0.556   9.545  22.587  0.00  0.00    +0.000 A 
ATOM      8  C   UNL     1      -0.174  10.492  21.862  0.00  0.00    +0.000 A 
ATOM      9  C   UNL     1      -1.032  11.392  22.512  0.00  0.00    +0.000 A 
ATOM     10  C   UNL     1      -1.815  12.272  21.772  0.00  0.00    +0.000 A 
ATOM     11  C   UNL     1      -1.696  12.298  20.387  0.00  0.00    +0.000 A 
ATOM     12  C   UNL     1      -0.814  11.423  19.744  0.00  0.00    +0.000 A 
ATOM     13  C   UNL     1      -0.070  10.488  20.451  0.00  0.00    +0.000 A 
ATOM     14  N   UNL     1       0.681   9.590  19.784  0.00  0.00    +0.000 NA
ENDBRANCH   2   5
BRANCH   3  15
ATOM     15  C   UNL     1       2.801   5.184  20.080  0.00  0.00    +0.000 A 
ATOM     16  C   UNL     1       2.149   3.949  20.126  0.00  0.00    +0.000 A 
ATOM     17  C   UNL     1       2.788   2.789  19.680  0.00  0.00    +0.000 A 
ATOM     18  C   UNL     1       4.094   2.852  19.197  0.00  0.00    +0.000 A 
ATOM     19  C   UNL     1       4.765   4.075  19.174  0.00  0.00    +0.000 A 
ATOM     20  C   UNL     1       4.106   5.244  19.575  0.00  0.00    +0.000 A 
BRANCH  19  21
ATOM     21  O   UNL     1       6.047   4.226  18.690  0.00  0.00    +0.000 OA
BRANCH  21  22
ATOM     22  C   UNL     1       6.212   4.455  17.331  0.00  0.00    +0.000 A 
ATOM     23  C   UNL     1       7.266   5.273  16.948  0.00  0.00    +0.000 A 
ATOM     24  N   UNL     1       7.534   5.561  15.650  0.00  0.00    +0.000 NA
ATOM     25  C   UNL     1       6.705   4.983  14.750  0.00  0.00    +0.000 A 
ATOM     26  C   UNL     1       5.665   4.149  15.130  0.00  0.00    +0.000 A 
ATOM     27  N   UNL     1       5.400   3.859  16.425  0.00  0.00    +0.000 NA
ENDBRANCH  21  22
ENDBRANCH  19  21
ENDBRANCH   3  15
TORSDOF 4
ENDMDL
MODEL 3
REMARK VINA RESULT:      -8.6      1.517      2.120
REMARK  Name = 
REMARK  4 active torsions:
REMARK  status: ('A' for Active; 'I' for Inactive)
REMARK    1  A    between atoms: C_2  and  C_17
REMARK    2  A    between atoms: N_3  and  C_4
REMARK    3  A    between atoms: C_8  and  O_9
REMARK    4  A    between atoms: O_9  and  C_10
REMARK                            x       y       z     vdW  Elec       q    Type
REMARK                         _______ _______ _______ _____ _____    ______ ____
ROOT
ATOM      1  O   UNL     1       2.190   8.014  18.855  0.00  0.00    +0.000 OA
ATOM      2  C   UNL     1       1.768   7.719  19.968  0.00  0.00    +0.000 C 
ATOM      3  N   UNL     1       1.811   6.474  20.571  0.00  0.00    +0.000 N 
ATOM      4  H   UNL     1       1.329   6.415  21.464  0.00  0.00    +0.000 HD
ENDROOT
BRANCH   2   5
ATOM      5  C   UNL     1       1.094   8.771  20.795  0.00  0.00    +0.000 A 
ATOM      6  C   UNL     1       1.107   8.649  22.177  0.00  0.00    +0.000 A 
ATOM      7  C   UNL     1       0.398   9.582  22.920  0.00  0.00    +0.000 A 
ATOM      8  C   UNL     1      -0.358  10.555  22.260  0.00  0.00    +0.000 A 
ATOM      9  C   UNL     1      -1.214  11.408  22.973  0.00  0.00    +0.000 A 
ATOM     10  C   UNL     1      -2.023  12.315  22.294  0.00  0.00    +0.000 A 
ATOM     11  C   UNL     1      -1.932  12.414  20.910  0.00  0.00    +0.000 A 
ATOM     12  C   UNL     1      -1.051  11.586  20.206  0.00  0.00    +0.000 A 
ATOM     13  C   UNL     1      -0.281  10.626  20.849  0.00  0.00    +0.000 A 
ATOM     14  N   UNL     1       0.468   9.775  20.121  0.00  0.00    +0.000 NA
ENDBRANCH   2   5
BRANCH   3  15
ATOM     15  C   UNL     1       2.350   5.291  20.026  0.00  0.00    +0.000 A 
ATOM     16  C   UNL     1       1.568   4.189  19.671  0.00  0.00    +0.000 A 
ATOM     17  C   UNL     1       2.159   3.038  19.142  0.00  0.00    +0.000 A 
ATOM     18  C   UNL     1       3.541   2.973  18.978  0.00  0.00    +0.000 A 
ATOM     19  C   UNL     1       4.334   4.057  19.356  0.00  0.00    +0.000 A 
ATOM     20  C   UNL     1       3.737   5.228  19.840  0.00  0.00    +0.000 A 
BRANCH  19  21
ATOM     21  O   UNL     1       5.704   4.082  19.204  0.00  0.00    +0.000 OA
BRANCH  21  22
ATOM     22  C   UNL     1       6.276   5.193  18.599  0.00  0.00    +0.000 A 
ATOM     23  C   UNL     1       7.393   5.744  19.211  0.00  0.00    +0.000 A 
ATOM     24  N   UNL     1       8.045   6.822  18.708  0.00  0.00    +0.000 NA
ATOM     25  C   UNL     1       7.534   7.317  17.556  0.00  0.00    +0.000 A 
ATOM     26  C   UNL     1       6.431   6.754  16.934  0.00  0.00    +0.000 A 
ATOM     27  N   UNL     1       5.784   5.676  17.433  0.00  0.00    +0.000 NA
ENDBRANCH  21  22
ENDBRANCH  19  21
ENDBRANCH   3  15
TORSDOF 4
ENDMDL
MODEL 4
REMARK VINA RESULT:      -8.5      1.392      2.151
REMARK  Name = 
REMARK  4 active torsions:
REMARK  status: ('A' for Active; 'I' for Inactive)
REMARK    1  A    between atoms: C_2  and  C_17
REMARK    2  A    between atoms: N_3  and  C_4
REMARK    3  A    between atoms: C_8  and  O_9
REMARK    4  A    between atoms: O_9  and  C_10
REMARK                            x       y       z     vdW  Elec       q    Type
REMARK                         _______ _______ _______ _____ _____    ______ ____
ROOT
ATOM      1  O   UNL     1       2.371   7.834  18.965  0.00  0.00    +0.000 OA
ATOM      2  C   UNL     1       1.805   7.565  20.019  0.00  0.00    +0.000 C 
ATOM      3  N   UNL     1       1.663   6.313  20.591  0.00  0.00    +0.000 N 
ATOM      4  H   UNL     1       1.083   6.288  21.426  0.00  0.00    +0.000 HD
ENDROOT
BRANCH   2   5
ATOM      5  C   UNL     1       1.149   8.666  20.795  0.00  0.00    +0.000 A 
ATOM      6  C   UNL     1       1.220   8.644  22.181  0.00  0.00    +0.000 A 
ATOM      7  C   UNL     1       0.528   9.620  22.884  0.00  0.00    +0.000 A 
ATOM      8  C   UNL     1      -0.269  10.534  22.188  0.00  0.00    +0.000 A 
ATOM      9  C   UNL     1      -1.108  11.426  22.872  0.00  0.00    +0.000 A 
ATOM     10  C   UNL     1      -1.957  12.271  22.164  0.00  0.00    +0.000 A 
ATOM     11  C   UNL     1      -1.923  12.272  20.775  0.00  0.00    +0.000 A 
ATOM     12  C   UNL     1      -1.060  11.406  20.096  0.00  0.00    +0.000 A 
ATOM     13  C   UNL     1      -0.250  10.504  20.773  0.00  0.00    +0.000 A 
ATOM     14  N   UNL     1       0.482   9.611  20.078  0.00  0.00    +0.000 NA
ENDBRANCH   2   5
BRANCH   3  15
ATOM     15  C   UNL     1       2.142   5.092  20.077  0.00  0.00    +0.000 A 
ATOM     16  C   UNL     1       1.302   4.043  19.693  0.00  0.00    +0.000 A 
ATOM     17  C   UNL     1       1.834   2.849  19.197  0.00  0.00    +0.000 A 
ATOM     18  C   UNL     1       3.214   2.688  19.096  0.00  0.00    +0.000 A 
ATOM     19  C   UNL     1       4.063   3.717  19.503  0.00  0.00    +0.000 A 
ATOM     20  C   UNL     1       3.528   4.931  19.953  0.00  0.00    +0.000 A 
BRANCH  19  21
ATOM     21  O   UNL     1       5.436   3.646  19.413  0.00  0.00    +0.000 OA
BRANCH  21  22
ATOM     22  C   UNL     1       6.101   4.647  18.716  0.00  0.00    +0.000 A 
ATOM     23  C   UNL     1       5.728   4.857  17.396  0.00  0.00    +0.000 A 
ATOM     24  N   UNL     1       6.296   5.812  16.619  0.00  0.00    +0.000 NA
ATOM     25  C   UNL     1       7.249   6.557  17.227  0.00  0.00    +0.000 A 
ATOM     26  C   UNL     1       7.606   6.362  18.552  0.00  0.00    +0.000 A 
ATOM     27  N   UNL     1       7.036   5.412  19.329  0.00  0.00    +0.000 NA
ENDBRANCH  21  22
ENDBRANCH  19  21
ENDBRANCH   3  15
TORSDOF 4
ENDMDL
MODEL 5
REMARK VINA RESULT:      -8.3      4.901      7.611
REMARK  Name = 
REMARK  4 active torsions:
REMARK  status: ('A' for Active; 'I' for Inactive)
REMARK    1  A    between atoms: C_2  and  C_17
REMARK    2  A    between atoms: N_3  and  C_4
REMARK    3  A    between atoms: C_8  and  O_9
REMARK    4  A    between atoms: O_9  and  C_10
REMARK                            x       y       z     vdW  Elec       q    Type
REMARK                         _______ _______ _______ _____ _____    ______ ____
ROOT
ATOM      1  O   UNL     1       8.609   7.413  18.956  0.00  0.00    +0.000 OA
ATOM      2  C   UNL     1       8.076   8.265  18.254  0.00  0.00    +0.000 C 
ATOM      3  N   UNL     1       7.064   8.068  17.330  0.00  0.00    +0.000 N 
ATOM      4  H   UNL     1       6.818   8.889  16.784  0.00  0.00    +0.000 HD
ENDROOT
BRANCH   2   5
ATOM      5  C   UNL     1       8.555   9.682  18.336  0.00  0.00    +0.000 A 
ATOM      6  C   UNL     1       7.974  10.636  17.513  0.00  0.00    +0.000 A 
ATOM      7  C   UNL     1       8.494  11.922  17.538  0.00  0.00    +0.000 A 
ATOM      8  C   UNL     1       9.619  12.194  18.321  0.00  0.00    +0.000 A 
ATOM      9  C   UNL     1      10.269  13.435  18.243  0.00  0.00    +0.000 A 
ATOM     10  C   UNL     1      11.437  13.660  18.966  0.00  0.00    +0.000 A 
ATOM     11  C   UNL     1      11.921  12.671  19.814  0.00  0.00    +0.000 A 
ATOM     12  C   UNL     1      11.251  11.447  19.915  0.00  0.00    +0.000 A 
ATOM     13  C   UNL     1      10.122  11.168  19.156  0.00  0.00    +0.000 A 
ATOM     14  N   UNL     1       9.575   9.938  19.201  0.00  0.00    +0.000 NA
ENDBRANCH   2   5
BRANCH   3  15
ATOM     15  C   UNL     1       6.440   6.845  17.011  0.00  0.00    +0.000 A 
ATOM     16  C   UNL     1       7.094   5.805  16.348  0.00  0.00    +0.000 A 
ATOM     17  C   UNL     1       6.422   4.616  16.049  0.00  0.00    +0.000 A 
ATOM     18  C   UNL     1       5.082   4.464  16.399  0.00  0.00    +0.000 A 
ATOM     19  C   UNL     1       4.410   5.508  17.037  0.00  0.00    +0.000 A 
ATOM     20  C   UNL     1       5.099   6.679  17.379  0.00  0.00    +0.000 A 
BRANCH  19  21
ATOM     21  O   UNL     1       3.094   5.428  17.437  0.00  0.00    +0.000 OA
BRANCH  21  22
ATOM     22  C   UNL     1       2.698   4.319  18.173  0.00  0.00    +0.000 A 
ATOM     23  C   UNL     1       3.168   4.221  19.475  0.00  0.00    +0.000 A 
ATOM     24  N   UNL     1       2.842   3.190  20.295  0.00  0.00    +0.000 NA
ATOM     25  C   UNL     1       2.014   2.266  19.754  0.00  0.00    +0.000 A 
ATOM     26  C   UNL     1       1.527   2.375  18.460  0.00  0.00    +0.000 A 
ATOM     27  N   UNL     1       1.849   3.405  17.645  0.00  0.00    +0.000 NA
ENDBRANCH  21  22
ENDBRANCH  19  21
ENDBRANCH   3  15
TORSDOF 4
ENDMDL
MODEL 6
REMARK VINA RESULT:      -8.3      1.882      2.608
REMARK  Name = 
REMARK  4 active torsions:
REMARK  status: ('A' for Active; 'I' for Inactive)
REMARK    1  A    between atoms: C_2  and  C_17
REMARK    2  A    between atoms: N_3  and  C_4
REMARK    3  A    between atoms: C_8  and  O_9
REMARK    4  A    between atoms: O_9  and  C_10
REMARK                            x       y       z     vdW  Elec       q    Type
REMARK                         _______ _______ _______ _____ _____    ______ ____
ROOT
ATOM      1  O   UNL     1       1.736   8.507  17.763  0.00  0.00    +0.000 OA
ATOM      2  C   UNL     1       1.724   8.032  18.893  0.00  0.00    +0.000 C 
ATOM      3  N   UNL     1       2.153   6.771  19.269  0.00  0.00    +0.000 N 
ATOM      4  H   UNL     1       1.978   6.533  20.242  0.00  0.00    +0.000 HD
ENDROOT
BRANCH   2   5
ATOM      5  C   UNL     1       1.164   8.844  20.020  0.00  0.00    +0.000 A 
ATOM      6  C   UNL     1       1.328   8.391  21.321  0.00  0.00    +0.000 A 
ATOM      7  C   UNL     1       0.723   9.108  22.342  0.00  0.00    +0.000 A 
ATOM      8  C   UNL     1      -0.085  10.204  22.027  0.00  0.00    +0.000 A 
ATOM      9  C   UNL     1      -0.843  10.850  23.017  0.00  0.00    +0.000 A 
ATOM     10  C   UNL     1      -1.706  11.885  22.673  0.00  0.00    +0.000 A 
ATOM     11  C   UNL     1      -1.767  12.319  21.353  0.00  0.00    +0.000 A 
ATOM     12  C   UNL     1      -0.985  11.696  20.376  0.00  0.00    +0.000 A 
ATOM     13  C   UNL     1      -0.165  10.617  20.676  0.00  0.00    +0.000 A 
ATOM     14  N   UNL     1       0.485   9.975  19.684  0.00  0.00    +0.000 NA
ENDBRANCH   2   5
BRANCH   3  15
ATOM     15  C   UNL     1       2.692   5.778  18.428  0.00  0.00    +0.000 A 
ATOM     16  C   UNL     1       2.067   4.550  18.197  0.00  0.00    +0.000 A 
ATOM     17  C   UNL     1       2.653   3.598  17.359  0.00  0.00    +0.000 A 
ATOM     18  C   UNL     1       3.881   3.860  16.755  0.00  0.00    +0.000 A 
ATOM     19  C   UNL     1       4.529   5.071  17.001  0.00  0.00    +0.000 A 
ATOM     20  C   UNL     1       3.917   6.043  17.802  0.00  0.00    +0.000 A 
BRANCH  19  21
ATOM     21  O   UNL     1       5.732   5.416  16.424  0.00  0.00    +0.000 OA
BRANCH  21  22
ATOM     22  C   UNL     1       6.615   6.193  17.163  0.00  0.00    +0.000 A 
ATOM     23  C   UNL     1       7.222   5.596  18.259  0.00  0.00    +0.000 A 
ATOM     24  N   UNL     1       8.110   6.250  19.049  0.00  0.00    +0.000 NA
ATOM     25  C   UNL     1       8.370   7.527  18.686  0.00  0.00    +0.000 A 
ATOM     26  C   UNL     1       7.780   8.117  17.579  0.00  0.00    +0.000 A 
ATOM     27  N   UNL     1       6.898   7.463  16.788  0.00  0.00    +0.000 NA
ENDBRANCH  21  22
ENDBRANCH  19  21
ENDBRANCH   3  15
TORSDOF 4
ENDMDL
MODEL 7
REMARK VINA RESULT:      -8.2      1.825      2.275
REMARK  Name = 
REMARK  4 active torsions:
REMARK  status: ('A' for Active; 'I' for Inactive)
REMARK    1  A    between atoms: C_2  and  C_17
REMARK    2  A    between atoms: N_3  and  C_4
REMARK    3  A    between atoms: C_8  and  O_9
REMARK    4  A    between atoms: O_9  and  C_10
REMARK                            x       y       z     vdW  Elec       q    Type
REMARK                         _______ _______ _______ _____ _____    ______ ____
ROOT
ATOM      1  O   UNL     1       2.603   8.774  17.225  0.00  0.00    +0.000 OA
ATOM      2  C   UNL     1       2.009   8.355  18.213  0.00  0.00    +0.000 C 
ATOM      3  N   UNL     1       1.964   7.047  18.664  0.00  0.00    +0.000 N 
ATOM      4  H   UNL     1       1.344   6.889  19.454  0.00  0.00    +0.000 HD
ENDROOT
BRANCH   2   5
ATOM      5  C   UNL     1       1.201   9.310  19.037  0.00  0.00    +0.000 A 
ATOM      6  C   UNL     1       1.056  10.618  18.600  0.00  0.00    +0.000 A 
ATOM      7  C   UNL     1       0.383  11.510  19.422  0.00  0.00    +0.000 A 
ATOM      8  C   UNL     1      -0.056  11.087  20.680  0.00  0.00    +0.000 A 
ATOM      9  C   UNL     1      -0.591  12.001  21.601  0.00  0.00    +0.000 A 
ATOM     10  C   UNL     1      -0.945  11.580  22.880  0.00  0.00    +0.000 A 
ATOM     11  C   UNL     1      -0.823  10.237  23.219  0.00  0.00    +0.000 A 
ATOM     12  C   UNL     1      -0.321   9.323  22.286  0.00  0.00    +0.000 A 
ATOM     13  C   UNL     1       0.102   9.724  21.026  0.00  0.00    +0.000 A 
ATOM     14  N   UNL     1       0.683   8.831  20.202  0.00  0.00    +0.000 NA
ENDBRANCH   2   5
BRANCH   3  15
ATOM     15  C   UNL     1       2.594   5.931  18.079  0.00  0.00    +0.000 A 
ATOM     16  C   UNL     1       2.011   4.662  18.032  0.00  0.00    +0.000 A 
ATOM     17  C   UNL     1       2.687   3.589  17.446  0.00  0.00    +0.000 A 
ATOM     18  C   UNL     1       3.962   3.772  16.913  0.00  0.00    +0.000 A 
ATOM     19  C   UNL     1       4.566   5.028  16.980  0.00  0.00    +0.000 A 
ATOM     20  C   UNL     1       3.867   6.114  17.524  0.00  0.00    +0.000 A 
BRANCH  19  21
ATOM     21  O   UNL     1       5.812   5.297  16.456  0.00  0.00    +0.000 OA
BRANCH  21  22
ATOM     22  C   UNL     1       6.670   6.107  17.189  0.00  0.00    +0.000 A 
ATOM     23  C   UNL     1       7.243   5.559  18.328  0.00  0.00    +0.000 A 
ATOM     24  N   UNL     1       8.105   6.248  19.117  0.00  0.00    +0.000 NA
ATOM     25  C   UNL     1       8.376   7.509  18.707  0.00  0.00    +0.000 A 
ATOM     26  C   UNL     1       7.821   8.049  17.558  0.00  0.00    +0.000 A 
ATOM     27  N   UNL     1       6.965   7.360  16.768  0.00  0.00    +0.000 NA
ENDBRANCH  21  22
ENDBRANCH  19  21
ENDBRANCH   3  15
TORSDOF 4
ENDMDL
MODEL 8
REMARK VINA RESULT:      -8.2      2.123      3.826
REMARK  Name = 
REMARK  4 active torsions:
REMARK  status: ('A' for Active; 'I' for Inactive)
REMARK    1  A    between atoms: C_2  and  C_17
REMARK    2  A    between atoms: N_3  and  C_4
REMARK    3  A    between atoms: C_8  and  O_9
REMARK    4  A    between atoms: O_9  and  C_10
REMARK                            x       y       z     vdW  Elec       q    Type
REMARK                         _______ _______ _______ _____ _____    ______ ____
ROOT
ATOM      1  O   UNL     1       2.221   9.204  17.029  0.00  0.00    +0.000 OA
ATOM      2  C   UNL     1       2.005   8.802  18.166  0.00  0.00    +0.000 C 
ATOM      3  N   UNL     1       2.496   7.646  18.748  0.00  0.00    +0.000 N 
ATOM      4  H   UNL     1       2.129   7.444  19.674  0.00  0.00    +0.000 HD
ENDROOT
BRANCH   2   5
ATOM      5  C   UNL     1       1.089   9.587  19.055  0.00  0.00    +0.000 A 
ATOM      6  C   UNL     1       0.691  10.855  18.657  0.00  0.00    +0.000 A 
ATOM      7  C   UNL     1      -0.081  11.601  19.535  0.00  0.00    +0.000 A 
ATOM      8  C   UNL     1      -0.364  11.091  20.806  0.00  0.00    +0.000 A 
ATOM      9  C   UNL     1      -0.998  11.883  21.776  0.00  0.00    +0.000 A 
ATOM     10  C   UNL     1      -1.197  11.389  23.061  0.00  0.00    +0.000 A 
ATOM     11  C   UNL     1      -0.821  10.085  23.362  0.00  0.00    +0.000 A 
ATOM     12  C   UNL     1      -0.221   9.287  22.382  0.00  0.00    +0.000 A 
ATOM     13  C   UNL     1       0.052   9.774  21.111  0.00  0.00    +0.000 A 
ATOM     14  N   UNL     1       0.733   9.009  20.235  0.00  0.00    +0.000 NA
ENDBRANCH   2   5
BRANCH   3  15
ATOM     15  C   UNL     1       3.348   6.697  18.149  0.00  0.00    +0.000 A 
ATOM     16  C   UNL     1       4.328   7.034  17.212  0.00  0.00    +0.000 A 
ATOM     17  C   UNL     1       5.139   6.049  16.643  0.00  0.00    +0.000 A 
ATOM     18  C   UNL     1       4.966   4.711  16.995  0.00  0.00    +0.000 A 
ATOM     19  C   UNL     1       3.971   4.360  17.908  0.00  0.00    +0.000 A 
ATOM     20  C   UNL     1       3.192   5.354  18.514  0.00  0.00    +0.000 A 
BRANCH  19  21
ATOM     21  O   UNL     1       3.752   3.065  18.326  0.00  0.00    +0.000 OA
BRANCH  21  22
ATOM     22  C   UNL     1       2.940   2.863  19.435  0.00  0.00    +0.000 A 
ATOM     23  C   UNL     1       3.570   2.658  20.654  0.00  0.00    +0.000 A 
ATOM     24  N   UNL     1       2.884   2.461  21.808  0.00  0.00    +0.000 NA
ATOM     25  C   UNL     1       1.536   2.488  21.686  0.00  0.00    +0.000 A 
ATOM     26  C   UNL     1       0.907   2.714  20.472  0.00  0.00    +0.000 A 
ATOM     27  N   UNL     1       1.591   2.915  19.323  0.00  0.00    +0.000 NA
ENDBRANCH  21  22
ENDBRANCH  19  21
ENDBRANCH   3  15
TORSDOF 4
ENDMDL
MODEL 9
REMARK VINA RESULT:      -8.2      1.192      1.433
REMARK  Name = 
REMARK  4 active torsions:
REMARK  status: ('A' for Active; 'I' for Inactive)
REMARK    1  A    between atoms: C_2  and  C_17
REMARK    2  A    between atoms: N_3  and  C_4
REMARK    3  A    between atoms: C_8  and  O_9
REMARK    4  A    between atoms: O_9  and  C_10
REMARK                            x       y       z     vdW  Elec       q    Type
REMARK                         _______ _______ _______ _____ _____    ______ ____
ROOT
ATOM      1  O   UNL     1       2.950   7.438  18.289  0.00  0.00    +0.000 OA
ATOM      2  C   UNL     1       2.307   7.371  19.330  0.00  0.00    +0.000 C 
ATOM      3  N   UNL     1       2.250   6.302  20.206  0.00  0.00    +0.000 N 
ATOM      4  H   UNL     1       1.589   6.410  20.971  0.00  0.00    +0.000 HD
ENDROOT
BRANCH   2   5
ATOM      5  C   UNL     1       1.445   8.530  19.730  0.00  0.00    +0.000 A 
ATOM      6  C   UNL     1       1.381   9.638  18.898  0.00  0.00    +0.000 A 
ATOM      7  C   UNL     1       0.653  10.736  19.330  0.00  0.00    +0.000 A 
ATOM      8  C   UNL     1       0.078  10.722  20.605  0.00  0.00    +0.000 A 
ATOM      9  C   UNL     1      -0.523  11.873  21.138  0.00  0.00    +0.000 A 
ATOM     10  C   UNL     1      -1.015  11.866  22.439  0.00  0.00    +0.000 A 
ATOM     11  C   UNL     1      -0.966  10.695  23.186  0.00  0.00    +0.000 A 
ATOM     12  C   UNL     1      -0.397   9.540  22.639  0.00  0.00    +0.000 A 
ATOM     13  C   UNL     1       0.163   9.534  21.368  0.00  0.00    +0.000 A 
ATOM     14  N   UNL     1       0.800   8.433  20.925  0.00  0.00    +0.000 NA
ENDBRANCH   2   5
BRANCH   3  15
ATOM     15  C   UNL     1       2.922   5.070  20.077  0.00  0.00    +0.000 A 
ATOM     16  C   UNL     1       2.397   3.861  20.542  0.00  0.00    +0.000 A 
ATOM     17  C   UNL     1       3.112   2.670  20.394  0.00  0.00    +0.000 A 
ATOM     18  C   UNL     1       4.370   2.679  19.793  0.00  0.00    +0.000 A 
ATOM     19  C   UNL     1       4.916   3.884  19.351  0.00  0.00    +0.000 A 
ATOM     20  C   UNL     1       4.176   5.070  19.455  0.00  0.00    +0.000 A 
BRANCH  19  21
ATOM     21  O   UNL     1       6.141   3.975  18.725  0.00  0.00    +0.000 OA
BRANCH  21  22
ATOM     22  C   UNL     1       6.571   5.227  18.306  0.00  0.00    +0.000 A 
ATOM     23  C   UNL     1       7.645   5.788  18.981  0.00  0.00    +0.000 A 
ATOM     24  N   UNL     1       8.162   7.000  18.656  0.00  0.00    +0.000 NA
ATOM     25  C   UNL     1       7.560   7.620  17.614  0.00  0.00    +0.000 A 
ATOM     26  C   UNL     1       6.501   7.050  16.925  0.00  0.00    +0.000 A 
ATOM     27  N   UNL     1       5.989   5.840  17.247  0.00  0.00    +0.000 NA
ENDBRANCH  21  22
ENDBRANCH  19  21
ENDBRANCH   3  15
TORSDOF 4
ENDMDL
