MODEL 1
REMARK VINA RESULT:      -8.8      0.000      0.000
REMARK  Name = 
REMARK  6 active torsions:
REMARK  status: ('A' for Active; 'I' for Inactive)
REMARK    1  A    between atoms: C_7  and  S_8
REMARK    2  A    between atoms: S_8  and  N_11
REMARK    3  A    between atoms: N_11  and  C_12
REMARK    4  A    between atoms: N_14  and  C_15
REMARK    5  A    between atoms: C_15  and  C_16
REMARK    6  A    between atoms: C_23  and  C_24
REMARK                            x       y       z     vdW  Elec       q    Type
REMARK                         _______ _______ _______ _____ _____    ______ ____
ROOT
ATOM      1  C   UNL     1      -0.649  10.548  19.663  0.00  0.00    +0.000 C 
ATOM      2  C   UNL     1      -0.552  10.452  18.136  0.00  0.00    +0.000 C 
ATOM      3  N   UNL     1      -1.795  11.055  17.637  0.00  0.00    +0.000 NA
ATOM      4  C   UNL     1      -1.950  12.240  18.506  0.00  0.00    +0.000 C 
ATOM      5  C   UNL     1      -1.214  11.977  19.859  0.00  0.00    +0.000 C 
ENDROOT
BRANCH   5   6
ATOM      6  C   UNL     1      -2.032  12.180  21.134  0.00  0.00    +0.000 A 
ATOM      7  C   UNL     1      -1.540  11.869  22.414  0.00  0.00    +0.000 A 
ATOM      8  C   UNL     1      -2.309  12.064  23.563  0.00  0.00    +0.000 A 
ATOM      9  C   UNL     1      -3.594  12.564  23.448  0.00  0.00    +0.000 A 
ATOM     10  F   UNL     1      -4.325  12.761  24.552  0.00  0.00    +0.000 F 
ATOM     11  C   UNL     1      -4.127  12.855  22.201  0.00  0.00    +0.000 A 
ATOM     12  C   UNL     1      -3.354  12.661  21.048  0.00  0.00    +0.000 A 
ENDBRANCH   5   6
BRANCH   1  13
ATOM     13  N   UNL     1       0.652  10.299  20.333  0.00  0.00    +0.000 NA
ATOM     14  H   UNL     1       1.467  10.335  19.721  0.00  0.00    +0.000 HD
BRANCH  13  15
ATOM     15  S   UNL     1       0.703   8.975  21.407  0.00  0.00    +0.000 S 
ATOM     16  O   UNL     1      -0.649   8.559  21.693  0.00  0.00    +0.000 OA
ATOM     17  O   UNL     1       1.638   9.323  22.453  0.00  0.00    +0.000 OA
BRANCH  15  24
ATOM     18  O   UNL     1       3.523   2.458  17.684  0.00  0.00    +0.000 OA
ATOM     19  C   UNL     1       2.983   3.316  18.377  0.00  0.00    +0.000 C 
ATOM     20  C   UNL     1       1.993   2.970  19.466  0.00  0.00    +0.000 C 
ATOM     21  C   UNL     1       2.068   3.952  20.623  0.00  0.00    +0.000 C 
ATOM     22  C   UNL     1       2.023   5.370  20.123  0.00  0.00    +0.000 A 
ATOM     23  C   UNL     1       1.467   6.392  20.898  0.00  0.00    +0.000 A 
ATOM     24  C   UNL     1       1.502   7.712  20.433  0.00  0.00    +0.000 A 
ATOM     25  C   UNL     1       2.101   8.021  19.206  0.00  0.00    +0.000 A 
ATOM     26  C   UNL     1       2.673   6.998  18.441  0.00  0.00    +0.000 A 
ATOM     27  C   UNL     1       2.617   5.679  18.894  0.00  0.00    +0.000 A 
ATOM     28  N   UNL     1       3.159   4.651  18.117  0.00  0.00    +0.000 N 
ATOM     29  H   UNL     1       3.706   4.866  17.293  0.00  0.00    +0.000 HD
ENDBRANCH  15  24
ENDBRANCH  13  15
ENDBRANCH   1  13
BRANCH   3  30
ATOM     30  C   UNL     1      -2.909  10.084  17.793  0.00  0.00    +0.000 C 
BRANCH  30  31
ATOM     31  C   UNL     1      -4.296  10.690  17.819  0.00  0.00    +0.000 A 
ATOM     32  C   UNL     1      -5.250  10.287  18.762  0.00  0.00    +0.000 A 
ATOM     33  C   UNL     1      -6.513  10.884  18.789  0.00  0.00    +0.000 A 
ATOM     34  C   UNL     1      -6.828  11.899  17.887  0.00  0.00    +0.000 A 
ATOM     35  C   UNL     1      -5.881  12.325  16.960  0.00  0.00    +0.000 A 
ATOM     36  C   UNL     1      -4.622  11.724  16.925  0.00  0.00    +0.000 A 
ENDBRANCH  30  31
ENDBRANCH   3  30
TORSDOF 6
ENDMDL
MODEL 2
REMARK VINA RESULT:      -8.6      0.816      1.779
REMARK  Name = 
REMARK  6 active torsions:
REMARK  status: ('A' for Active; 'I' for Inactive)
REMARK    1  A    between atoms: C_7  and  S_8
REMARK    2  A    between atoms: S_8  and  N_11
REMARK    3  A    between atoms: N_11  and  C_12
REMARK    4  A    between atoms: N_14  and  C_15
REMARK    5  A    between atoms: C_15  and  C_16
REMARK    6  A    between atoms: C_23  and  C_24
REMARK                            x       y       z     vdW  Elec       q    Type
REMARK                         _______ _______ _______ _____ _____    ______ ____
ROOT
ATOM      1  C   UNL     1      -0.570  10.395  19.531  0.00  0.00    +0.000 C 
ATOM      2  C   UNL     1      -0.537  10.265  18.004  0.00  0.00    +0.000 C 
ATOM      3  N   UNL     1      -1.766  10.924  17.540  0.00  0.00    +0.000 NA
ATOM      4  C   UNL     1      -1.823  12.132  18.389  0.00  0.00    +0.000 C 
ATOM      5  C   UNL     1      -1.050  11.856  19.718  0.00  0.00    +0.000 C 
ENDROOT
BRANCH   5   6
ATOM      6  C   UNL     1      -1.805  12.128  21.018  0.00  0.00    +0.000 A 
ATOM      7  C   UNL     1      -1.208  12.013  22.287  0.00  0.00    +0.000 A 
ATOM      8  C   UNL     1      -1.922  12.267  23.459  0.00  0.00    +0.000 A 
ATOM      9  C   UNL     1      -3.255  12.628  23.383  0.00  0.00    +0.000 A 
ATOM     10  F   UNL     1      -3.933  12.882  24.509  0.00  0.00    +0.000 F 
ATOM     11  C   UNL     1      -3.889  12.724  22.153  0.00  0.00    +0.000 A 
ATOM     12  C   UNL     1      -3.171  12.471  20.976  0.00  0.00    +0.000 A 
ENDBRANCH   5   6
BRANCH   1  13
ATOM     13  N   UNL     1       0.742  10.090  20.156  0.00  0.00    +0.000 NA
ATOM     14  H   UNL     1       1.526  10.030  19.508  0.00  0.00    +0.000 HD
BRANCH  13  15
ATOM     15  S   UNL     1       0.751   8.829  21.306  0.00  0.00    +0.000 S 
ATOM     16  O   UNL     1      -0.613   8.443  21.580  0.00  0.00    +0.000 OA
ATOM     17  O   UNL     1       1.663   9.227  22.354  0.00  0.00    +0.000 OA
BRANCH  15  24
ATOM     18  O   UNL     1       5.135   3.821  16.835  0.00  0.00    +0.000 OA
ATOM     19  C   UNL     1       4.570   4.744  17.416  0.00  0.00    +0.000 C 
ATOM     20  C   UNL     1       4.928   6.193  17.171  0.00  0.00    +0.000 C 
ATOM     21  C   UNL     1       3.718   7.099  17.316  0.00  0.00    +0.000 C 
ATOM     22  C   UNL     1       2.987   6.813  18.599  0.00  0.00    +0.000 A 
ATOM     23  C   UNL     1       2.285   7.818  19.271  0.00  0.00    +0.000 A 
ATOM     24  C   UNL     1       1.559   7.504  20.426  0.00  0.00    +0.000 A 
ATOM     25  C   UNL     1       1.517   6.190  20.908  0.00  0.00    +0.000 A 
ATOM     26  C   UNL     1       2.206   5.183  20.222  0.00  0.00    +0.000 A 
ATOM     27  C   UNL     1       2.949   5.500  19.084  0.00  0.00    +0.000 A 
ATOM     28  N   UNL     1       3.664   4.502  18.416  0.00  0.00    +0.000 N 
ATOM     29  H   UNL     1       3.545   3.529  18.671  0.00  0.00    +0.000 HD
ENDBRANCH  15  24
ENDBRANCH  13  15
ENDBRANCH   1  13
BRANCH   3  30
ATOM     30  C   UNL     1      -2.923  10.018  17.760  0.00  0.00    +0.000 C 
BRANCH  30  31
ATOM     31  C   UNL     1      -4.274  10.697  17.815  0.00  0.00    +0.000 A 
ATOM     32  C   UNL     1      -4.583  11.774  16.976  0.00  0.00    +0.000 A 
ATOM     33  C   UNL     1      -5.849  12.365  17.021  0.00  0.00    +0.000 A 
ATOM     34  C   UNL     1      -6.820  11.877  17.893  0.00  0.00    +0.000 A 
ATOM     35  C   UNL     1      -6.533  10.791  18.716  0.00  0.00    +0.000 A 
ATOM     36  C   UNL     1      -5.268  10.205  18.679  0.00  0.00    +0.000 A 
ENDBRANCH  30  31
ENDBRANCH   3  30
TORSDOF 6
ENDMDL
MODEL 3
REMARK VINA RESULT:      -8.5      1.172      1.318
REMARK  Name = 
REMARK  6 active torsions:
REMARK  status: ('A' for Active; 'I' for Inactive)
REMARK    1  A    between atoms: C_7  and  S_8
REMARK    2  A    between atoms: S_8  and  N_11
REMARK    3  A    between atoms: N_11  and  C_12
REMARK    4  A    between atoms: N_14  and  C_15
REMARK    5  A    between atoms: C_15  and  C_16
REMARK    6  A    between atoms: C_23  and  C_24
REMARK                            x       y       z     vdW  Elec       q    Type
REMARK                         _______ _______ _______ _____ _____    ______ ____
ROOT
ATOM      1  C   UNL     1      -0.365  10.525  19.527  0.00  0.00    +0.000 C 
ATOM      2  C   UNL     1      -0.645  10.234  18.048  0.00  0.00    +0.000 C 
ATOM      3  N   UNL     1      -1.764  11.116  17.692  0.00  0.00    +0.000 NA
ATOM      4  C   UNL     1      -1.399  12.384  18.358  0.00  0.00    +0.000 C 
ATOM      5  C   UNL     1      -0.472  12.070  19.575  0.00  0.00    +0.000 C 
ENDROOT
BRANCH   5   6
ATOM      6  C   UNL     1      -0.896  12.647  20.925  0.00  0.00    +0.000 A 
ATOM      7  C   UNL     1      -1.630  11.913  21.873  0.00  0.00    +0.000 A 
ATOM      8  C   UNL     1      -2.004  12.466  23.099  0.00  0.00    +0.000 A 
ATOM      9  C   UNL     1      -1.660  13.774  23.393  0.00  0.00    +0.000 A 
ATOM     10  F   UNL     1      -2.010  14.297  24.574  0.00  0.00    +0.000 F 
ATOM     11  C   UNL     1      -0.962  14.541  22.472  0.00  0.00    +0.000 A 
ATOM     12  C   UNL     1      -0.584  13.985  21.243  0.00  0.00    +0.000 A 
ENDBRANCH   5   6
BRANCH   1  13
ATOM     13  N   UNL     1       0.942   9.981  19.977  0.00  0.00    +0.000 NA
ATOM     14  H   UNL     1       1.582   9.722  19.228  0.00  0.00    +0.000 HD
BRANCH  13  15
ATOM     15  S   UNL     1       0.881   8.809  21.216  0.00  0.00    +0.000 S 
ATOM     16  O   UNL     1      -0.502   8.522  21.513  0.00  0.00    +0.000 OA
ATOM     17  O   UNL     1       1.815   9.232  22.235  0.00  0.00    +0.000 OA
BRANCH  15  24
ATOM     18  O   UNL     1       3.280   1.697  18.397  0.00  0.00    +0.000 OA
ATOM     19  C   UNL     1       2.784   2.671  18.957  0.00  0.00    +0.000 C 
ATOM     20  C   UNL     1       1.694   2.537  19.996  0.00  0.00    +0.000 C 
ATOM     21  C   UNL     1       1.789   3.627  21.049  0.00  0.00    +0.000 C 
ATOM     22  C   UNL     1       1.918   4.980  20.407  0.00  0.00    +0.000 A 
ATOM     23  C   UNL     1       1.417   6.127  21.030  0.00  0.00    +0.000 A 
ATOM     24  C   UNL     1       1.613   7.380  20.438  0.00  0.00    +0.000 A 
ATOM     25  C   UNL     1       2.320   7.499  19.235  0.00  0.00    +0.000 A 
ATOM     26  C   UNL     1       2.837   6.351  18.624  0.00  0.00    +0.000 A 
ATOM     27  C   UNL     1       2.621   5.099  19.202  0.00  0.00    +0.000 A 
ATOM     28  N   UNL     1       3.109   3.948  18.577  0.00  0.00    +0.000 N 
ATOM     29  H   UNL     1       3.728   4.022  17.779  0.00  0.00    +0.000 HD
ENDBRANCH  15  24
ENDBRANCH  13  15
ENDBRANCH   1  13
BRANCH   3  30
ATOM     30  C   UNL     1      -3.030  10.541  18.217  0.00  0.00    +0.000 C 
BRANCH  30  31
ATOM     31  C   UNL     1      -4.203  11.496  18.263  0.00  0.00    +0.000 A 
ATOM     32  C   UNL     1      -4.548  12.170  19.441  0.00  0.00    +0.000 A 
ATOM     33  C   UNL     1      -5.615  13.072  19.452  0.00  0.00    +0.000 A 
ATOM     34  C   UNL     1      -6.335  13.321  18.284  0.00  0.00    +0.000 A 
ATOM     35  C   UNL     1      -5.987  12.675  17.101  0.00  0.00    +0.000 A 
ATOM     36  C   UNL     1      -4.928  11.767  17.090  0.00  0.00    +0.000 A 
ENDBRANCH  30  31
ENDBRANCH   3  30
TORSDOF 6
ENDMDL
MODEL 4
REMARK VINA RESULT:      -8.5      1.135      1.524
REMARK  Name = 
REMARK  6 active torsions:
REMARK  status: ('A' for Active; 'I' for Inactive)
REMARK    1  A    between atoms: C_7  and  S_8
REMARK    2  A    between atoms: S_8  and  N_11
REMARK    3  A    between atoms: N_11  and  C_12
REMARK    4  A    between atoms: N_14  and  C_15
REMARK    5  A    between atoms: C_15  and  C_16
REMARK    6  A    between atoms: C_23  and  C_24
REMARK                            x       y       z     vdW  Elec       q    Type
REMARK                         _______ _______ _______ _____ _____    ______ ____
ROOT
ATOM      1  C   UNL     1      -0.325  10.522  19.529  0.00  0.00    +0.000 C 
ATOM      2  C   UNL     1      -0.501  10.093  18.068  0.00  0.00    +0.000 C 
ATOM      3  N   UNL     1      -1.612  10.910  17.563  0.00  0.00    +0.000 NA
ATOM      4  C   UNL     1      -1.318  12.241  18.133  0.00  0.00    +0.000 C 
ATOM      5  C   UNL     1      -0.468  12.061  19.431  0.00  0.00    +0.000 C 
ENDROOT
BRANCH   5   6
ATOM      6  C   UNL     1      -0.992  12.745  20.693  0.00  0.00    +0.000 A 
ATOM      7  C   UNL     1      -1.547  14.037  20.688  0.00  0.00    +0.000 A 
ATOM      8  C   UNL     1      -2.017  14.638  21.857  0.00  0.00    +0.000 A 
ATOM      9  C   UNL     1      -1.927  13.958  23.058  0.00  0.00    +0.000 A 
ATOM     10  F   UNL     1      -2.390  14.533  24.176  0.00  0.00    +0.000 F 
ATOM     11  C   UNL     1      -1.359  12.694  23.111  0.00  0.00    +0.000 A 
ATOM     12  C   UNL     1      -0.889  12.091  21.937  0.00  0.00    +0.000 A 
ENDBRANCH   5   6
BRANCH   1  13
ATOM     13  N   UNL     1       0.959  10.055  20.110  0.00  0.00    +0.000 NA
ATOM     14  H   UNL     1       1.697   9.872  19.432  0.00  0.00    +0.000 HD
BRANCH  13  15
ATOM     15  S   UNL     1       0.848   8.834  21.296  0.00  0.00    +0.000 S 
ATOM     16  O   UNL     1      -0.547   8.564  21.554  0.00  0.00    +0.000 OA
ATOM     17  O   UNL     1       1.769   9.193  22.351  0.00  0.00    +0.000 OA
BRANCH  15  24
ATOM     18  O   UNL     1       3.191   1.788  18.270  0.00  0.00    +0.000 OA
ATOM     19  C   UNL     1       2.704   2.750  18.860  0.00  0.00    +0.000 C 
ATOM     20  C   UNL     1       1.627   2.592  19.910  0.00  0.00    +0.000 C 
ATOM     21  C   UNL     1       1.739   3.655  20.989  0.00  0.00    +0.000 C 
ATOM     22  C   UNL     1       1.863   5.024  20.379  0.00  0.00    +0.000 A 
ATOM     23  C   UNL     1       1.374   6.156  21.037  0.00  0.00    +0.000 A 
ATOM     24  C   UNL     1       1.566   7.423  20.474  0.00  0.00    +0.000 A 
ATOM     25  C   UNL     1       2.257   7.570  19.265  0.00  0.00    +0.000 A 
ATOM     26  C   UNL     1       2.763   6.436  18.619  0.00  0.00    +0.000 A 
ATOM     27  C   UNL     1       2.551   5.171  19.168  0.00  0.00    +0.000 A 
ATOM     28  N   UNL     1       3.027   4.035  18.509  0.00  0.00    +0.000 N 
ATOM     29  H   UNL     1       3.636   4.126  17.705  0.00  0.00    +0.000 HD
ENDBRANCH  15  24
ENDBRANCH  13  15
ENDBRANCH   1  13
BRANCH   3  30
ATOM     30  C   UNL     1      -2.898  10.350  18.055  0.00  0.00    +0.000 C 
BRANCH  30  31
ATOM     31  C   UNL     1      -4.043  11.337  18.136  0.00  0.00    +0.000 A 
ATOM     32  C   UNL     1      -4.842  11.618  17.021  0.00  0.00    +0.000 A 
ATOM     33  C   UNL     1      -5.915  12.506  17.127  0.00  0.00    +0.000 A 
ATOM     34  C   UNL     1      -6.209  13.110  18.349  0.00  0.00    +0.000 A 
ATOM     35  C   UNL     1      -5.436  12.820  19.470  0.00  0.00    +0.000 A 
ATOM     36  C   UNL     1      -4.359  11.940  19.365  0.00  0.00    +0.000 A 
ENDBRANCH  30  31
ENDBRANCH   3  30
TORSDOF 6
ENDMDL
MODEL 5
REMARK VINA RESULT:      -8.3      4.919     10.270
REMARK  Name = 
REMARK  6 active torsions:
REMARK  status: ('A' for Active; 'I' for Inactive)
REMARK    1  A    between atoms: C_7  and  S_8
REMARK    2  A    between atoms: S_8  and  N_11
REMARK    3  A    between atoms: N_11  and  C_12
REMARK    4  A    between atoms: N_14  and  C_15
REMARK    5  A    between atoms: C_15  and  C_16
REMARK    6  A    between atoms: C_23  and  C_24
REMARK                            x       y       z     vdW  Elec       q    Type
REMARK                         _______ _______ _______ _____ _____    ______ ____
ROOT
ATOM      1  C   UNL     1       4.926   5.039  18.347  0.00  0.00    +0.000 C 
ATOM      2  C   UNL     1       4.613   3.670  17.732  0.00  0.00    +0.000 C 
ATOM      3  N   UNL     1       5.530   3.547  16.591  0.00  0.00    +0.000 NA
ATOM      4  C   UNL     1       6.797   4.075  17.138  0.00  0.00    +0.000 C 
ATOM      5  C   UNL     1       6.475   5.063  18.304  0.00  0.00    +0.000 C 
ENDROOT
BRANCH   5   6
ATOM      6  C   UNL     1       7.099   6.454  18.214  0.00  0.00    +0.000 A 
ATOM      7  C   UNL     1       8.201   6.849  18.993  0.00  0.00    +0.000 A 
ATOM      8  C   UNL     1       8.751   8.128  18.891  0.00  0.00    +0.000 A 
ATOM      9  C   UNL     1       8.196   9.043  18.014  0.00  0.00    +0.000 A 
ATOM     10  F   UNL     1       8.733  10.265  17.910  0.00  0.00    +0.000 F 
ATOM     11  C   UNL     1       7.090   8.703  17.250  0.00  0.00    +0.000 A 
ATOM     12  C   UNL     1       6.540   7.418  17.351  0.00  0.00    +0.000 A 
ENDBRANCH   5   6
BRANCH   1  13
ATOM     13  N   UNL     1       4.342   5.202  19.702  0.00  0.00    +0.000 NA
ATOM     14  H   UNL     1       4.767   4.627  20.428  0.00  0.00    +0.000 HD
BRANCH  13  15
ATOM     15  S   UNL     1       2.638   5.205  19.791  0.00  0.00    +0.000 S 
ATOM     16  O   UNL     1       2.245   5.023  21.167  0.00  0.00    +0.000 OA
ATOM     17  O   UNL     1       2.165   4.339  18.735  0.00  0.00    +0.000 OA
BRANCH  15  24
ATOM     18  O   UNL     1       0.724  12.930  18.817  0.00  0.00    +0.000 OA
ATOM     19  C   UNL     1       0.985  11.784  19.175  0.00  0.00    +0.000 C 
ATOM     20  C   UNL     1       0.993  11.376  20.631  0.00  0.00    +0.000 C 
ATOM     21  C   UNL     1       0.557   9.932  20.809  0.00  0.00    +0.000 C 
ATOM     22  C   UNL     1       1.308   9.028  19.871  0.00  0.00    +0.000 A 
ATOM     23  C   UNL     1       1.583   7.700  20.210  0.00  0.00    +0.000 A 
ATOM     24  C   UNL     1       2.224   6.866  19.287  0.00  0.00    +0.000 A 
ATOM     25  C   UNL     1       2.580   7.343  18.020  0.00  0.00    +0.000 A 
ATOM     26  C   UNL     1       2.287   8.668  17.676  0.00  0.00    +0.000 A 
ATOM     27  C   UNL     1       1.669   9.506  18.605  0.00  0.00    +0.000 A 
ATOM     28  N   UNL     1       1.404  10.839  18.275  0.00  0.00    +0.000 N 
ATOM     29  H   UNL     1       1.536  11.168  17.327  0.00  0.00    +0.000 HD
ENDBRANCH  15  24
ENDBRANCH  13  15
ENDBRANCH   1  13
BRANCH   3  30
ATOM     30  C   UNL     1       5.016   4.360  15.458  0.00  0.00    +0.000 C 
BRANCH  30  31
ATOM     31  C   UNL     1       5.835   4.285  14.187  0.00  0.00    +0.000 A 
ATOM     32  C   UNL     1       5.443   3.473  13.115  0.00  0.00    +0.000 A 
ATOM     33  C   UNL     1       6.196   3.445  11.938  0.00  0.00    +0.000 A 
ATOM     34  C   UNL     1       7.336   4.238  11.815  0.00  0.00    +0.000 A 
ATOM     35  C   UNL     1       7.722   5.067  12.865  0.00  0.00    +0.000 A 
ATOM     36  C   UNL     1       6.977   5.090  14.044  0.00  0.00    +0.000 A 
ENDBRANCH  30  31
ENDBRANCH   3  30
TORSDOF 6
ENDMDL
MODEL 6
REMARK VINA RESULT:      -8.3      4.919     10.309
REMARK  Name = 
REMARK  6 active torsions:
REMARK  status: ('A' for Active; 'I' for Inactive)
REMARK    1  A    between atoms: C_7  and  S_8
REMARK    2  A    between atoms: S_8  and  N_11
REMARK    3  A    between atoms: N_11  and  C_12
REMARK    4  A    between atoms: N_14  and  C_15
REMARK    5  A    between atoms: C_15  and  C_16
REMARK    6  A    between atoms: C_23  and  C_24
REMARK                            x       y       z     vdW  Elec       q    Type
REMARK                         _______ _______ _______ _____ _____    ______ ____
ROOT
ATOM      1  C   UNL     1       4.936   4.991  18.315  0.00  0.00    +0.000 C 
ATOM      2  C   UNL     1       4.660   3.617  17.693  0.00  0.00    +0.000 C 
ATOM      3  N   UNL     1       5.562   3.534  16.537  0.00  0.00    +0.000 NA
ATOM      4  C   UNL     1       6.819   4.100  17.069  0.00  0.00    +0.000 C 
ATOM      5  C   UNL     1       6.482   5.067  18.248  0.00  0.00    +0.000 C 
ENDROOT
BRANCH   5   6
ATOM      6  C   UNL     1       7.056   6.480  18.160  0.00  0.00    +0.000 A 
ATOM      7  C   UNL     1       6.522   7.471  17.317  0.00  0.00    +0.000 A 
ATOM      8  C   UNL     1       7.067   8.755  17.257  0.00  0.00    +0.000 A 
ATOM      9  C   UNL     1       8.171   9.066  18.032  0.00  0.00    +0.000 A 
ATOM     10  F   UNL     1       8.685  10.301  17.979  0.00  0.00    +0.000 F 
ATOM     11  C   UNL     1       8.747   8.108  18.853  0.00  0.00    +0.000 A 
ATOM     12  C   UNL     1       8.197   6.820  18.915  0.00  0.00    +0.000 A 
ENDBRANCH   5   6
BRANCH   1  13
ATOM     13  N   UNL     1       4.367   5.123  19.680  0.00  0.00    +0.000 NA
ATOM     14  H   UNL     1       4.793   4.523  20.385  0.00  0.00    +0.000 HD
BRANCH  13  15
ATOM     15  S   UNL     1       2.665   5.144  19.786  0.00  0.00    +0.000 S 
ATOM     16  O   UNL     1       2.285   4.982  21.169  0.00  0.00    +0.000 OA
ATOM     17  O   UNL     1       2.172   4.270  18.746  0.00  0.00    +0.000 OA
BRANCH  15  24
ATOM     18  O   UNL     1       0.791  12.869  18.739  0.00  0.00    +0.000 OA
ATOM     19  C   UNL     1       1.044  11.725  19.108  0.00  0.00    +0.000 C 
ATOM     20  C   UNL     1       1.038  11.327  20.567  0.00  0.00    +0.000 C 
ATOM     21  C   UNL     1       0.594   9.887  20.751  0.00  0.00    +0.000 C 
ATOM     22  C   UNL     1       1.350   8.973  19.827  0.00  0.00    +0.000 A 
ATOM     23  C   UNL     1       1.616   7.646  20.178  0.00  0.00    +0.000 A 
ATOM     24  C   UNL     1       2.262   6.803  19.267  0.00  0.00    +0.000 A 
ATOM     25  C   UNL     1       2.631   7.270  18.000  0.00  0.00    +0.000 A 
ATOM     26  C   UNL     1       2.346   8.593  17.643  0.00  0.00    +0.000 A 
ATOM     27  C   UNL     1       1.724   9.441  18.561  0.00  0.00    +0.000 A 
ATOM     28  N   UNL     1       1.467  10.771  18.219  0.00  0.00    +0.000 N 
ATOM     29  H   UNL     1       1.609  11.093  17.269  0.00  0.00    +0.000 HD
ENDBRANCH  15  24
ENDBRANCH  13  15
ENDBRANCH   1  13
BRANCH   3  30
ATOM     30  C   UNL     1       5.004   4.336  15.419  0.00  0.00    +0.000 C 
BRANCH  30  31
ATOM     31  C   UNL     1       5.822   4.327  14.145  0.00  0.00    +0.000 A 
ATOM     32  C   UNL     1       6.980   5.104  14.017  0.00  0.00    +0.000 A 
ATOM     33  C   UNL     1       7.738   5.054  12.845  0.00  0.00    +0.000 A 
ATOM     34  C   UNL     1       7.357   4.217  11.797  0.00  0.00    +0.000 A 
ATOM     35  C   UNL     1       6.221   3.422  11.922  0.00  0.00    +0.000 A 
ATOM     36  C   UNL     1       5.457   3.476  13.088  0.00  0.00    +0.000 A 
ENDBRANCH  30  31
ENDBRANCH   3  30
TORSDOF 6
ENDMDL
MODEL 7
REMARK VINA RESULT:      -8.2      1.381      2.136
REMARK  Name = 
REMARK  6 active torsions:
REMARK  status: ('A' for Active; 'I' for Inactive)
REMARK    1  A    between atoms: C_7  and  S_8
REMARK    2  A    between atoms: S_8  and  N_11
REMARK    3  A    between atoms: N_11  and  C_12
REMARK    4  A    between atoms: N_14  and  C_15
REMARK    5  A    between atoms: C_15  and  C_16
REMARK    6  A    between atoms: C_23  and  C_24
REMARK                            x       y       z     vdW  Elec       q    Type
REMARK                         _______ _______ _______ _____ _____    ______ ____
ROOT
ATOM      1  C   UNL     1      -0.349  10.666  19.726  0.00  0.00    +0.000 C 
ATOM      2  C   UNL     1      -0.600  10.383  18.241  0.00  0.00    +0.000 C 
ATOM      3  N   UNL     1      -1.711  11.269  17.868  0.00  0.00    +0.000 NA
ATOM      4  C   UNL     1      -1.356  12.533  18.546  0.00  0.00    +0.000 C 
ATOM      5  C   UNL     1      -0.454  12.211  19.780  0.00  0.00    +0.000 C 
ENDROOT
BRANCH   5   6
ATOM      6  C   UNL     1      -0.902  12.783  21.124  0.00  0.00    +0.000 A 
ATOM      7  C   UNL     1      -1.932  12.211  21.892  0.00  0.00    +0.000 A 
ATOM      8  C   UNL     1      -2.322  12.755  23.118  0.00  0.00    +0.000 A 
ATOM      9  C   UNL     1      -1.694  13.894  23.590  0.00  0.00    +0.000 A 
ATOM     10  F   UNL     1      -2.062  14.406  24.771  0.00  0.00    +0.000 F 
ATOM     11  C   UNL     1      -0.694  14.505  22.849  0.00  0.00    +0.000 A 
ATOM     12  C   UNL     1      -0.301  13.957  21.621  0.00  0.00    +0.000 A 
ENDBRANCH   5   6
BRANCH   1  13
ATOM     13  N   UNL     1       0.947  10.117  20.199  0.00  0.00    +0.000 NA
ATOM     14  H   UNL     1       1.640   9.956  19.469  0.00  0.00    +0.000 HD
BRANCH  13  15
ATOM     15  S   UNL     1       0.855   8.821  21.305  0.00  0.00    +0.000 S 
ATOM     16  O   UNL     1      -0.534   8.501  21.528  0.00  0.00    +0.000 OA
ATOM     17  O   UNL     1       1.756   9.136  22.391  0.00  0.00    +0.000 OA
BRANCH  15  24
ATOM     18  O   UNL     1       5.045   3.741  16.730  0.00  0.00    +0.000 OA
ATOM     19  C   UNL     1       4.512   4.674  17.327  0.00  0.00    +0.000 C 
ATOM     20  C   UNL     1       4.897   6.115  17.082  0.00  0.00    +0.000 C 
ATOM     21  C   UNL     1       3.710   7.047  17.254  0.00  0.00    +0.000 C 
ATOM     22  C   UNL     1       2.997   6.771  18.548  0.00  0.00    +0.000 A 
ATOM     23  C   UNL     1       2.329   7.787  19.238  0.00  0.00    +0.000 A 
ATOM     24  C   UNL     1       1.618   7.483  20.404  0.00  0.00    +0.000 A 
ATOM     25  C   UNL     1       1.555   6.168  20.880  0.00  0.00    +0.000 A 
ATOM     26  C   UNL     1       2.209   5.150  20.177  0.00  0.00    +0.000 A 
ATOM     27  C   UNL     1       2.938   5.457  19.028  0.00  0.00    +0.000 A 
ATOM     28  N   UNL     1       3.618   4.446  18.341  0.00  0.00    +0.000 N 
ATOM     29  H   UNL     1       3.483   3.475  18.594  0.00  0.00    +0.000 HD
ENDBRANCH  15  24
ENDBRANCH  13  15
ENDBRANCH   1  13
BRANCH   3  30
ATOM     30  C   UNL     1      -2.988  10.695  18.365  0.00  0.00    +0.000 C 
BRANCH  30  31
ATOM     31  C   UNL     1      -4.185  11.618  18.287  0.00  0.00    +0.000 A 
ATOM     32  C   UNL     1      -4.886  11.803  17.089  0.00  0.00    +0.000 A 
ATOM     33  C   UNL     1      -6.008  12.634  17.048  0.00  0.00    +0.000 A 
ATOM     34  C   UNL     1      -6.450  13.273  18.206  0.00  0.00    +0.000 A 
ATOM     35  C   UNL     1      -5.776  13.079  19.408  0.00  0.00    +0.000 A 
ATOM     36  C   UNL     1      -4.650  12.257  19.449  0.00  0.00    +0.000 A 
ENDBRANCH  30  31
ENDBRANCH   3  30
TORSDOF 6
ENDMDL
MODEL 8
REMARK VINA RESULT:      -8.1      1.301      1.923
REMARK  Name = 
REMARK  6 active torsions:
REMARK  status: ('A' for Active; 'I' for Inactive)
REMARK    1  A    between atoms: C_7  and  S_8
REMARK    2  A    between atoms: S_8  and  N_11
REMARK    3  A    between atoms: N_11  and  C_12
REMARK    4  A    between atoms: N_14  and  C_15
REMARK    5  A    between atoms: C_15  and  C_16
REMARK    6  A    between atoms: C_23  and  C_24
REMARK                            x       y       z     vdW  Elec       q    Type
REMARK                         _______ _______ _______ _____ _____    ______ ____
ROOT
ATOM      1  C   UNL     1      -0.437  10.646  19.726  0.00  0.00    +0.000 C 
ATOM      2  C   UNL     1      -0.688  10.342  18.244  0.00  0.00    +0.000 C 
ATOM      3  N   UNL     1      -1.814  11.205  17.864  0.00  0.00    +0.000 NA
ATOM      4  C   UNL     1      -1.479  12.482  18.528  0.00  0.00    +0.000 C 
ATOM      5  C   UNL     1      -0.569  12.189  19.763  0.00  0.00    +0.000 C 
ENDROOT
BRANCH   5   6
ATOM      6  C   UNL     1      -1.023  12.768  21.102  0.00  0.00    +0.000 A 
ATOM      7  C   UNL     1      -0.303  13.762  21.788  0.00  0.00    +0.000 A 
ATOM      8  C   UNL     1      -0.742  14.273  23.011  0.00  0.00    +0.000 A 
ATOM      9  C   UNL     1      -1.907  13.785  23.577  0.00  0.00    +0.000 A 
ATOM     10  F   UNL     1      -2.330  14.285  24.745  0.00  0.00    +0.000 F 
ATOM     11  C   UNL     1      -2.630  12.783  22.947  0.00  0.00    +0.000 A 
ATOM     12  C   UNL     1      -2.190  12.273  21.718  0.00  0.00    +0.000 A 
ENDBRANCH   5   6
BRANCH   1  13
ATOM     13  N   UNL     1       0.869  10.124  20.201  0.00  0.00    +0.000 NA
ATOM     14  H   UNL     1       1.565   9.974  19.472  0.00  0.00    +0.000 HD
BRANCH  13  15
ATOM     15  S   UNL     1       0.802   8.831  21.312  0.00  0.00    +0.000 S 
ATOM     16  O   UNL     1      -0.582   8.493  21.546  0.00  0.00    +0.000 OA
ATOM     17  O   UNL     1       1.706   9.161  22.391  0.00  0.00    +0.000 OA
BRANCH  15  24
ATOM     18  O   UNL     1       5.048   3.788  16.749  0.00  0.00    +0.000 OA
ATOM     19  C   UNL     1       4.507   4.715  17.346  0.00  0.00    +0.000 C 
ATOM     20  C   UNL     1       4.893   6.159  17.116  0.00  0.00    +0.000 C 
ATOM     21  C   UNL     1       3.704   7.088  17.281  0.00  0.00    +0.000 C 
ATOM     22  C   UNL     1       2.977   6.802  18.565  0.00  0.00    +0.000 A 
ATOM     23  C   UNL     1       2.300   7.813  19.254  0.00  0.00    +0.000 A 
ATOM     24  C   UNL     1       1.576   7.500  20.410  0.00  0.00    +0.000 A 
ATOM     25  C   UNL     1       1.510   6.181  20.877  0.00  0.00    +0.000 A 
ATOM     26  C   UNL     1       2.173   5.168  20.174  0.00  0.00    +0.000 A 
ATOM     27  C   UNL     1       2.914   5.484  19.035  0.00  0.00    +0.000 A 
ATOM     28  N   UNL     1       3.603   4.480  18.349  0.00  0.00    +0.000 N 
ATOM     29  H   UNL     1       3.466   3.507  18.593  0.00  0.00    +0.000 HD
ENDBRANCH  15  24
ENDBRANCH  13  15
ENDBRANCH   1  13
BRANCH   3  30
ATOM     30  C   UNL     1      -3.080  10.614  18.371  0.00  0.00    +0.000 C 
BRANCH  30  31
ATOM     31  C   UNL     1      -4.300  11.502  18.254  0.00  0.00    +0.000 A 
ATOM     32  C   UNL     1      -4.867  12.114  19.379  0.00  0.00    +0.000 A 
ATOM     33  C   UNL     1      -5.973  12.956  19.243  0.00  0.00    +0.000 A 
ATOM     34  C   UNL     1      -6.512  13.208  17.982  0.00  0.00    +0.000 A 
ATOM     35  C   UNL     1      -5.943  12.625  16.853  0.00  0.00    +0.000 A 
ATOM     36  C   UNL     1      -4.844  11.776  16.988  0.00  0.00    +0.000 A 
ENDBRANCH  30  31
ENDBRANCH   3  30
TORSDOF 6
ENDMDL
MODEL 9
REMARK VINA RESULT:      -8.0      5.527      9.425
REMARK  Name = 
REMARK  6 active torsions:
REMARK  status: ('A' for Active; 'I' for Inactive)
REMARK    1  A    between atoms: C_7  and  S_8
REMARK    2  A    between atoms: S_8  and  N_11
REMARK    3  A    between atoms: N_11  and  C_12
REMARK    4  A    between atoms: N_14  and  C_15
REMARK    5  A    between atoms: C_15  and  C_16
REMARK    6  A    between atoms: C_23  and  C_24
REMARK                            x       y       z     vdW  Elec       q    Type
REMARK                         _______ _______ _______ _____ _____    ______ ____
ROOT
ATOM      1  C   UNL     1       5.173   6.396  17.907  0.00  0.00    +0.000 C 
ATOM      2  C   UNL     1       5.627   5.085  17.254  0.00  0.00    +0.000 C 
ATOM      3  N   UNL     1       4.547   4.128  17.532  0.00  0.00    +0.000 NA
ATOM      4  C   UNL     1       3.332   4.936  17.296  0.00  0.00    +0.000 C 
ATOM      5  C   UNL     1       3.673   6.443  17.522  0.00  0.00    +0.000 C 
ENDROOT
BRANCH   5   6
ATOM      6  C   UNL     1       2.779   7.209  18.496  0.00  0.00    +0.000 A 
ATOM      7  C   UNL     1       2.446   6.721  19.773  0.00  0.00    +0.000 A 
ATOM      8  C   UNL     1       1.626   7.443  20.643  0.00  0.00    +0.000 A 
ATOM      9  C   UNL     1       1.112   8.664  20.243  0.00  0.00    +0.000 A 
ATOM     10  F   UNL     1       0.336   9.358  21.084  0.00  0.00    +0.000 F 
ATOM     11  C   UNL     1       1.393   9.166  18.981  0.00  0.00    +0.000 A 
ATOM     12  C   UNL     1       2.218   8.443  18.109  0.00  0.00    +0.000 A 
ENDBRANCH   5   6
BRANCH   1  13
ATOM     13  N   UNL     1       5.967   7.564  17.451  0.00  0.00    +0.000 NA
ATOM     14  H   UNL     1       5.711   7.929  16.535  0.00  0.00    +0.000 HD
BRANCH  13  15
ATOM     15  S   UNL     1       7.657   7.450  17.656  0.00  0.00    +0.000 S 
ATOM     16  O   UNL     1       8.249   7.043  16.404  0.00  0.00    +0.000 OA
ATOM     17  O   UNL     1       7.880   6.722  18.885  0.00  0.00    +0.000 OA
BRANCH  15  24
ATOM     18  O   UNL     1      10.829  14.518  19.723  0.00  0.00    +0.000 OA
ATOM     19  C   UNL     1      10.507  13.351  19.518  0.00  0.00    +0.000 C 
ATOM     20  C   UNL     1      11.328  12.185  20.021  0.00  0.00    +0.000 C 
ATOM     21  C   UNL     1      10.453  10.993  20.366  0.00  0.00    +0.000 C 
ATOM     22  C   UNL     1       9.502  10.686  19.243  0.00  0.00    +0.000 A 
ATOM     23  C   UNL     1       9.063   9.381  19.002  0.00  0.00    +0.000 A 
ATOM     24  C   UNL     1       8.125   9.139  17.993  0.00  0.00    +0.000 A 
ATOM     25  C   UNL     1       7.610  10.194  17.229  0.00  0.00    +0.000 A 
ATOM     26  C   UNL     1       8.037  11.502  17.485  0.00  0.00    +0.000 A 
ATOM     27  C   UNL     1       8.990  11.740  18.475  0.00  0.00    +0.000 A 
ATOM     28  N   UNL     1       9.442  13.041  18.712  0.00  0.00    +0.000 N 
ATOM     29  H   UNL     1       8.993  13.829  18.262  0.00  0.00    +0.000 HD
ENDBRANCH  15  24
ENDBRANCH  13  15
ENDBRANCH   1  13
BRANCH   3  30
ATOM     30  C   UNL     1       4.656   3.659  18.937  0.00  0.00    +0.000 C 
BRANCH  30  31
ATOM     31  C   UNL     1       3.340   3.351  19.620  0.00  0.00    +0.000 A 
ATOM     32  C   UNL     1       3.165   3.562  20.993  0.00  0.00    +0.000 A 
ATOM     33  C   UNL     1       1.931   3.303  21.596  0.00  0.00    +0.000 A 
ATOM     34  C   UNL     1       0.859   2.846  20.830  0.00  0.00    +0.000 A 
ATOM     35  C   UNL     1       1.014   2.655  19.460  0.00  0.00    +0.000 A 
ATOM     36  C   UNL     1       2.247   2.905  18.858  0.00  0.00    +0.000 A 
ENDBRANCH  30  31
ENDBRANCH   3  30
TORSDOF 6
ENDMDL
