MODEL 1
REMARK VINA RESULT:      -8.9      0.000      0.000
REMARK  Name = 
REMARK  7 active torsions:
REMARK  status: ('A' for Active; 'I' for Inactive)
REMARK    1  A    between atoms: C_1  and  C_2
REMARK    2  A    between atoms: C_10  and  C_11
REMARK    3  A    between atoms: N_14  and  C_15
REMARK    4  A    between atoms: C_15  and  C_16
REMARK    5  A    between atoms: C_20  and  C_21
REMARK    6  A    between atoms: N_23  and  C_24
REMARK    7  A    between atoms: N_23  and  C_25
REMARK                            x       y       z     vdW  Elec       q    Type
REMARK                         _______ _______ _______ _____ _____    ______ ____
ROOT
ATOM      1  C   UNL     1       2.851   6.480  18.723  0.00  0.00    +0.000 C 
ATOM      2  C   UNL     1       2.361   6.318  19.962  0.00  0.00    +0.000 C 
ATOM      3  C   UNL     1       1.653   7.399  20.724  0.00  0.00    +0.000 C 
ATOM      4  N   UNL     1       1.688   8.736  20.106  0.00  0.00    +0.000 NA
ATOM      5  C   UNL     1       1.609   8.651  18.632  0.00  0.00    +0.000 C 
ATOM      6  C   UNL     1       2.730   7.799  18.018  0.00  0.00    +0.000 C 
ENDROOT
BRANCH   1  16
ATOM      7  C   UNL     1       1.403   3.752  17.957  0.00  0.00    +0.000 C 
ATOM      8  C   UNL     1       2.763   4.249  17.618  0.00  0.00    +0.000 A 
ATOM      9  N   UNL     1       3.625   3.520  16.837  0.00  0.00    +0.000 N 
ATOM     10  C   UNL     1       4.818   4.193  16.669  0.00  0.00    +0.000 A 
ATOM     11  C   UNL     1       5.964   3.836  15.946  0.00  0.00    +0.000 A 
ATOM     12  C   UNL     1       7.045   4.723  15.963  0.00  0.00    +0.000 A 
ATOM     13  C   UNL     1       6.979   5.919  16.673  0.00  0.00    +0.000 A 
ATOM     14  C   UNL     1       5.824   6.266  17.382  0.00  0.00    +0.000 A 
ATOM     15  C   UNL     1       4.717   5.389  17.379  0.00  0.00    +0.000 A 
ATOM     16  C   UNL     1       3.412   5.420  17.957  0.00  0.00    +0.000 A 
ATOM     17  H   UNL     1       3.429   2.624  16.429  0.00  0.00    +0.000 HD
ENDBRANCH   1  16
BRANCH   4  18
ATOM     18  C   UNL     1       0.568   9.566  20.586  0.00  0.00    +0.000 C 
BRANCH  18  19
ATOM     19  C   UNL     1       0.103  10.669  19.656  0.00  0.00    +0.000 A 
ATOM     20  C   UNL     1       0.841  11.861  19.583  0.00  0.00    +0.000 A 
ATOM     21  C   UNL     1       0.324  12.975  18.926  0.00  0.00    +0.000 A 
ATOM     22  C   UNL     1      -0.912  12.895  18.289  0.00  0.00    +0.000 A 
ATOM     23  C   UNL     1      -1.581  11.671  18.196  0.00  0.00    +0.000 A 
ATOM     24  C   UNL     1      -1.099  10.576  18.938  0.00  0.00    +0.000 A 
BRANCH  23  25
ATOM     25  C   UNL     1      -2.806  11.480  17.363  0.00  0.00    +0.000 C 
ATOM     26  O   UNL     1      -2.634  11.119  16.197  0.00  0.00    +0.000 OA
ATOM     27  N   UNL     1      -4.082  11.761  17.874  0.00  0.00    +0.000 N 
ATOM     28  C   UNL     1      -4.419  12.118  19.246  0.00  0.00    +0.000 C 
ATOM     29  C   UNL     1      -5.226  11.597  16.990  0.00  0.00    +0.000 C 
ENDBRANCH  23  25
ENDBRANCH  18  19
ENDBRANCH   4  18
TORSDOF 4
ENDMDL
MODEL 2
REMARK VINA RESULT:      -8.6      0.809      1.046
REMARK  Name = 
REMARK  7 active torsions:
REMARK  status: ('A' for Active; 'I' for Inactive)
REMARK    1  A    between atoms: C_1  and  C_2
REMARK    2  A    between atoms: C_10  and  C_11
REMARK    3  A    between atoms: N_14  and  C_15
REMARK    4  A    between atoms: C_15  and  C_16
REMARK    5  A    between atoms: C_20  and  C_21
REMARK    6  A    between atoms: N_23  and  C_24
REMARK    7  A    between atoms: N_23  and  C_25
REMARK                            x       y       z     vdW  Elec       q    Type
REMARK                         _______ _______ _______ _____ _____    ______ ____
ROOT
ATOM      1  C   UNL     1       2.912   6.438  18.688  0.00  0.00    +0.000 C 
ATOM      2  C   UNL     1       2.527   6.277  19.964  0.00  0.00    +0.000 C 
ATOM      3  C   UNL     1       1.828   7.339  20.761  0.00  0.00    +0.000 C 
ATOM      4  N   UNL     1       1.751   8.664  20.121  0.00  0.00    +0.000 NA
ATOM      5  C   UNL     1       1.564   8.546  18.659  0.00  0.00    +0.000 C 
ATOM      6  C   UNL     1       2.675   7.735  17.974  0.00  0.00    +0.000 C 
ENDROOT
BRANCH   1  16
ATOM      7  C   UNL     1       1.453   3.724  17.893  0.00  0.00    +0.000 C 
ATOM      8  C   UNL     1       2.809   4.226  17.547  0.00  0.00    +0.000 A 
ATOM      9  N   UNL     1       3.662   3.509  16.745  0.00  0.00    +0.000 N 
ATOM     10  C   UNL     1       4.853   4.183  16.574  0.00  0.00    +0.000 A 
ATOM     11  C   UNL     1       5.991   3.838  15.833  0.00  0.00    +0.000 A 
ATOM     12  C   UNL     1       7.073   4.723  15.854  0.00  0.00    +0.000 A 
ATOM     13  C   UNL     1       7.016   5.908  16.584  0.00  0.00    +0.000 A 
ATOM     14  C   UNL     1       5.869   6.244  17.312  0.00  0.00    +0.000 A 
ATOM     15  C   UNL     1       4.762   5.368  17.306  0.00  0.00    +0.000 A 
ATOM     16  C   UNL     1       3.463   5.390  17.898  0.00  0.00    +0.000 A 
ATOM     17  H   UNL     1       3.460   2.620  16.323  0.00  0.00    +0.000 HD
ENDBRANCH   1  16
BRANCH   4  18
ATOM     18  C   UNL     1       0.632   9.449  20.672  0.00  0.00    +0.000 C 
BRANCH  18  19
ATOM     19  C   UNL     1       0.115  10.581  19.807  0.00  0.00    +0.000 A 
ATOM     20  C   UNL     1       0.999  11.593  19.400  0.00  0.00    +0.000 A 
ATOM     21  C   UNL     1       0.518  12.758  18.807  0.00  0.00    +0.000 A 
ATOM     22  C   UNL     1      -0.847  12.903  18.566  0.00  0.00    +0.000 A 
ATOM     23  C   UNL     1      -1.722  11.839  18.798  0.00  0.00    +0.000 A 
ATOM     24  C   UNL     1      -1.244  10.704  19.480  0.00  0.00    +0.000 A 
BRANCH  23  25
ATOM     25  C   UNL     1      -3.156  11.865  18.380  0.00  0.00    +0.000 C 
ATOM     26  O   UNL     1      -3.970  12.265  19.214  0.00  0.00    +0.000 OA
ATOM     27  N   UNL     1      -3.552  11.396  17.118  0.00  0.00    +0.000 N 
ATOM     28  C   UNL     1      -2.684  10.975  16.026  0.00  0.00    +0.000 C 
ATOM     29  C   UNL     1      -4.971  11.407  16.798  0.00  0.00    +0.000 C 
ENDBRANCH  23  25
ENDBRANCH  18  19
ENDBRANCH   4  18
TORSDOF 4
ENDMDL
MODEL 3
REMARK VINA RESULT:      -8.6      2.716      3.312
REMARK  Name = 
REMARK  7 active torsions:
REMARK  status: ('A' for Active; 'I' for Inactive)
REMARK    1  A    between atoms: C_1  and  C_2
REMARK    2  A    between atoms: C_10  and  C_11
REMARK    3  A    between atoms: N_14  and  C_15
REMARK    4  A    between atoms: C_15  and  C_16
REMARK    5  A    between atoms: C_20  and  C_21
REMARK    6  A    between atoms: N_23  and  C_24
REMARK    7  A    between atoms: N_23  and  C_25
REMARK                            x       y       z     vdW  Elec       q    Type
REMARK                         _______ _______ _______ _____ _____    ______ ____
ROOT
ATOM      1  C   UNL     1       2.485   6.991  18.456  0.00  0.00    +0.000 C 
ATOM      2  C   UNL     1       2.322   8.150  17.800  0.00  0.00    +0.000 C 
ATOM      3  C   UNL     1       1.669   9.361  18.401  0.00  0.00    +0.000 C 
ATOM      4  N   UNL     1       1.032   9.150  19.713  0.00  0.00    +0.000 NA
ATOM      5  C   UNL     1       1.803   8.197  20.540  0.00  0.00    +0.000 C 
ATOM      6  C   UNL     1       1.991   6.830  19.863  0.00  0.00    +0.000 C 
ENDROOT
BRANCH   1  16
ATOM      7  C   UNL     1       1.342   4.066  17.944  0.00  0.00    +0.000 C 
ATOM      8  C   UNL     1       2.695   4.629  17.694  0.00  0.00    +0.000 A 
ATOM      9  N   UNL     1       3.698   3.877  17.136  0.00  0.00    +0.000 N 
ATOM     10  C   UNL     1       4.853   4.621  17.007  0.00  0.00    +0.000 A 
ATOM     11  C   UNL     1       6.103   4.268  16.483  0.00  0.00    +0.000 A 
ATOM     12  C   UNL     1       7.109   5.241  16.493  0.00  0.00    +0.000 A 
ATOM     13  C   UNL     1       6.870   6.514  17.003  0.00  0.00    +0.000 A 
ATOM     14  C   UNL     1       5.612   6.854  17.515  0.00  0.00    +0.000 A 
ATOM     15  C   UNL     1       4.579   5.891  17.514  0.00  0.00    +0.000 A 
ATOM     16  C   UNL     1       3.212   5.888  17.927  0.00  0.00    +0.000 A 
ATOM     17  H   UNL     1       3.619   2.918  16.845  0.00  0.00    +0.000 HD
ENDBRANCH   1  16
BRANCH   4  18
ATOM     18  C   UNL     1       0.919  10.421  20.452  0.00  0.00    +0.000 C 
BRANCH  18  19
ATOM     19  C   UNL     1      -0.463  11.041  20.514  0.00  0.00    +0.000 A 
ATOM     20  C   UNL     1      -1.208  11.177  19.332  0.00  0.00    +0.000 A 
ATOM     21  C   UNL     1      -2.370  11.945  19.312  0.00  0.00    +0.000 A 
ATOM     22  C   UNL     1      -2.829  12.543  20.483  0.00  0.00    +0.000 A 
ATOM     23  C   UNL     1      -2.205  12.275  21.704  0.00  0.00    +0.000 A 
ATOM     24  C   UNL     1      -0.983  11.576  21.703  0.00  0.00    +0.000 A 
BRANCH  23  25
ATOM     25  C   UNL     1      -2.764  12.725  23.015  0.00  0.00    +0.000 C 
ATOM     26  O   UNL     1      -3.474  11.920  23.621  0.00  0.00    +0.000 OA
ATOM     27  N   UNL     1      -2.537  14.024  23.493  0.00  0.00    +0.000 N 
ATOM     28  C   UNL     1      -1.660  15.033  22.911  0.00  0.00    +0.000 C 
ATOM     29  C   UNL     1      -3.152  14.408  24.754  0.00  0.00    +0.000 C 
ENDBRANCH  23  25
ENDBRANCH  18  19
ENDBRANCH   4  18
TORSDOF 4
ENDMDL
MODEL 4
REMARK VINA RESULT:      -8.6      0.969      1.491
REMARK  Name = 
REMARK  7 active torsions:
REMARK  status: ('A' for Active; 'I' for Inactive)
REMARK    1  A    between atoms: C_1  and  C_2
REMARK    2  A    between atoms: C_10  and  C_11
REMARK    3  A    between atoms: N_14  and  C_15
REMARK    4  A    between atoms: C_15  and  C_16
REMARK    5  A    between atoms: C_20  and  C_21
REMARK    6  A    between atoms: N_23  and  C_24
REMARK    7  A    between atoms: N_23  and  C_25
REMARK                            x       y       z     vdW  Elec       q    Type
REMARK                         _______ _______ _______ _____ _____    ______ ____
ROOT
ATOM      1  C   UNL     1       2.549   6.601  18.526  0.00  0.00    +0.000 C 
ATOM      2  C   UNL     1       2.335   7.793  17.948  0.00  0.00    +0.000 C 
ATOM      3  C   UNL     1       1.676   8.948  18.643  0.00  0.00    +0.000 C 
ATOM      4  N   UNL     1       1.091   8.643  19.960  0.00  0.00    +0.000 NA
ATOM      5  C   UNL     1       1.912   7.662  20.701  0.00  0.00    +0.000 C 
ATOM      6  C   UNL     1       2.108   6.344  19.937  0.00  0.00    +0.000 C 
ENDROOT
BRANCH   1  16
ATOM      7  C   UNL     1       1.462   3.677  17.895  0.00  0.00    +0.000 C 
ATOM      8  C   UNL     1       2.789   4.291  17.624  0.00  0.00    +0.000 A 
ATOM      9  N   UNL     1       3.788   3.600  16.984  0.00  0.00    +0.000 N 
ATOM     10  C   UNL     1       4.916   4.383  16.853  0.00  0.00    +0.000 A 
ATOM     11  C   UNL     1       6.152   4.097  16.260  0.00  0.00    +0.000 A 
ATOM     12  C   UNL     1       7.131   5.096  16.284  0.00  0.00    +0.000 A 
ATOM     13  C   UNL     1       6.880   6.331  16.875  0.00  0.00    +0.000 A 
ATOM     14  C   UNL     1       5.636   6.606  17.455  0.00  0.00    +0.000 A 
ATOM     15  C   UNL     1       4.630   5.615  17.441  0.00  0.00    +0.000 A 
ATOM     16  C   UNL     1       3.282   5.550  17.907  0.00  0.00    +0.000 A 
ATOM     17  H   UNL     1       3.722   2.658  16.644  0.00  0.00    +0.000 HD
ENDBRANCH   1  16
BRANCH   4  18
ATOM     18  C   UNL     1       0.974   9.864  20.778  0.00  0.00    +0.000 C 
BRANCH  18  19
ATOM     19  C   UNL     1       0.263  11.038  20.134  0.00  0.00    +0.000 A 
ATOM     20  C   UNL     1       0.950  12.252  19.973  0.00  0.00    +0.000 A 
ATOM     21  C   UNL     1       0.267  13.408  19.605  0.00  0.00    +0.000 A 
ATOM     22  C   UNL     1      -1.101  13.355  19.342  0.00  0.00    +0.000 A 
ATOM     23  C   UNL     1      -1.768  12.128  19.323  0.00  0.00    +0.000 A 
ATOM     24  C   UNL     1      -1.095  10.981  19.784  0.00  0.00    +0.000 A 
BRANCH  23  25
ATOM     25  C   UNL     1      -3.181  11.983  18.860  0.00  0.00    +0.000 C 
ATOM     26  O   UNL     1      -4.063  12.286  19.666  0.00  0.00    +0.000 OA
ATOM     27  N   UNL     1      -3.480  11.468  17.590  0.00  0.00    +0.000 N 
ATOM     28  C   UNL     1      -2.534  11.149  16.527  0.00  0.00    +0.000 C 
ATOM     29  C   UNL     1      -4.880  11.311  17.225  0.00  0.00    +0.000 C 
ENDBRANCH  23  25
ENDBRANCH  18  19
ENDBRANCH   4  18
TORSDOF 4
ENDMDL
MODEL 5
REMARK VINA RESULT:      -8.5      2.667      9.142
REMARK  Name = 
REMARK  7 active torsions:
REMARK  status: ('A' for Active; 'I' for Inactive)
REMARK    1  A    between atoms: C_1  and  C_2
REMARK    2  A    between atoms: C_10  and  C_11
REMARK    3  A    between atoms: N_14  and  C_15
REMARK    4  A    between atoms: C_15  and  C_16
REMARK    5  A    between atoms: C_20  and  C_21
REMARK    6  A    between atoms: N_23  and  C_24
REMARK    7  A    between atoms: N_23  and  C_25
REMARK                            x       y       z     vdW  Elec       q    Type
REMARK                         _______ _______ _______ _____ _____    ______ ____
ROOT
ATOM      1  C   UNL     1       0.762   9.821  18.868  0.00  0.00    +0.000 C 
ATOM      2  C   UNL     1       0.926   9.238  20.065  0.00  0.00    +0.000 C 
ATOM      3  C   UNL     1       1.741   7.996  20.280  0.00  0.00    +0.000 C 
ATOM      4  N   UNL     1       2.209   7.326  19.054  0.00  0.00    +0.000 NA
ATOM      5  C   UNL     1       2.556   8.306  18.003  0.00  0.00    +0.000 C 
ATOM      6  C   UNL     1       1.388   9.235  17.637  0.00  0.00    +0.000 C 
ENDROOT
BRANCH   1  16
ATOM      7  C   UNL     1      -2.284  10.202  18.029  0.00  0.00    +0.000 C 
ATOM      8  C   UNL     1      -1.238  11.211  18.340  0.00  0.00    +0.000 A 
ATOM      9  N   UNL     1      -1.503  12.557  18.320  0.00  0.00    +0.000 N 
ATOM     10  C   UNL     1      -0.374  13.282  18.641  0.00  0.00    +0.000 A 
ATOM     11  C   UNL     1      -0.189  14.666  18.754  0.00  0.00    +0.000 A 
ATOM     12  C   UNL     1       1.089  15.125  19.089  0.00  0.00    +0.000 A 
ATOM     13  C   UNL     1       2.137  14.234  19.304  0.00  0.00    +0.000 A 
ATOM     14  C   UNL     1       1.934  12.854  19.196  0.00  0.00    +0.000 A 
ATOM     15  C   UNL     1       0.653  12.364  18.862  0.00  0.00    +0.000 A 
ATOM     16  C   UNL     1       0.091  11.063  18.687  0.00  0.00    +0.000 A 
ATOM     17  H   UNL     1      -2.392  12.975  18.111  0.00  0.00    +0.000 HD
ENDBRANCH   1  16
BRANCH   4  18
ATOM     18  C   UNL     1       3.397   6.498  19.330  0.00  0.00    +0.000 C 
BRANCH  18  19
ATOM     19  C   UNL     1       3.830   5.556  18.224  0.00  0.00    +0.000 A 
ATOM     20  C   UNL     1       3.137   4.350  18.038  0.00  0.00    +0.000 A 
ATOM     21  C   UNL     1       3.644   3.363  17.196  0.00  0.00    +0.000 A 
ATOM     22  C   UNL     1       4.822   3.591  16.488  0.00  0.00    +0.000 A 
ATOM     23  C   UNL     1       5.433   4.848  16.520  0.00  0.00    +0.000 A 
ATOM     24  C   UNL     1       4.968   5.806  17.440  0.00  0.00    +0.000 A 
BRANCH  23  25
ATOM     25  C   UNL     1       6.581   5.212  15.635  0.00  0.00    +0.000 C 
ATOM     26  O   UNL     1       7.453   5.930  16.127  0.00  0.00    +0.000 OA
ATOM     27  N   UNL     1       6.622   4.802  14.294  0.00  0.00    +0.000 N 
ATOM     28  C   UNL     1       5.698   3.895  13.624  0.00  0.00    +0.000 C 
ATOM     29  C   UNL     1       7.748   5.234  13.480  0.00  0.00    +0.000 C 
ENDBRANCH  23  25
ENDBRANCH  18  19
ENDBRANCH   4  18
TORSDOF 4
ENDMDL
MODEL 6
REMARK VINA RESULT:      -8.5      2.624      4.075
REMARK  Name = 
REMARK  7 active torsions:
REMARK  status: ('A' for Active; 'I' for Inactive)
REMARK    1  A    between atoms: C_1  and  C_2
REMARK    2  A    between atoms: C_10  and  C_11
REMARK    3  A    between atoms: N_14  and  C_15
REMARK    4  A    between atoms: C_15  and  C_16
REMARK    5  A    between atoms: C_20  and  C_21
REMARK    6  A    between atoms: N_23  and  C_24
REMARK    7  A    between atoms: N_23  and  C_25
REMARK                            x       y       z     vdW  Elec       q    Type
REMARK                         _______ _______ _______ _____ _____    ______ ____
ROOT
ATOM      1  C   UNL     1       2.776   6.984  18.560  0.00  0.00    +0.000 C 
ATOM      2  C   UNL     1       2.313   6.959  19.819  0.00  0.00    +0.000 C 
ATOM      3  C   UNL     1       1.509   8.069  20.431  0.00  0.00    +0.000 C 
ATOM      4  N   UNL     1       1.410   9.298  19.625  0.00  0.00    +0.000 NA
ATOM      5  C   UNL     1       1.329   8.990  18.181  0.00  0.00    +0.000 C 
ATOM      6  C   UNL     1       2.524   8.168  17.674  0.00  0.00    +0.000 C 
ENDROOT
BRANCH   1  16
ATOM      7  C   UNL     1       1.464   4.165  17.881  0.00  0.00    +0.000 C 
ATOM      8  C   UNL     1       2.842   4.670  17.640  0.00  0.00    +0.000 A 
ATOM      9  N   UNL     1       3.793   3.904  17.013  0.00  0.00    +0.000 N 
ATOM     10  C   UNL     1       4.984   4.592  16.910  0.00  0.00    +0.000 A 
ATOM     11  C   UNL     1       6.204   4.208  16.339  0.00  0.00    +0.000 A 
ATOM     12  C   UNL     1       7.261   5.123  16.391  0.00  0.00    +0.000 A 
ATOM     13  C   UNL     1       7.102   6.370  16.989  0.00  0.00    +0.000 A 
ATOM     14  C   UNL     1       5.874   6.742  17.547  0.00  0.00    +0.000 A 
ATOM     15  C   UNL     1       4.789   5.838  17.505  0.00  0.00    +0.000 A 
ATOM     16  C   UNL     1       3.431   5.881  17.944  0.00  0.00    +0.000 A 
ATOM     17  H   UNL     1       3.656   2.972  16.663  0.00  0.00    +0.000 HD
ENDBRANCH   1  16
BRANCH   4  18
ATOM     18  C   UNL     1       0.218  10.079  20.002  0.00  0.00    +0.000 C 
BRANCH  18  19
ATOM     19  C   UNL     1       0.350  11.587  19.922  0.00  0.00    +0.000 A 
ATOM     20  C   UNL     1      -0.602  12.322  19.200  0.00  0.00    +0.000 A 
ATOM     21  C   UNL     1      -0.388  13.668  18.911  0.00  0.00    +0.000 A 
ATOM     22  C   UNL     1       0.755  14.308  19.386  0.00  0.00    +0.000 A 
ATOM     23  C   UNL     1       1.626  13.645  20.255  0.00  0.00    +0.000 A 
ATOM     24  C   UNL     1       1.453  12.264  20.467  0.00  0.00    +0.000 A 
BRANCH  23  25
ATOM     25  C   UNL     1       2.756  14.334  20.949  0.00  0.00    +0.000 C 
ATOM     26  O   UNL     1       2.635  14.511  22.163  0.00  0.00    +0.000 OA
ATOM     27  N   UNL     1       3.866  14.807  20.235  0.00  0.00    +0.000 N 
ATOM     28  C   UNL     1       4.158  14.594  18.823  0.00  0.00    +0.000 C 
ATOM     29  C   UNL     1       4.906  15.511  20.971  0.00  0.00    +0.000 C 
ENDBRANCH  23  25
ENDBRANCH  18  19
ENDBRANCH   4  18
TORSDOF 4
ENDMDL
MODEL 7
REMARK VINA RESULT:      -8.5      2.862      4.130
REMARK  Name = 
REMARK  7 active torsions:
REMARK  status: ('A' for Active; 'I' for Inactive)
REMARK    1  A    between atoms: C_1  and  C_2
REMARK    2  A    between atoms: C_10  and  C_11
REMARK    3  A    between atoms: N_14  and  C_15
REMARK    4  A    between atoms: C_15  and  C_16
REMARK    5  A    between atoms: C_20  and  C_21
REMARK    6  A    between atoms: N_23  and  C_24
REMARK    7  A    between atoms: N_23  and  C_25
REMARK                            x       y       z     vdW  Elec       q    Type
REMARK                         _______ _______ _______ _____ _____    ______ ____
ROOT
ATOM      1  C   UNL     1       2.349   7.091  18.591  0.00  0.00    +0.000 C 
ATOM      2  C   UNL     1       2.170   8.177  17.823  0.00  0.00    +0.000 C 
ATOM      3  C   UNL     1       1.523   9.441  18.310  0.00  0.00    +0.000 C 
ATOM      4  N   UNL     1       0.910   9.364  19.647  0.00  0.00    +0.000 NA
ATOM      5  C   UNL     1       1.699   8.501  20.553  0.00  0.00    +0.000 C 
ATOM      6  C   UNL     1       1.880   7.073  20.016  0.00  0.00    +0.000 C 
ENDROOT
BRANCH   1  16
ATOM      7  C   UNL     1       5.293   7.066  17.384  0.00  0.00    +0.000 C 
ATOM      8  C   UNL     1       4.355   5.945  17.659  0.00  0.00    +0.000 A 
ATOM      9  N   UNL     1       4.699   4.638  17.418  0.00  0.00    +0.000 N 
ATOM     10  C   UNL     1       3.664   3.791  17.753  0.00  0.00    +0.000 A 
ATOM     11  C   UNL     1       3.580   2.394  17.687  0.00  0.00    +0.000 A 
ATOM     12  C   UNL     1       2.381   1.796  18.088  0.00  0.00    +0.000 A 
ATOM     13  C   UNL     1       1.312   2.565  18.539  0.00  0.00    +0.000 A 
ATOM     14  C   UNL     1       1.414   3.959  18.608  0.00  0.00    +0.000 A 
ATOM     15  C   UNL     1       2.615   4.588  18.212  0.00  0.00    +0.000 A 
ATOM     16  C   UNL     1       3.070   5.940  18.164  0.00  0.00    +0.000 A 
ATOM     17  H   UNL     1       5.582   4.323  17.058  0.00  0.00    +0.000 HD
ENDBRANCH   1  16
BRANCH   4  18
ATOM     18  C   UNL     1       0.806  10.704  20.255  0.00  0.00    +0.000 C 
BRANCH  18  19
ATOM     19  C   UNL     1      -0.595  11.262  20.414  0.00  0.00    +0.000 A 
ATOM     20  C   UNL     1      -1.415  11.390  19.282  0.00  0.00    +0.000 A 
ATOM     21  C   UNL     1      -2.608  12.106  19.349  0.00  0.00    +0.000 A 
ATOM     22  C   UNL     1      -3.020  12.659  20.560  0.00  0.00    +0.000 A 
ATOM     23  C   UNL     1      -2.311  12.393  21.735  0.00  0.00    +0.000 A 
ATOM     24  C   UNL     1      -1.064  11.748  21.644  0.00  0.00    +0.000 A 
BRANCH  23  25
ATOM     25  C   UNL     1      -2.808  12.792  23.086  0.00  0.00    +0.000 C 
ATOM     26  O   UNL     1      -3.442  11.943  23.717  0.00  0.00    +0.000 OA
ATOM     27  N   UNL     1      -2.612  14.090  23.579  0.00  0.00    +0.000 N 
ATOM     28  C   UNL     1      -1.821  15.151  22.967  0.00  0.00    +0.000 C 
ATOM     29  C   UNL     1      -3.165  14.421  24.883  0.00  0.00    +0.000 C 
ENDBRANCH  23  25
ENDBRANCH  18  19
ENDBRANCH   4  18
TORSDOF 4
ENDMDL
MODEL 8
REMARK VINA RESULT:      -8.4      2.075      3.209
REMARK  Name = 
REMARK  7 active torsions:
REMARK  status: ('A' for Active; 'I' for Inactive)
REMARK    1  A    between atoms: C_1  and  C_2
REMARK    2  A    between atoms: C_10  and  C_11
REMARK    3  A    between atoms: N_14  and  C_15
REMARK    4  A    between atoms: C_15  and  C_16
REMARK    5  A    between atoms: C_20  and  C_21
REMARK    6  A    between atoms: N_23  and  C_24
REMARK    7  A    between atoms: N_23  and  C_25
REMARK                            x       y       z     vdW  Elec       q    Type
REMARK                         _______ _______ _______ _____ _____    ______ ____
ROOT
ATOM      1  C   UNL     1       2.765   6.712  18.700  0.00  0.00    +0.000 C 
ATOM      2  C   UNL     1       2.357   6.593  19.973  0.00  0.00    +0.000 C 
ATOM      3  C   UNL     1       1.603   7.663  20.708  0.00  0.00    +0.000 C 
ATOM      4  N   UNL     1       1.494   8.954  20.008  0.00  0.00    +0.000 NA
ATOM      5  C   UNL     1       1.344   8.766  18.549  0.00  0.00    +0.000 C 
ATOM      6  C   UNL     1       2.498   7.968  17.924  0.00  0.00    +0.000 C 
ENDROOT
BRANCH   1  16
ATOM      7  C   UNL     1       1.396   3.945  17.930  0.00  0.00    +0.000 C 
ATOM      8  C   UNL     1       2.756   4.464  17.627  0.00  0.00    +0.000 A 
ATOM      9  N   UNL     1       3.658   3.741  16.887  0.00  0.00    +0.000 N 
ATOM     10  C   UNL     1       4.842   4.434  16.746  0.00  0.00    +0.000 A 
ATOM     11  C   UNL     1       6.017   4.090  16.067  0.00  0.00    +0.000 A 
ATOM     12  C   UNL     1       7.080   4.998  16.105  0.00  0.00    +0.000 A 
ATOM     13  C   UNL     1       6.968   6.204  16.793  0.00  0.00    +0.000 A 
ATOM     14  C   UNL     1       5.784   6.538  17.460  0.00  0.00    +0.000 A 
ATOM     15  C   UNL     1       4.695   5.639  17.434  0.00  0.00    +0.000 A 
ATOM     16  C   UNL     1       3.371   5.652  17.969  0.00  0.00    +0.000 A 
ATOM     17  H   UNL     1       3.493   2.835  16.486  0.00  0.00    +0.000 HD
ENDBRANCH   1  16
BRANCH   4  18
ATOM     18  C   UNL     1       0.335   9.722  20.500  0.00  0.00    +0.000 C 
BRANCH  18  19
ATOM     19  C   UNL     1       0.061  11.042  19.808  0.00  0.00    +0.000 A 
ATOM     20  C   UNL     1      -1.193  11.259  19.216  0.00  0.00    +0.000 A 
ATOM     21  C   UNL     1      -1.402  12.353  18.379  0.00  0.00    +0.000 A 
ATOM     22  C   UNL     1      -0.375  13.270  18.165  0.00  0.00    +0.000 A 
ATOM     23  C   UNL     1       0.820  13.172  18.881  0.00  0.00    +0.000 A 
ATOM     24  C   UNL     1       1.057  12.019  19.652  0.00  0.00    +0.000 A 
BRANCH  23  25
ATOM     25  C   UNL     1       1.876  14.229  18.842  0.00  0.00    +0.000 C 
ATOM     26  O   UNL     1       2.773  14.086  18.008  0.00  0.00    +0.000 OA
ATOM     27  N   UNL     1       1.873  15.293  19.755  0.00  0.00    +0.000 N 
ATOM     28  C   UNL     1       0.836  15.610  20.729  0.00  0.00    +0.000 C 
ATOM     29  C   UNL     1       2.959  16.258  19.688  0.00  0.00    +0.000 C 
ENDBRANCH  23  25
ENDBRANCH  18  19
ENDBRANCH   4  18
TORSDOF 4
ENDMDL
MODEL 9
REMARK VINA RESULT:      -8.4      2.450      3.898
REMARK  Name = 
REMARK  7 active torsions:
REMARK  status: ('A' for Active; 'I' for Inactive)
REMARK    1  A    between atoms: C_1  and  C_2
REMARK    2  A    between atoms: C_10  and  C_11
REMARK    3  A    between atoms: N_14  and  C_15
REMARK    4  A    between atoms: C_15  and  C_16
REMARK    5  A    between atoms: C_20  and  C_21
REMARK    6  A    between atoms: N_23  and  C_24
REMARK    7  A    between atoms: N_23  and  C_25
REMARK                            x       y       z     vdW  Elec       q    Type
REMARK                         _______ _______ _______ _____ _____    ______ ____
ROOT
ATOM      1  C   UNL     1       2.770   6.999  18.480  0.00  0.00    +0.000 C 
ATOM      2  C   UNL     1       2.304   7.020  19.739  0.00  0.00    +0.000 C 
ATOM      3  C   UNL     1       1.513   8.158  20.314  0.00  0.00    +0.000 C 
ATOM      4  N   UNL     1       1.432   9.362  19.469  0.00  0.00    +0.000 NA
ATOM      5  C   UNL     1       1.350   9.011  18.035  0.00  0.00    +0.000 C 
ATOM      6  C   UNL     1       2.535   8.158  17.557  0.00  0.00    +0.000 C 
ENDROOT
BRANCH   1  16
ATOM      7  C   UNL     1       1.428   4.173  17.900  0.00  0.00    +0.000 C 
ATOM      8  C   UNL     1       2.810   4.654  17.639  0.00  0.00    +0.000 A 
ATOM      9  N   UNL     1       3.752   3.858  17.037  0.00  0.00    +0.000 N 
ATOM     10  C   UNL     1       4.950   4.529  16.909  0.00  0.00    +0.000 A 
ATOM     11  C   UNL     1       6.164   4.114  16.348  0.00  0.00    +0.000 A 
ATOM     12  C   UNL     1       7.231   5.018  16.367  0.00  0.00    +0.000 A 
ATOM     13  C   UNL     1       7.086   6.287  16.923  0.00  0.00    +0.000 A 
ATOM     14  C   UNL     1       5.863   6.690  17.471  0.00  0.00    +0.000 A 
ATOM     15  C   UNL     1       4.769   5.797  17.461  0.00  0.00    +0.000 A 
ATOM     16  C   UNL     1       3.413   5.869  17.902  0.00  0.00    +0.000 A 
ATOM     17  H   UNL     1       3.605   2.916  16.719  0.00  0.00    +0.000 HD
ENDBRANCH   1  16
BRANCH   4  18
ATOM     18  C   UNL     1       0.249  10.170  19.818  0.00  0.00    +0.000 C 
BRANCH  18  19
ATOM     19  C   UNL     1       0.409  11.674  19.718  0.00  0.00    +0.000 A 
ATOM     20  C   UNL     1      -0.735  12.487  19.705  0.00  0.00    +0.000 A 
ATOM     21  C   UNL     1      -0.640  13.839  19.382  0.00  0.00    +0.000 A 
ATOM     22  C   UNL     1       0.605  14.405  19.119  0.00  0.00    +0.000 A 
ATOM     23  C   UNL     1       1.772  13.659  19.300  0.00  0.00    +0.000 A 
ATOM     24  C   UNL     1       1.664  12.276  19.536  0.00  0.00    +0.000 A 
BRANCH  23  25
ATOM     25  C   UNL     1       3.137  14.262  19.225  0.00  0.00    +0.000 C 
ATOM     26  O   UNL     1       3.671  14.289  18.115  0.00  0.00    +0.000 OA
ATOM     27  N   UNL     1       3.796  14.715  20.378  0.00  0.00    +0.000 N 
ATOM     28  C   UNL     1       3.245  14.805  21.725  0.00  0.00    +0.000 C 
ATOM     29  C   UNL     1       5.142  15.246  20.235  0.00  0.00    +0.000 C 
ENDBRANCH  23  25
ENDBRANCH  18  19
ENDBRANCH   4  18
TORSDOF 4
ENDMDL
