MODEL 1
REMARK VINA RESULT:      -9.1      0.000      0.000
REMARK  Name = 
REMARK  3 active torsions:
REMARK  status: ('A' for Active; 'I' for Inactive)
REMARK    1  A    between atoms: C_2  and  C_15
REMARK    2  A    between atoms: N_3  and  C_4
REMARK    3  A    between atoms: C_17  and  C_18
REMARK                            x       y       z     vdW  Elec       q    Type
REMARK                         _______ _______ _______ _____ _____    ______ ____
ROOT
ATOM      1  O   UNL     1       2.582   8.573  17.077  0.00  0.00    +0.000 OA
ATOM      2  C   UNL     1       2.215   8.180  18.179  0.00  0.00    +0.000 C 
ATOM      3  N   UNL     1       1.343   8.952  18.930  0.00  0.00    +0.000 N 
ATOM      4  H   UNL     1       0.912   8.599  19.771  0.00  0.00    +0.000 HD
ENDROOT
BRANCH   3   5
ATOM      5  C   UNL     1       0.959  10.306  18.509  0.00  0.00    +0.000 C 
ATOM      6  C   UNL     1       1.526  11.361  19.478  0.00  0.00    +0.000 C 
ATOM      7  C   UNL     1       0.698  11.462  20.759  0.00  0.00    +0.000 C 
ATOM      8  C   UNL     1      -0.742  11.863  20.446  0.00  0.00    +0.000 C 
ATOM      9  C   UNL     1      -1.300  11.145  19.246  0.00  0.00    +0.000 A 
ATOM     10  N   UNL     1      -2.652  11.311  19.019  0.00  0.00    +0.000 N 
ATOM     11  C   UNL     1      -3.327  10.808  17.933  0.00  0.00    +0.000 A 
ATOM     12  O   UNL     1      -4.526  10.995  17.755  0.00  0.00    +0.000 OA
ATOM     13  C   UNL     1      -2.509  10.031  16.978  0.00  0.00    +0.000 A 
ATOM     14  C   UNL     1      -1.201   9.848  17.218  0.00  0.00    +0.000 A 
ATOM     15  C   UNL     1      -0.550  10.412  18.385  0.00  0.00    +0.000 A 
ATOM     16  H   UNL     1      -3.212  11.867  19.652  0.00  0.00    +0.000 HD
ENDBRANCH   3   5
BRANCH   2  17
ATOM     17  C   UNL     1       2.720   6.852  18.747  0.00  0.00    +0.000 A 
ATOM     18  C   UNL     1       1.918   6.112  19.635  0.00  0.00    +0.000 A 
ATOM     19  C   UNL     1       2.344   4.871  20.109  0.00  0.00    +0.000 A 
ATOM     20  N   UNL     1       3.580   4.418  19.826  0.00  0.00    +0.000 NA
ATOM     21  C   UNL     1       4.421   5.168  19.110  0.00  0.00    +0.000 A 
ATOM     22  C   UNL     1       5.738   4.734  19.059  0.00  0.00    +0.000 A 
ATOM     23  C   UNL     1       6.737   5.484  18.443  0.00  0.00    +0.000 A 
ATOM     24  C   UNL     1       6.381   6.627  17.751  0.00  0.00    +0.000 A 
ATOM     25 CL   UNL     1       7.597   7.595  17.015  0.00  0.00    +0.000 Cl
ATOM     26  C   UNL     1       5.049   7.036  17.713  0.00  0.00    +0.000 A 
ATOM     27  C   UNL     1       4.047   6.379  18.482  0.00  0.00    +0.000 A 
BRANCH  19  28
ATOM     28  C   UNL     1       1.423   3.967  20.899  0.00  0.00    +0.000 C 
ATOM     29  C   UNL     1       1.952   2.766  21.643  0.00  0.00    +0.000 C 
ATOM     30  C   UNL     1       1.111   2.564  20.419  0.00  0.00    +0.000 C 
ENDBRANCH  19  28
ENDBRANCH   2  17
TORSDOF 3
ENDMDL
MODEL 2
REMARK VINA RESULT:      -8.1      2.661      7.727
REMARK  Name = 
REMARK  3 active torsions:
REMARK  status: ('A' for Active; 'I' for Inactive)
REMARK    1  A    between atoms: C_2  and  C_15
REMARK    2  A    between atoms: N_3  and  C_4
REMARK    3  A    between atoms: C_17  and  C_18
REMARK                            x       y       z     vdW  Elec       q    Type
REMARK                         _______ _______ _______ _____ _____    ______ ____
ROOT
ATOM      1  O   UNL     1       1.389   8.887  20.679  0.00  0.00    +0.000 OA
ATOM      2  C   UNL     1       1.217   8.992  19.469  0.00  0.00    +0.000 C 
ATOM      3  N   UNL     1       1.905   8.160  18.600  0.00  0.00    +0.000 N 
ATOM      4  H   UNL     1       1.685   8.122  17.616  0.00  0.00    +0.000 HD
ENDROOT
BRANCH   3   5
ATOM      5  C   UNL     1       2.955   7.250  19.078  0.00  0.00    +0.000 C 
ATOM      6  C   UNL     1       4.215   7.359  18.199  0.00  0.00    +0.000 C 
ATOM      7  C   UNL     1       4.064   6.588  16.888  0.00  0.00    +0.000 C 
ATOM      8  C   UNL     1       3.825   5.104  17.154  0.00  0.00    +0.000 C 
ATOM      9  C   UNL     1       2.859   4.861  18.283  0.00  0.00    +0.000 A 
ATOM     10  N   UNL     1       2.447   3.554  18.454  0.00  0.00    +0.000 N 
ATOM     11  C   UNL     1       1.638   3.119  19.476  0.00  0.00    +0.000 A 
ATOM     12  O   UNL     1       1.311   1.945  19.606  0.00  0.00    +0.000 OA
ATOM     13  C   UNL     1       1.192   4.162  20.423  0.00  0.00    +0.000 A 
ATOM     14  C   UNL     1       1.571   5.437  20.236  0.00  0.00    +0.000 A 
ATOM     15  C   UNL     1       2.433   5.826  19.136  0.00  0.00    +0.000 A 
ATOM     16  H   UNL     1       2.773   2.830  17.827  0.00  0.00    +0.000 HD
ENDBRANCH   3   5
BRANCH   2  17
ATOM     17  C   UNL     1       0.262  10.044  18.900  0.00  0.00    +0.000 A 
ATOM     18  C   UNL     1      -0.772   9.662  18.025  0.00  0.00    +0.000 A 
ATOM     19  C   UNL     1      -1.685  10.604  17.552  0.00  0.00    +0.000 A 
ATOM     20  N   UNL     1      -1.519  11.913  17.822  0.00  0.00    +0.000 NA
ATOM     21  C   UNL     1      -0.461  12.323  18.525  0.00  0.00    +0.000 A 
ATOM     22  C   UNL     1      -0.244  13.694  18.562  0.00  0.00    +0.000 A 
ATOM     23  C   UNL     1       0.885  14.244  19.163  0.00  0.00    +0.000 A 
ATOM     24  C   UNL     1       1.746  13.411  19.854  0.00  0.00    +0.000 A 
ATOM     25 CL   UNL     1       3.170  14.055  20.572  0.00  0.00    +0.000 Cl
ATOM     26  C   UNL     1       1.500  12.040  19.906  0.00  0.00    +0.000 A 
ATOM     27  C   UNL     1       0.450  11.442  19.152  0.00  0.00    +0.000 A 
BRANCH  19  28
ATOM     28  C   UNL     1      -2.917  10.192  16.777  0.00  0.00    +0.000 C 
ATOM     29  C   UNL     1      -2.816   9.658  15.370  0.00  0.00    +0.000 C 
ATOM     30  C   UNL     1      -3.408  11.014  15.604  0.00  0.00    +0.000 C 
ENDBRANCH  19  28
ENDBRANCH   2  17
TORSDOF 3
ENDMDL
MODEL 3
REMARK VINA RESULT:      -7.9      2.860      4.533
REMARK  Name = 
REMARK  3 active torsions:
REMARK  status: ('A' for Active; 'I' for Inactive)
REMARK    1  A    between atoms: C_2  and  C_15
REMARK    2  A    between atoms: N_3  and  C_4
REMARK    3  A    between atoms: C_17  and  C_18
REMARK                            x       y       z     vdW  Elec       q    Type
REMARK                         _______ _______ _______ _____ _____    ______ ____
ROOT
ATOM      1  O   UNL     1       1.452   7.016  17.425  0.00  0.00    +0.000 OA
ATOM      2  C   UNL     1       2.308   7.327  18.247  0.00  0.00    +0.000 C 
ATOM      3  N   UNL     1       2.141   8.467  19.018  0.00  0.00    +0.000 N 
ATOM      4  H   UNL     1       2.749   8.676  19.795  0.00  0.00    +0.000 HD
ENDROOT
BRANCH   3   5
ATOM      5  C   UNL     1       1.036   9.404  18.773  0.00  0.00    +0.000 C 
ATOM      6  C   UNL     1       1.410  10.418  17.676  0.00  0.00    +0.000 C 
ATOM      7  C   UNL     1       2.311  11.530  18.211  0.00  0.00    +0.000 C 
ATOM      8  C   UNL     1       1.613  12.307  19.324  0.00  0.00    +0.000 C 
ATOM      9  C   UNL     1       0.874  11.414  20.284  0.00  0.00    +0.000 A 
ATOM     10  N   UNL     1       0.382  12.025  21.421  0.00  0.00    +0.000 N 
ATOM     11  C   UNL     1      -0.389  11.400  22.371  0.00  0.00    +0.000 A 
ATOM     12  O   UNL     1      -0.825  11.983  23.357  0.00  0.00    +0.000 OA
ATOM     13  C   UNL     1      -0.673   9.971  22.122  0.00  0.00    +0.000 A 
ATOM     14  C   UNL     1      -0.168   9.373  21.030  0.00  0.00    +0.000 A 
ATOM     15  C   UNL     1       0.637  10.096  20.063  0.00  0.00    +0.000 A 
ATOM     16  H   UNL     1       0.546  13.010  21.583  0.00  0.00    +0.000 HD
ENDBRANCH   3   5
BRANCH   2  17
ATOM     17  C   UNL     1       3.571   6.481  18.425  0.00  0.00    +0.000 A 
ATOM     18  C   UNL     1       4.772   6.862  17.799  0.00  0.00    +0.000 A 
ATOM     19  C   UNL     1       5.942   6.131  18.007  0.00  0.00    +0.000 A 
ATOM     20  N   UNL     1       5.915   4.980  18.705  0.00  0.00    +0.000 NA
ATOM     21  C   UNL     1       4.759   4.514  19.184  0.00  0.00    +0.000 A 
ATOM     22  C   UNL     1       4.782   3.220  19.687  0.00  0.00    +0.000 A 
ATOM     23  C   UNL     1       3.623   2.576  20.110  0.00  0.00    +0.000 A 
ATOM     24  C   UNL     1       2.440   3.289  20.151  0.00  0.00    +0.000 A 
ATOM     25 CL   UNL     1       0.984   2.508  20.630  0.00  0.00    +0.000 Cl
ATOM     26  C   UNL     1       2.410   4.619  19.733  0.00  0.00    +0.000 A 
ATOM     27  C   UNL     1       3.545   5.237  19.136  0.00  0.00    +0.000 A 
BRANCH  19  28
ATOM     28  C   UNL     1       7.283   6.629  17.513  0.00  0.00    +0.000 C 
ATOM     29  C   UNL     1       8.295   7.225  18.460  0.00  0.00    +0.000 C 
ATOM     30  C   UNL     1       7.596   8.110  17.474  0.00  0.00    +0.000 C 
ENDBRANCH  19  28
ENDBRANCH   2  17
TORSDOF 3
ENDMDL
MODEL 4
REMARK VINA RESULT:      -7.9      1.004      1.004
REMARK  Name = 
REMARK  3 active torsions:
REMARK  status: ('A' for Active; 'I' for Inactive)
REMARK    1  A    between atoms: C_2  and  C_15
REMARK    2  A    between atoms: N_3  and  C_4
REMARK    3  A    between atoms: C_17  and  C_18
REMARK                            x       y       z     vdW  Elec       q    Type
REMARK                         _______ _______ _______ _____ _____    ______ ____
ROOT
ATOM      1  O   UNL     1       3.121   8.747  17.330  0.00  0.00    +0.000 OA
ATOM      2  C   UNL     1       2.367   8.092  18.041  0.00  0.00    +0.000 C 
ATOM      3  N   UNL     1       1.163   8.638  18.456  0.00  0.00    +0.000 N 
ATOM      4  H   UNL     1       0.460   8.083  18.919  0.00  0.00    +0.000 HD
ENDROOT
BRANCH   3   5
ATOM      5  C   UNL     1       0.828  10.044  18.195  0.00  0.00    +0.000 C 
ATOM      6  C   UNL     1       1.496  10.968  19.231  0.00  0.00    +0.000 C 
ATOM      7  C   UNL     1       0.741  10.975  20.560  0.00  0.00    +0.000 C 
ATOM      8  C   UNL     1      -0.690  11.471  20.370  0.00  0.00    +0.000 C 
ATOM      9  C   UNL     1      -1.345  10.905  19.138  0.00  0.00    +0.000 A 
ATOM     10  N   UNL     1      -2.697  11.154  19.004  0.00  0.00    +0.000 N 
ATOM     11  C   UNL     1      -3.452  10.796  17.913  0.00  0.00    +0.000 A 
ATOM     12  O   UNL     1      -4.647  11.054  17.823  0.00  0.00    +0.000 OA
ATOM     13  C   UNL     1      -2.725  10.085  16.841  0.00  0.00    +0.000 A 
ATOM     14  C   UNL     1      -1.417   9.819  16.988  0.00  0.00    +0.000 A 
ATOM     15  C   UNL     1      -0.678  10.231  18.167  0.00  0.00    +0.000 A 
ATOM     16  H   UNL     1      -3.195  11.667  19.720  0.00  0.00    +0.000 HD
ENDBRANCH   3   5
BRANCH   2  17
ATOM     17  C   UNL     1       2.743   6.678  18.491  0.00  0.00    +0.000 A 
ATOM     18  C   UNL     1       2.235   6.161  19.697  0.00  0.00    +0.000 A 
ATOM     19  C   UNL     1       2.522   4.851  20.083  0.00  0.00    +0.000 A 
ATOM     20  N   UNL     1       3.390   4.103  19.375  0.00  0.00    +0.000 NA
ATOM     21  C   UNL     1       4.005   4.621  18.309  0.00  0.00    +0.000 A 
ATOM     22  C   UNL     1       5.045   3.870  17.778  0.00  0.00    +0.000 A 
ATOM     23  C   UNL     1       5.841   4.347  16.740  0.00  0.00    +0.000 A 
ATOM     24  C   UNL     1       5.503   5.544  16.136  0.00  0.00    +0.000 A 
ATOM     25 CL   UNL     1       6.490   6.179  14.879  0.00  0.00    +0.000 Cl
ATOM     26  C   UNL     1       4.408   6.274  16.595  0.00  0.00    +0.000 A 
ATOM     27  C   UNL     1       3.693   5.888  17.765  0.00  0.00    +0.000 A 
BRANCH  19  28
ATOM     28  C   UNL     1       1.832   4.205  21.264  0.00  0.00    +0.000 C 
ATOM     29  C   UNL     1       2.330   2.908  21.851  0.00  0.00    +0.000 C 
ATOM     30  C   UNL     1       1.036   2.928  21.096  0.00  0.00    +0.000 C 
ENDBRANCH  19  28
ENDBRANCH   2  17
TORSDOF 3
ENDMDL
MODEL 5
REMARK VINA RESULT:      -7.7      2.884      4.683
REMARK  Name = 
REMARK  3 active torsions:
REMARK  status: ('A' for Active; 'I' for Inactive)
REMARK    1  A    between atoms: C_2  and  C_15
REMARK    2  A    between atoms: N_3  and  C_4
REMARK    3  A    between atoms: C_17  and  C_18
REMARK                            x       y       z     vdW  Elec       q    Type
REMARK                         _______ _______ _______ _____ _____    ______ ____
ROOT
ATOM      1  O   UNL     1       1.448   7.626  21.106  0.00  0.00    +0.000 OA
ATOM      2  C   UNL     1       1.823   7.845  19.959  0.00  0.00    +0.000 C 
ATOM      3  N   UNL     1       1.455   9.022  19.327  0.00  0.00    +0.000 N 
ATOM      4  H   UNL     1       1.858   9.298  18.444  0.00  0.00    +0.000 HD
ENDROOT
BRANCH   3   5
ATOM      5  C   UNL     1       0.498   9.954  19.938  0.00  0.00    +0.000 C 
ATOM      6  C   UNL     1      -0.947   9.583  19.554  0.00  0.00    +0.000 C 
ATOM      7  C   UNL     1      -1.301  10.053  18.143  0.00  0.00    +0.000 C 
ATOM      8  C   UNL     1      -1.179  11.571  18.028  0.00  0.00    +0.000 C 
ATOM      9  C   UNL     1       0.049  12.111  18.714  0.00  0.00    +0.000 A 
ATOM     10  N   UNL     1       0.328  13.444  18.489  0.00  0.00    +0.000 N 
ATOM     11  C   UNL     1       1.351  14.138  19.089  0.00  0.00    +0.000 A 
ATOM     12  O   UNL     1       1.554  15.329  18.879  0.00  0.00    +0.000 OA
ATOM     13  C   UNL     1       2.191  13.357  20.021  0.00  0.00    +0.000 A 
ATOM     14  C   UNL     1       1.934  12.053  20.214  0.00  0.00    +0.000 A 
ATOM     15  C   UNL     1       0.832  11.383  19.549  0.00  0.00    +0.000 A 
ATOM     16  H   UNL     1      -0.261  13.993  17.876  0.00  0.00    +0.000 HD
ENDBRANCH   3   5
BRANCH   2  17
ATOM     17  C   UNL     1       2.683   6.827  19.206  0.00  0.00    +0.000 A 
ATOM     18  C   UNL     1       3.317   7.189  18.003  0.00  0.00    +0.000 A 
ATOM     19  C   UNL     1       4.152   6.287  17.343  0.00  0.00    +0.000 A 
ATOM     20  N   UNL     1       4.266   5.017  17.776  0.00  0.00    +0.000 NA
ATOM     21  C   UNL     1       3.557   4.602  18.828  0.00  0.00    +0.000 A 
ATOM     22  C   UNL     1       3.557   3.234  19.066  0.00  0.00    +0.000 A 
ATOM     23  C   UNL     1       2.769   2.660  20.059  0.00  0.00    +0.000 A 
ATOM     24  C   UNL     1       2.068   3.489  20.916  0.00  0.00    +0.000 A 
ATOM     25 CL   UNL     1       1.054   2.808  22.127  0.00  0.00    +0.000 Cl
ATOM     26  C   UNL     1       2.123   4.871  20.752  0.00  0.00    +0.000 A 
ATOM     27  C   UNL     1       2.782   5.464  19.638  0.00  0.00    +0.000 A 
BRANCH  19  28
ATOM     28  C   UNL     1       5.001   6.712  16.165  0.00  0.00    +0.000 C 
ATOM     29  C   UNL     1       5.547   5.701  15.187  0.00  0.00    +0.000 C 
ATOM     30  C   UNL     1       6.483   6.403  16.123  0.00  0.00    +0.000 C 
ENDBRANCH  19  28
ENDBRANCH   2  17
TORSDOF 3
ENDMDL
MODEL 6
REMARK VINA RESULT:      -7.6      3.123      8.458
REMARK  Name = 
REMARK  3 active torsions:
REMARK  status: ('A' for Active; 'I' for Inactive)
REMARK    1  A    between atoms: C_2  and  C_15
REMARK    2  A    between atoms: N_3  and  C_4
REMARK    3  A    between atoms: C_17  and  C_18
REMARK                            x       y       z     vdW  Elec       q    Type
REMARK                         _______ _______ _______ _____ _____    ______ ____
ROOT
ATOM      1  O   UNL     1       1.055   8.734  17.083  0.00  0.00    +0.000 OA
ATOM      2  C   UNL     1       1.897   9.165  17.863  0.00  0.00    +0.000 C 
ATOM      3  N   UNL     1       3.002   8.391  18.181  0.00  0.00    +0.000 N 
ATOM      4  H   UNL     1       3.780   8.764  18.703  0.00  0.00    +0.000 HD
ENDROOT
BRANCH   3   5
ATOM      5  C   UNL     1       3.120   6.998  17.726  0.00  0.00    +0.000 C 
ATOM      6  C   UNL     1       2.003   6.128  18.333  0.00  0.00    +0.000 C 
ATOM      7  C   UNL     1       2.305   5.742  19.781  0.00  0.00    +0.000 C 
ATOM      8  C   UNL     1       3.602   4.940  19.871  0.00  0.00    +0.000 C 
ATOM      9  C   UNL     1       4.695   5.499  19.000  0.00  0.00    +0.000 A 
ATOM     10  N   UNL     1       5.948   4.946  19.174  0.00  0.00    +0.000 N 
ATOM     11  C   UNL     1       7.052   5.261  18.418  0.00  0.00    +0.000 A 
ATOM     12  O   UNL     1       8.144   4.732  18.591  0.00  0.00    +0.000 OA
ATOM     13  C   UNL     1       6.835   6.278  17.368  0.00  0.00    +0.000 A 
ATOM     14  C   UNL     1       5.622   6.835  17.221  0.00  0.00    +0.000 A 
ATOM     15  C   UNL     1       4.497   6.451  18.053  0.00  0.00    +0.000 A 
ATOM     16  H   UNL     1       6.097   4.228  19.871  0.00  0.00    +0.000 HD
ENDBRANCH   3   5
BRANCH   2  17
ATOM     17  C   UNL     1       1.740  10.544  18.506  0.00  0.00    +0.000 A 
ATOM     18  C   UNL     1       2.454  11.646  18.002  0.00  0.00    +0.000 A 
ATOM     19  C   UNL     1       2.269  12.919  18.542  0.00  0.00    +0.000 A 
ATOM     20  N   UNL     1       1.502  13.094  19.634  0.00  0.00    +0.000 NA
ATOM     21  C   UNL     1       0.931  12.042  20.227  0.00  0.00    +0.000 A 
ATOM     22  C   UNL     1       0.351  12.278  21.466  0.00  0.00    +0.000 A 
ATOM     23  C   UNL     1      -0.175  11.247  22.239  0.00  0.00    +0.000 A 
ATOM     24  C   UNL     1      -0.240   9.975  21.701  0.00  0.00    +0.000 A 
ATOM     25 CL   UNL     1      -0.847   8.674  22.647  0.00  0.00    +0.000 Cl
ATOM     26  C   UNL     1       0.256   9.732  20.421  0.00  0.00    +0.000 A 
ATOM     27  C   UNL     1       0.954  10.735  19.690  0.00  0.00    +0.000 A 
BRANCH  19  28
ATOM     28  C   UNL     1       2.867  14.148  17.893  0.00  0.00    +0.000 C 
ATOM     29  C   UNL     1       4.315  14.520  18.103  0.00  0.00    +0.000 C 
ATOM     30  C   UNL     1       3.239  15.361  18.721  0.00  0.00    +0.000 C 
ENDBRANCH  19  28
ENDBRANCH   2  17
TORSDOF 3
ENDMDL
MODEL 7
REMARK VINA RESULT:      -7.3      4.709      9.260
REMARK  Name = 
REMARK  3 active torsions:
REMARK  status: ('A' for Active; 'I' for Inactive)
REMARK    1  A    between atoms: C_2  and  C_15
REMARK    2  A    between atoms: N_3  and  C_4
REMARK    3  A    between atoms: C_17  and  C_18
REMARK                            x       y       z     vdW  Elec       q    Type
REMARK                         _______ _______ _______ _____ _____    ______ ____
ROOT
ATOM      1  O   UNL     1      -0.723  12.718  18.020  0.00  0.00    +0.000 OA
ATOM      2  C   UNL     1       0.232  12.910  18.765  0.00  0.00    +0.000 C 
ATOM      3  N   UNL     1       0.704  11.878  19.561  0.00  0.00    +0.000 N 
ATOM      4  H   UNL     1       1.567  11.957  20.076  0.00  0.00    +0.000 HD
ENDROOT
BRANCH   3   5
ATOM      5  C   UNL     1      -0.004  10.594  19.652  0.00  0.00    +0.000 C 
ATOM      6  C   UNL     1      -0.789  10.494  20.974  0.00  0.00    +0.000 C 
ATOM      7  C   UNL     1       0.121  10.142  22.151  0.00  0.00    +0.000 C 
ATOM      8  C   UNL     1       0.802   8.794  21.928  0.00  0.00    +0.000 C 
ATOM      9  C   UNL     1       1.299   8.618  20.517  0.00  0.00    +0.000 A 
ATOM     10  N   UNL     1       2.093   7.512  20.291  0.00  0.00    +0.000 N 
ATOM     11  C   UNL     1       2.571   7.133  19.059  0.00  0.00    +0.000 A 
ATOM     12  O   UNL     1       3.257   6.130  18.896  0.00  0.00    +0.000 OA
ATOM     13  C   UNL     1       2.194   8.012  17.932  0.00  0.00    +0.000 A 
ATOM     14  C   UNL     1       1.446   9.104  18.162  0.00  0.00    +0.000 A 
ATOM     15  C   UNL     1       0.970   9.442  19.490  0.00  0.00    +0.000 A 
ATOM     16  H   UNL     1       2.330   6.888  21.052  0.00  0.00    +0.000 HD
ENDBRANCH   3   5
BRANCH   2  17
ATOM     17  C   UNL     1       0.905  14.283  18.842  0.00  0.00    +0.000 A 
ATOM     18  C   UNL     1       2.243  14.439  18.436  0.00  0.00    +0.000 A 
ATOM     19  C   UNL     1       2.844  15.698  18.444  0.00  0.00    +0.000 A 
ATOM     20  N   UNL     1       2.197  16.762  18.958  0.00  0.00    +0.000 NA
ATOM     21  C   UNL     1       0.982  16.613  19.490  0.00  0.00    +0.000 A 
ATOM     22  C   UNL     1       0.486  17.701  20.198  0.00  0.00    +0.000 A 
ATOM     23  C   UNL     1      -0.716  17.637  20.896  0.00  0.00    +0.000 A 
ATOM     24  C   UNL     1      -1.499  16.504  20.774  0.00  0.00    +0.000 A 
ATOM     25 CL   UNL     1      -2.970  16.380  21.657  0.00  0.00    +0.000 Cl
ATOM     26  C   UNL     1      -1.063  15.433  19.997  0.00  0.00    +0.000 A 
ATOM     27  C   UNL     1       0.239  15.413  19.420  0.00  0.00    +0.000 A 
BRANCH  19  28
ATOM     28  C   UNL     1       4.206  15.928  17.827  0.00  0.00    +0.000 C 
ATOM     29  C   UNL     1       5.261  14.850  17.833  0.00  0.00    +0.000 C 
ATOM     30  C   UNL     1       5.440  16.062  18.695  0.00  0.00    +0.000 C 
ENDBRANCH  19  28
ENDBRANCH   2  17
TORSDOF 3
ENDMDL
MODEL 8
REMARK VINA RESULT:      -7.2      2.996      4.594
REMARK  Name = 
REMARK  3 active torsions:
REMARK  status: ('A' for Active; 'I' for Inactive)
REMARK    1  A    between atoms: C_2  and  C_15
REMARK    2  A    between atoms: N_3  and  C_4
REMARK    3  A    between atoms: C_17  and  C_18
REMARK                            x       y       z     vdW  Elec       q    Type
REMARK                         _______ _______ _______ _____ _____    ______ ____
ROOT
ATOM      1  O   UNL     1       1.148   6.272  17.996  0.00  0.00    +0.000 OA
ATOM      2  C   UNL     1       2.191   6.705  18.475  0.00  0.00    +0.000 C 
ATOM      3  N   UNL     1       2.250   8.012  18.931  0.00  0.00    +0.000 N 
ATOM      4  H   UNL     1       3.039   8.357  19.455  0.00  0.00    +0.000 HD
ENDROOT
BRANCH   3   5
ATOM      5  C   UNL     1       1.138   8.950  18.718  0.00  0.00    +0.000 C 
ATOM      6  C   UNL     1       1.494   9.985  17.635  0.00  0.00    +0.000 C 
ATOM      7  C   UNL     1       2.398  11.091  18.180  0.00  0.00    +0.000 C 
ATOM      8  C   UNL     1       1.713  11.844  19.317  0.00  0.00    +0.000 C 
ATOM      9  C   UNL     1       0.989  10.931  20.269  0.00  0.00    +0.000 A 
ATOM     10  N   UNL     1       0.510  11.518  21.423  0.00  0.00    +0.000 N 
ATOM     11  C   UNL     1      -0.247  10.872  22.371  0.00  0.00    +0.000 A 
ATOM     12  O   UNL     1      -0.672  11.436  23.374  0.00  0.00    +0.000 OA
ATOM     13  C   UNL     1      -0.529   9.448  22.099  0.00  0.00    +0.000 A 
ATOM     14  C   UNL     1      -0.036   8.872  20.990  0.00  0.00    +0.000 A 
ATOM     15  C   UNL     1       0.753   9.616  20.026  0.00  0.00    +0.000 A 
ATOM     16  H   UNL     1       0.673  12.501  21.602  0.00  0.00    +0.000 HD
ENDBRANCH   3   5
BRANCH   2  17
ATOM     17  C   UNL     1       3.440   5.825  18.563  0.00  0.00    +0.000 A 
ATOM     18  C   UNL     1       4.503   6.012  17.661  0.00  0.00    +0.000 A 
ATOM     19  C   UNL     1       5.670   5.256  17.774  0.00  0.00    +0.000 A 
ATOM     20  N   UNL     1       5.751   4.250  18.666  0.00  0.00    +0.000 NA
ATOM     21  C   UNL     1       4.700   3.950  19.433  0.00  0.00    +0.000 A 
ATOM     22  C   UNL     1       4.786   2.767  20.154  0.00  0.00    +0.000 A 
ATOM     23  C   UNL     1       3.716   2.282  20.902  0.00  0.00    +0.000 A 
ATOM     24  C   UNL     1       2.585   3.066  21.034  0.00  0.00    +0.000 A 
ATOM     25 CL   UNL     1       1.233   2.476  21.917  0.00  0.00    +0.000 Cl
ATOM     26  C   UNL     1       2.510   4.300  20.391  0.00  0.00    +0.000 A 
ATOM     27  C   UNL     1       3.521   4.729  19.484  0.00  0.00    +0.000 A 
BRANCH  19  28
ATOM     28  C   UNL     1       6.900   5.572  16.951  0.00  0.00    +0.000 C 
ATOM     29  C   UNL     1       6.826   5.705  15.450  0.00  0.00    +0.000 C 
ATOM     30  C   UNL     1       7.525   4.524  16.053  0.00  0.00    +0.000 C 
ENDBRANCH  19  28
ENDBRANCH   2  17
TORSDOF 3
ENDMDL
MODEL 9
REMARK VINA RESULT:      -7.1      2.918      7.928
REMARK  Name = 
REMARK  3 active torsions:
REMARK  status: ('A' for Active; 'I' for Inactive)
REMARK    1  A    between atoms: C_2  and  C_15
REMARK    2  A    between atoms: N_3  and  C_4
REMARK    3  A    between atoms: C_17  and  C_18
REMARK                            x       y       z     vdW  Elec       q    Type
REMARK                         _______ _______ _______ _____ _____    ______ ____
ROOT
ATOM      1  O   UNL     1       2.282   8.452  17.045  0.00  0.00    +0.000 OA
ATOM      2  C   UNL     1       1.759   8.049  18.078  0.00  0.00    +0.000 C 
ATOM      3  N   UNL     1       1.937   6.733  18.474  0.00  0.00    +0.000 N 
ATOM      4  H   UNL     1       1.643   6.407  19.381  0.00  0.00    +0.000 HD
ENDROOT
BRANCH   3   5
ATOM      5  C   UNL     1       2.613   5.757  17.608  0.00  0.00    +0.000 C 
ATOM      6  C   UNL     1       1.829   4.432  17.561  0.00  0.00    +0.000 C 
ATOM      7  C   UNL     1       2.071   3.581  18.807  0.00  0.00    +0.000 C 
ATOM      8  C   UNL     1       3.549   3.226  18.945  0.00  0.00    +0.000 C 
ATOM      9  C   UNL     1       4.459   4.386  18.639  0.00  0.00    +0.000 A 
ATOM     10  N   UNL     1       5.796   4.197  18.928  0.00  0.00    +0.000 N 
ATOM     11  C   UNL     1       6.791   5.101  18.644  0.00  0.00    +0.000 A 
ATOM     12  O   UNL     1       7.971   4.887  18.897  0.00  0.00    +0.000 OA
ATOM     13  C   UNL     1       6.347   6.354  17.998  0.00  0.00    +0.000 A 
ATOM     14  C   UNL     1       5.042   6.547  17.746  0.00  0.00    +0.000 A 
ATOM     15  C   UNL     1       4.043   5.545  18.069  0.00  0.00    +0.000 A 
ATOM     16  H   UNL     1       6.112   3.329  19.343  0.00  0.00    +0.000 HD
ENDBRANCH   3   5
BRANCH   2  17
ATOM     17  C   UNL     1       0.897   8.978  18.935  0.00  0.00    +0.000 A 
ATOM     18  C   UNL     1       1.126   9.080  20.320  0.00  0.00    +0.000 A 
ATOM     19  C   UNL     1       0.386   9.971  21.098  0.00  0.00    +0.000 A 
ATOM     20  N   UNL     1      -0.643  10.655  20.563  0.00  0.00    +0.000 NA
ATOM     21  C   UNL     1      -0.981  10.465  19.285  0.00  0.00    +0.000 A 
ATOM     22  C   UNL     1      -2.183  11.030  18.879  0.00  0.00    +0.000 A 
ATOM     23  C   UNL     1      -2.705  10.811  17.607  0.00  0.00    +0.000 A 
ATOM     24  C   UNL     1      -1.944  10.121  16.683  0.00  0.00    +0.000 A 
ATOM     25 CL   UNL     1      -2.579   9.800  15.117  0.00  0.00    +0.000 Cl
ATOM     26  C   UNL     1      -0.693   9.620  17.041  0.00  0.00    +0.000 A 
ATOM     27  C   UNL     1      -0.222   9.683  18.383  0.00  0.00    +0.000 A 
BRANCH  19  28
ATOM     28  C   UNL     1       0.744  10.246  22.542  0.00  0.00    +0.000 C 
ATOM     29  C   UNL     1       1.455   9.216  23.384  0.00  0.00    +0.000 C 
ATOM     30  C   UNL     1       0.021   9.542  23.670  0.00  0.00    +0.000 C 
ENDBRANCH  19  28
ENDBRANCH   2  17
TORSDOF 3
ENDMDL
