MODEL 1
REMARK VINA RESULT:      -8.0      0.000      0.000
REMARK  Name = 
REMARK  4 active torsions:
REMARK  status: ('A' for Active; 'I' for Inactive)
REMARK    1  A    between atoms: C_2  and  C_17
REMARK    2  A    between atoms: C_7  and  C_8
REMARK    3  A    between atoms: C_8  and  C_9
REMARK    4  A    between atoms: C_22  and  C_24
REMARK                            x       y       z     vdW  Elec       q    Type
REMARK                         _______ _______ _______ _____ _____    ______ ____
ROOT
ATOM      1  O   UNL     1       0.036  10.248  23.223  0.00  0.00    +0.000 OA
ATOM      2  C   UNL     1      -0.432  10.993  22.364  0.00  0.00    +0.000 C 
ATOM      3  N   UNL     1      -0.373  10.815  20.985  0.00  0.00    +0.000 N 
ATOM      4  C   UNL     1       0.329   9.828  20.338  0.00  0.00    +0.000 A 
ATOM      5  N   UNL     1       0.571   9.867  19.048  0.00  0.00    +0.000 NA
ATOM      6  C   UNL     1       1.445   8.843  18.711  0.00  0.00    +0.000 A 
ATOM      7  C   UNL     1       1.820   8.033  19.769  0.00  0.00    +0.000 A 
ATOM      8  S   UNL     1       0.981   8.508  21.174  0.00  0.00    +0.000 S 
ATOM      9  H   UNL     1      -0.767  11.506  20.360  0.00  0.00    +0.000 HD
ENDROOT
BRANCH   2  10
ATOM     10  C   UNL     1      -0.977  12.381  22.750  0.00  0.00    +0.000 C 
ATOM     11  C   UNL     1      -2.514  12.230  22.761  0.00  0.00    +0.000 C 
ATOM     12  C   UNL     1      -3.034  13.645  22.676  0.00  0.00    +0.000 C 
ATOM     13  C   UNL     1      -1.952  14.380  21.920  0.00  0.00    +0.000 C 
ATOM     14  N   UNL     1      -0.789  13.528  21.853  0.00  0.00    +0.000 N 
ATOM     15  C   UNL     1       0.473  13.892  21.383  0.00  0.00    +0.000 C 
ATOM     16  O   UNL     1       1.415  13.102  21.498  0.00  0.00    +0.000 OA
BRANCH  15  17
ATOM     17  C   UNL     1       0.766  15.259  20.768  0.00  0.00    +0.000 A 
ATOM     18  C   UNL     1       1.046  16.443  21.468  0.00  0.00    +0.000 A 
ATOM     19  C   UNL     1       1.478  17.611  20.837  0.00  0.00    +0.000 A 
ATOM     20  C   UNL     1       1.595  17.645  19.461  0.00  0.00    +0.000 A 
ATOM     21  C   UNL     1       1.262  16.514  18.723  0.00  0.00    +0.000 A 
ATOM     22  C   UNL     1       0.850  15.334  19.367  0.00  0.00    +0.000 A 
ENDBRANCH  15  17
ENDBRANCH   2  10
BRANCH   7  23
ATOM     23  C   UNL     1       2.796   6.900  19.843  0.00  0.00    +0.000 C 
BRANCH  23  24
ATOM     24  C   UNL     1       2.160   5.570  19.517  0.00  0.00    +0.000 A 
ATOM     25  C   UNL     1       2.125   5.114  18.191  0.00  0.00    +0.000 A 
ATOM     26  C   UNL     1       1.517   3.895  17.886  0.00  0.00    +0.000 A 
ATOM     27  C   UNL     1       0.951   3.135  18.901  0.00  0.00    +0.000 A 
ATOM     28  F   UNL     1       0.356   1.971  18.603  0.00  0.00    +0.000 F 
ATOM     29  C   UNL     1       0.983   3.568  20.220  0.00  0.00    +0.000 A 
ATOM     30  C   UNL     1       1.590   4.783  20.531  0.00  0.00    +0.000 A 
ENDBRANCH  23  24
ENDBRANCH   7  23
TORSDOF 4
ENDMDL
MODEL 2
REMARK VINA RESULT:      -7.9      0.296      1.270
REMARK  Name = 
REMARK  4 active torsions:
REMARK  status: ('A' for Active; 'I' for Inactive)
REMARK    1  A    between atoms: C_2  and  C_17
REMARK    2  A    between atoms: C_7  and  C_8
REMARK    3  A    between atoms: C_8  and  C_9
REMARK    4  A    between atoms: C_22  and  C_24
REMARK                            x       y       z     vdW  Elec       q    Type
REMARK                         _______ _______ _______ _____ _____    ______ ____
ROOT
ATOM      1  O   UNL     1       0.160  10.291  23.104  0.00  0.00    +0.000 OA
ATOM      2  C   UNL     1      -0.295  11.041  22.244  0.00  0.00    +0.000 C 
ATOM      3  N   UNL     1      -0.246  10.855  20.866  0.00  0.00    +0.000 N 
ATOM      4  C   UNL     1       0.433   9.850  20.221  0.00  0.00    +0.000 A 
ATOM      5  N   UNL     1       0.670   9.876  18.930  0.00  0.00    +0.000 NA
ATOM      6  C   UNL     1       1.520   8.832  18.595  0.00  0.00    +0.000 A 
ATOM      7  C   UNL     1       1.882   8.020  19.656  0.00  0.00    +0.000 A 
ATOM      8  S   UNL     1       1.060   8.520  21.061  0.00  0.00    +0.000 S 
ATOM      9  H   UNL     1      -0.627  11.551  20.238  0.00  0.00    +0.000 HD
ENDROOT
BRANCH   2  10
ATOM     10  C   UNL     1      -0.809  12.443  22.624  0.00  0.00    +0.000 C 
ATOM     11  C   UNL     1      -2.350  12.338  22.593  0.00  0.00    +0.000 C 
ATOM     12  C   UNL     1      -2.824  13.768  22.503  0.00  0.00    +0.000 C 
ATOM     13  C   UNL     1      -1.700  14.475  21.782  0.00  0.00    +0.000 C 
ATOM     14  N   UNL     1      -0.562  13.589  21.741  0.00  0.00    +0.000 N 
ATOM     15  C   UNL     1       0.723  13.918  21.308  0.00  0.00    +0.000 C 
ATOM     16  O   UNL     1       1.638  13.099  21.442  0.00  0.00    +0.000 OA
BRANCH  15  17
ATOM     17  C   UNL     1       1.073  15.279  20.710  0.00  0.00    +0.000 A 
ATOM     18  C   UNL     1       0.746  15.729  19.421  0.00  0.00    +0.000 A 
ATOM     19  C   UNL     1       0.942  17.049  19.008  0.00  0.00    +0.000 A 
ATOM     20  C   UNL     1       1.528  17.957  19.868  0.00  0.00    +0.000 A 
ATOM     21  C   UNL     1       1.930  17.535  21.131  0.00  0.00    +0.000 A 
ATOM     22  C   UNL     1       1.707  16.211  21.548  0.00  0.00    +0.000 A 
ENDBRANCH  15  17
ENDBRANCH   2  10
BRANCH   7  23
ATOM     23  C   UNL     1       2.834   6.867  19.733  0.00  0.00    +0.000 C 
BRANCH  23  24
ATOM     24  C   UNL     1       2.165   5.547  19.431  0.00  0.00    +0.000 A 
ATOM     25  C   UNL     1       1.569   4.808  20.464  0.00  0.00    +0.000 A 
ATOM     26  C   UNL     1       0.970   3.578  20.190  0.00  0.00    +0.000 A 
ATOM     27  C   UNL     1       0.962   3.091  18.889  0.00  0.00    +0.000 A 
ATOM     28  F   UNL     1       0.397   1.903  18.631  0.00  0.00    +0.000 F 
ATOM     29  C   UNL     1       1.541   3.813  17.853  0.00  0.00    +0.000 A 
ATOM     30  C   UNL     1       2.139   5.042  18.121  0.00  0.00    +0.000 A 
ENDBRANCH  23  24
ENDBRANCH   7  23
TORSDOF 4
ENDMDL
MODEL 3
REMARK VINA RESULT:      -7.7      4.020      5.585
REMARK  Name = 
REMARK  4 active torsions:
REMARK  status: ('A' for Active; 'I' for Inactive)
REMARK    1  A    between atoms: C_2  and  C_17
REMARK    2  A    between atoms: C_7  and  C_8
REMARK    3  A    between atoms: C_8  and  C_9
REMARK    4  A    between atoms: C_22  and  C_24
REMARK                            x       y       z     vdW  Elec       q    Type
REMARK                         _______ _______ _______ _____ _____    ______ ____
ROOT
ATOM      1  O   UNL     1       1.833   9.460  17.451  0.00  0.00    +0.000 OA
ATOM      2  C   UNL     1       1.395   9.797  18.549  0.00  0.00    +0.000 C 
ATOM      3  N   UNL     1       1.387   9.035  19.713  0.00  0.00    +0.000 N 
ATOM      4  C   UNL     1       1.762   7.716  19.804  0.00  0.00    +0.000 A 
ATOM      5  N   UNL     1       1.482   6.976  20.852  0.00  0.00    +0.000 NA
ATOM      6  C   UNL     1       1.821   5.656  20.589  0.00  0.00    +0.000 A 
ATOM      7  C   UNL     1       2.381   5.442  19.341  0.00  0.00    +0.000 A 
ATOM      8  S   UNL     1       2.574   6.934  18.541  0.00  0.00    +0.000 S 
ATOM      9  H   UNL     1       0.975   9.396  20.563  0.00  0.00    +0.000 HD
ENDROOT
BRANCH   2  10
ATOM     10  C   UNL     1       0.577  11.094  18.698  0.00  0.00    +0.000 C 
ATOM     11  C   UNL     1       0.992  11.687  20.062  0.00  0.00    +0.000 C 
ATOM     12  C   UNL     1      -0.111  12.660  20.402  0.00  0.00    +0.000 C 
ATOM     13  C   UNL     1      -1.326  12.080  19.716  0.00  0.00    +0.000 C 
ATOM     14  N   UNL     1      -0.884  11.041  18.818  0.00  0.00    +0.000 N 
ATOM     15  C   UNL     1      -1.673  10.370  17.883  0.00  0.00    +0.000 C 
ATOM     16  O   UNL     1      -1.142   9.588  17.088  0.00  0.00    +0.000 OA
BRANCH  15  17
ATOM     17  C   UNL     1      -3.179  10.592  17.757  0.00  0.00    +0.000 A 
ATOM     18  C   UNL     1      -4.174  10.012  18.561  0.00  0.00    +0.000 A 
ATOM     19  C   UNL     1      -5.515  10.401  18.502  0.00  0.00    +0.000 A 
ATOM     20  C   UNL     1      -5.913  11.357  17.589  0.00  0.00    +0.000 A 
ATOM     21  C   UNL     1      -4.970  11.908  16.727  0.00  0.00    +0.000 A 
ATOM     22  C   UNL     1      -3.619  11.530  16.808  0.00  0.00    +0.000 A 
ENDBRANCH  15  17
ENDBRANCH   2  10
BRANCH   7  23
ATOM     23  C   UNL     1       2.790   4.179  18.650  0.00  0.00    +0.000 C 
BRANCH  23  24
ATOM     24  C   UNL     1       4.145   4.296  17.992  0.00  0.00    +0.000 A 
ATOM     25  C   UNL     1       4.276   4.098  16.610  0.00  0.00    +0.000 A 
ATOM     26  C   UNL     1       5.531   4.184  16.006  0.00  0.00    +0.000 A 
ATOM     27  C   UNL     1       6.649   4.471  16.779  0.00  0.00    +0.000 A 
ATOM     28  F   UNL     1       7.855   4.540  16.198  0.00  0.00    +0.000 F 
ATOM     29  C   UNL     1       6.536   4.677  18.148  0.00  0.00    +0.000 A 
ATOM     30  C   UNL     1       5.286   4.594  18.756  0.00  0.00    +0.000 A 
ENDBRANCH  23  24
ENDBRANCH   7  23
TORSDOF 4
ENDMDL
MODEL 4
REMARK VINA RESULT:      -7.7      1.252      1.304
REMARK  Name = 
REMARK  4 active torsions:
REMARK  status: ('A' for Active; 'I' for Inactive)
REMARK    1  A    between atoms: C_2  and  C_17
REMARK    2  A    between atoms: C_7  and  C_8
REMARK    3  A    between atoms: C_8  and  C_9
REMARK    4  A    between atoms: C_22  and  C_24
REMARK                            x       y       z     vdW  Elec       q    Type
REMARK                         _______ _______ _______ _____ _____    ______ ____
ROOT
ATOM      1  O   UNL     1       0.395  10.407  22.363  0.00  0.00    +0.000 OA
ATOM      2  C   UNL     1       0.063  11.086  21.394  0.00  0.00    +0.000 C 
ATOM      3  N   UNL     1       0.198  10.744  20.052  0.00  0.00    +0.000 N 
ATOM      4  C   UNL     1       0.844   9.629  19.575  0.00  0.00    +0.000 A 
ATOM      5  N   UNL     1       1.176   9.494  18.312  0.00  0.00    +0.000 NA
ATOM      6  C   UNL     1       1.966   8.364  18.160  0.00  0.00    +0.000 A 
ATOM      7  C   UNL     1       2.187   7.653  19.327  0.00  0.00    +0.000 A 
ATOM      8  S   UNL     1       1.304   8.362  20.600  0.00  0.00    +0.000 S 
ATOM      9  H   UNL     1      -0.082  11.389  19.325  0.00  0.00    +0.000 HD
ENDROOT
BRANCH   2  10
ATOM     10  C   UNL     1      -0.369  12.553  21.580  0.00  0.00    +0.000 C 
ATOM     11  C   UNL     1      -1.845  12.607  21.127  0.00  0.00    +0.000 C 
ATOM     12  C   UNL     1      -2.108  14.071  20.871  0.00  0.00    +0.000 C 
ATOM     13  C   UNL     1      -0.757  14.615  20.470  0.00  0.00    +0.000 C 
ATOM     14  N   UNL     1       0.239  13.614  20.769  0.00  0.00    +0.000 N 
ATOM     15  C   UNL     1       1.623  13.782  20.700  0.00  0.00    +0.000 C 
ATOM     16  O   UNL     1       2.365  12.882  21.104  0.00  0.00    +0.000 OA
BRANCH  15  17
ATOM     17  C   UNL     1       2.277  15.063  20.186  0.00  0.00    +0.000 A 
ATOM     18  C   UNL     1       2.614  16.190  20.954  0.00  0.00    +0.000 A 
ATOM     19  C   UNL     1       3.370  17.250  20.449  0.00  0.00    +0.000 A 
ATOM     20  C   UNL     1       3.774  17.238  19.128  0.00  0.00    +0.000 A 
ATOM     21  C   UNL     1       3.403  16.172  18.315  0.00  0.00    +0.000 A 
ATOM     22  C   UNL     1       2.662  15.098  18.836  0.00  0.00    +0.000 A 
ENDBRANCH  15  17
ENDBRANCH   2  10
BRANCH   7  23
ATOM     23  C   UNL     1       3.041   6.455  19.603  0.00  0.00    +0.000 C 
BRANCH  23  24
ATOM     24  C   UNL     1       2.310   5.157  19.349  0.00  0.00    +0.000 A 
ATOM     25  C   UNL     1       2.218   4.644  18.047  0.00  0.00    +0.000 A 
ATOM     26  C   UNL     1       1.523   3.457  17.809  0.00  0.00    +0.000 A 
ATOM     27  C   UNL     1       0.927   2.785  18.868  0.00  0.00    +0.000 A 
ATOM     28  F   UNL     1       0.250   1.652  18.634  0.00  0.00    +0.000 F 
ATOM     29  C   UNL     1       1.014   3.274  20.164  0.00  0.00    +0.000 A 
ATOM     30  C   UNL     1       1.708   4.458  20.408  0.00  0.00    +0.000 A 
ENDBRANCH  23  24
ENDBRANCH   7  23
TORSDOF 4
ENDMDL
MODEL 5
REMARK VINA RESULT:      -7.6      1.058      1.213
REMARK  Name = 
REMARK  4 active torsions:
REMARK  status: ('A' for Active; 'I' for Inactive)
REMARK    1  A    between atoms: C_2  and  C_17
REMARK    2  A    between atoms: C_7  and  C_8
REMARK    3  A    between atoms: C_8  and  C_9
REMARK    4  A    between atoms: C_22  and  C_24
REMARK                            x       y       z     vdW  Elec       q    Type
REMARK                         _______ _______ _______ _____ _____    ______ ____
ROOT
ATOM      1  O   UNL     1       0.540  10.389  22.447  0.00  0.00    +0.000 OA
ATOM      2  C   UNL     1       0.030  11.077  21.566  0.00  0.00    +0.000 C 
ATOM      3  N   UNL     1       0.004  10.799  20.202  0.00  0.00    +0.000 N 
ATOM      4  C   UNL     1       0.655   9.756  19.589  0.00  0.00    +0.000 A 
ATOM      5  N   UNL     1       0.819   9.697  18.288  0.00  0.00    +0.000 NA
ATOM      6  C   UNL     1       1.659   8.637  17.977  0.00  0.00    +0.000 A 
ATOM      7  C   UNL     1       2.087   7.901  19.067  0.00  0.00    +0.000 A 
ATOM      8  S   UNL     1       1.340   8.490  20.480  0.00  0.00    +0.000 S 
ATOM      9  H   UNL     1      -0.419  11.448  19.552  0.00  0.00    +0.000 HD
ENDROOT
BRANCH   2  10
ATOM     10  C   UNL     1      -0.475  12.498  21.880  0.00  0.00    +0.000 C 
ATOM     11  C   UNL     1      -1.980  12.341  22.188  0.00  0.00    +0.000 C 
ATOM     12  C   UNL     1      -2.545  13.732  22.034  0.00  0.00    +0.000 C 
ATOM     13  C   UNL     1      -1.637  14.378  21.014  0.00  0.00    +0.000 C 
ATOM     14  N   UNL     1      -0.482  13.530  20.837  0.00  0.00    +0.000 N 
ATOM     15  C   UNL     1       0.665  13.843  20.106  0.00  0.00    +0.000 C 
ATOM     16  O   UNL     1       1.634  13.078  20.139  0.00  0.00    +0.000 OA
BRANCH  15  17
ATOM     17  C   UNL     1       0.805  15.129  19.293  0.00  0.00    +0.000 A 
ATOM     18  C   UNL     1      -0.233  15.823  18.652  0.00  0.00    +0.000 A 
ATOM     19  C   UNL     1      -0.058  17.085  18.079  0.00  0.00    +0.000 A 
ATOM     20  C   UNL     1       1.191  17.674  18.084  0.00  0.00    +0.000 A 
ATOM     21  C   UNL     1       2.262  16.989  18.649  0.00  0.00    +0.000 A 
ATOM     22  C   UNL     1       2.074  15.731  19.246  0.00  0.00    +0.000 A 
ENDBRANCH  15  17
ENDBRANCH   2  10
BRANCH   7  23
ATOM     23  C   UNL     1       3.053   6.761  19.167  0.00  0.00    +0.000 C 
BRANCH  23  24
ATOM     24  C   UNL     1       2.373   5.418  19.040  0.00  0.00    +0.000 A 
ATOM     25  C   UNL     1       2.380   4.738  17.813  0.00  0.00    +0.000 A 
ATOM     26  C   UNL     1       1.732   3.508  17.691  0.00  0.00    +0.000 A 
ATOM     27  C   UNL     1       1.084   2.958  18.790  0.00  0.00    +0.000 A 
ATOM     28  F   UNL     1       0.452   1.783  18.665  0.00  0.00    +0.000 F 
ATOM     29  C   UNL     1       1.074   3.614  20.014  0.00  0.00    +0.000 A 
ATOM     30  C   UNL     1       1.721   4.841  20.143  0.00  0.00    +0.000 A 
ENDBRANCH  23  24
ENDBRANCH   7  23
TORSDOF 4
ENDMDL
MODEL 6
REMARK VINA RESULT:      -7.6      3.755      5.231
REMARK  Name = 
REMARK  4 active torsions:
REMARK  status: ('A' for Active; 'I' for Inactive)
REMARK    1  A    between atoms: C_2  and  C_17
REMARK    2  A    between atoms: C_7  and  C_8
REMARK    3  A    between atoms: C_8  and  C_9
REMARK    4  A    between atoms: C_22  and  C_24
REMARK                            x       y       z     vdW  Elec       q    Type
REMARK                         _______ _______ _______ _____ _____    ______ ____
ROOT
ATOM      1  O   UNL     1       1.882   9.942  17.463  0.00  0.00    +0.000 OA
ATOM      2  C   UNL     1       1.503  10.317  18.571  0.00  0.00    +0.000 C 
ATOM      3  N   UNL     1       1.473   9.563  19.740  0.00  0.00    +0.000 N 
ATOM      4  C   UNL     1       1.751   8.221  19.830  0.00  0.00    +0.000 A 
ATOM      5  N   UNL     1       1.448   7.509  20.891  0.00  0.00    +0.000 NA
ATOM      6  C   UNL     1       1.680   6.167  20.627  0.00  0.00    +0.000 A 
ATOM      7  C   UNL     1       2.185   5.905  19.366  0.00  0.00    +0.000 A 
ATOM      8  S   UNL     1       2.465   7.374  18.550  0.00  0.00    +0.000 S 
ATOM      9  H   UNL     1       1.114   9.959  20.599  0.00  0.00    +0.000 HD
ENDROOT
BRANCH   2  10
ATOM     10  C   UNL     1       0.789  11.673  18.733  0.00  0.00    +0.000 C 
ATOM     11  C   UNL     1       1.380  12.297  20.016  0.00  0.00    +0.000 C 
ATOM     12  C   UNL     1       0.382  13.357  20.414  0.00  0.00    +0.000 C 
ATOM     13  C   UNL     1      -0.932  12.831  19.886  0.00  0.00    +0.000 C 
ATOM     14  N   UNL     1      -0.653  11.724  19.003  0.00  0.00    +0.000 N 
ATOM     15  C   UNL     1      -1.576  11.066  18.188  0.00  0.00    +0.000 C 
ATOM     16  O   UNL     1      -1.180  10.216  17.386  0.00  0.00    +0.000 OA
BRANCH  15  17
ATOM     17  C   UNL     1      -3.069  11.385  18.205  0.00  0.00    +0.000 A 
ATOM     18  C   UNL     1      -3.799  11.890  19.292  0.00  0.00    +0.000 A 
ATOM     19  C   UNL     1      -5.122  12.324  19.178  0.00  0.00    +0.000 A 
ATOM     20  C   UNL     1      -5.779  12.216  17.968  0.00  0.00    +0.000 A 
ATOM     21  C   UNL     1      -5.113  11.657  16.882  0.00  0.00    +0.000 A 
ATOM     22  C   UNL     1      -3.775  11.245  16.997  0.00  0.00    +0.000 A 
ENDBRANCH  15  17
ENDBRANCH   2  10
BRANCH   7  23
ATOM     23  C   UNL     1       2.479   4.611  18.672  0.00  0.00    +0.000 C 
BRANCH  23  24
ATOM     24  C   UNL     1       3.906   4.532  18.183  0.00  0.00    +0.000 A 
ATOM     25  C   UNL     1       4.965   4.845  19.047  0.00  0.00    +0.000 A 
ATOM     26  C   UNL     1       6.282   4.794  18.588  0.00  0.00    +0.000 A 
ATOM     27  C   UNL     1       6.539   4.428  17.274  0.00  0.00    +0.000 A 
ATOM     28  F   UNL     1       7.805   4.393  16.833  0.00  0.00    +0.000 F 
ATOM     29  C   UNL     1       5.503   4.108  16.406  0.00  0.00    +0.000 A 
ATOM     30  C   UNL     1       4.187   4.155  16.859  0.00  0.00    +0.000 A 
ENDBRANCH  23  24
ENDBRANCH   7  23
TORSDOF 4
ENDMDL
MODEL 7
REMARK VINA RESULT:      -7.5      3.244      4.554
REMARK  Name = 
REMARK  4 active torsions:
REMARK  status: ('A' for Active; 'I' for Inactive)
REMARK    1  A    between atoms: C_2  and  C_17
REMARK    2  A    between atoms: C_7  and  C_8
REMARK    3  A    between atoms: C_8  and  C_9
REMARK    4  A    between atoms: C_22  and  C_24
REMARK                            x       y       z     vdW  Elec       q    Type
REMARK                         _______ _______ _______ _____ _____    ______ ____
ROOT
ATOM      1  O   UNL     1      -0.887  10.055  20.708  0.00  0.00    +0.000 OA
ATOM      2  C   UNL     1      -0.799  10.797  19.732  0.00  0.00    +0.000 C 
ATOM      3  N   UNL     1      -0.011  10.597  18.602  0.00  0.00    +0.000 N 
ATOM      4  C   UNL     1       0.903   9.586  18.437  0.00  0.00    +0.000 A 
ATOM      5  N   UNL     1       1.803   9.600  17.481  0.00  0.00    +0.000 NA
ATOM      6  C   UNL     1       2.693   8.552  17.670  0.00  0.00    +0.000 A 
ATOM      7  C   UNL     1       2.419   7.751  18.764  0.00  0.00    +0.000 A 
ATOM      8  S   UNL     1       0.968   8.265  19.495  0.00  0.00    +0.000 S 
ATOM      9  H   UNL     1       0.012  11.286  17.862  0.00  0.00    +0.000 HD
ENDROOT
BRANCH   2  10
ATOM     10  C   UNL     1      -1.430  12.202  19.761  0.00  0.00    +0.000 C 
ATOM     11  C   UNL     1      -1.000  12.818  21.110  0.00  0.00    +0.000 C 
ATOM     12  C   UNL     1      -1.968  13.955  21.332  0.00  0.00    +0.000 C 
ATOM     13  C   UNL     1      -3.219  13.506  20.615  0.00  0.00    +0.000 C 
ATOM     14  N   UNL     1      -2.889  12.360  19.804  0.00  0.00    +0.000 N 
ATOM     15  C   UNL     1      -3.721  11.746  18.866  0.00  0.00    +0.000 C 
ATOM     16  O   UNL     1      -3.269  10.849  18.148  0.00  0.00    +0.000 OA
BRANCH  15  17
ATOM     17  C   UNL     1      -5.172  12.166  18.646  0.00  0.00    +0.000 A 
ATOM     18  C   UNL     1      -6.133  12.390  19.645  0.00  0.00    +0.000 A 
ATOM     19  C   UNL     1      -7.387  12.945  19.377  0.00  0.00    +0.000 A 
ATOM     20  C   UNL     1      -7.740  13.248  18.077  0.00  0.00    +0.000 A 
ATOM     21  C   UNL     1      -6.843  12.978  17.049  0.00  0.00    +0.000 A 
ATOM     22  C   UNL     1      -5.574  12.443  17.328  0.00  0.00    +0.000 A 
ENDBRANCH  15  17
ENDBRANCH   2  10
BRANCH   7  23
ATOM     23  C   UNL     1       3.171   6.599  19.355  0.00  0.00    +0.000 C 
BRANCH  23  24
ATOM     24  C   UNL     1       2.441   5.288  19.187  0.00  0.00    +0.000 A 
ATOM     25  C   UNL     1       2.427   4.645  17.940  0.00  0.00    +0.000 A 
ATOM     26  C   UNL     1       1.734   3.445  17.779  0.00  0.00    +0.000 A 
ATOM     27  C   UNL     1       1.060   2.888  18.859  0.00  0.00    +0.000 A 
ATOM     28  F   UNL     1       0.384   1.742  18.697  0.00  0.00    +0.000 F 
ATOM     29  C   UNL     1       1.069   3.507  20.102  0.00  0.00    +0.000 A 
ATOM     30  C   UNL     1       1.762   4.705  20.269  0.00  0.00    +0.000 A 
ENDBRANCH  23  24
ENDBRANCH   7  23
TORSDOF 4
ENDMDL
MODEL 8
REMARK VINA RESULT:      -7.5      7.985     11.816
REMARK  Name = 
REMARK  4 active torsions:
REMARK  status: ('A' for Active; 'I' for Inactive)
REMARK    1  A    between atoms: C_2  and  C_17
REMARK    2  A    between atoms: C_7  and  C_8
REMARK    3  A    between atoms: C_8  and  C_9
REMARK    4  A    between atoms: C_22  and  C_24
REMARK                            x       y       z     vdW  Elec       q    Type
REMARK                         _______ _______ _______ _____ _____    ______ ____
ROOT
ATOM      1  O   UNL     1       8.155   5.435  18.882  0.00  0.00    +0.000 OA
ATOM      2  C   UNL     1       7.534   5.665  17.846  0.00  0.00    +0.000 C 
ATOM      3  N   UNL     1       7.421   6.892  17.197  0.00  0.00    +0.000 N 
ATOM      4  C   UNL     1       7.890   8.091  17.675  0.00  0.00    +0.000 A 
ATOM      5  N   UNL     1       7.524   9.244  17.162  0.00  0.00    +0.000 NA
ATOM      6  C   UNL     1       8.009  10.275  17.953  0.00  0.00    +0.000 A 
ATOM      7  C   UNL     1       8.761   9.865  19.040  0.00  0.00    +0.000 A 
ATOM      8  S   UNL     1       8.941   8.172  18.999  0.00  0.00    +0.000 S 
ATOM      9  H   UNL     1       6.860   6.982  16.361  0.00  0.00    +0.000 HD
ENDROOT
BRANCH   2  10
ATOM     10  C   UNL     1       6.596   4.601  17.246  0.00  0.00    +0.000 C 
ATOM     11  C   UNL     1       6.492   4.945  15.744  0.00  0.00    +0.000 C 
ATOM     12  C   UNL     1       5.253   4.220  15.276  0.00  0.00    +0.000 C 
ATOM     13  C   UNL     1       4.383   4.161  16.509  0.00  0.00    +0.000 C 
ATOM     14  N   UNL     1       5.185   4.545  17.646  0.00  0.00    +0.000 N 
ATOM     15  C   UNL     1       4.805   4.467  18.987  0.00  0.00    +0.000 C 
ATOM     16  O   UNL     1       5.634   4.710  19.868  0.00  0.00    +0.000 OA
BRANCH  15  17
ATOM     17  C   UNL     1       3.406   4.041  19.428  0.00  0.00    +0.000 A 
ATOM     18  C   UNL     1       2.884   2.738  19.391  0.00  0.00    +0.000 A 
ATOM     19  C   UNL     1       1.663   2.397  19.976  0.00  0.00    +0.000 A 
ATOM     20  C   UNL     1       0.893   3.372  20.579  0.00  0.00    +0.000 A 
ATOM     21  C   UNL     1       1.342   4.689  20.578  0.00  0.00    +0.000 A 
ATOM     22  C   UNL     1       2.583   5.021  20.008  0.00  0.00    +0.000 A 
ENDBRANCH  15  17
ENDBRANCH   2  10
BRANCH   7  23
ATOM     23  C   UNL     1       9.374  10.643  20.163  0.00  0.00    +0.000 C 
BRANCH  23  24
ATOM     24  C   UNL     1      10.177  11.825  19.674  0.00  0.00    +0.000 A 
ATOM     25  C   UNL     1       9.641  13.119  19.749  0.00  0.00    +0.000 A 
ATOM     26  C   UNL     1      10.374  14.208  19.276  0.00  0.00    +0.000 A 
ATOM     27  C   UNL     1      11.637  14.006  18.735  0.00  0.00    +0.000 A 
ATOM     28  F   UNL     1      12.333  15.053  18.270  0.00  0.00    +0.000 F 
ATOM     29  C   UNL     1      12.186  12.732  18.661  0.00  0.00    +0.000 A 
ATOM     30  C   UNL     1      11.460  11.641  19.133  0.00  0.00    +0.000 A 
ENDBRANCH  23  24
ENDBRANCH   7  23
TORSDOF 4
ENDMDL
MODEL 9
REMARK VINA RESULT:      -7.5      1.009      1.336
REMARK  Name = 
REMARK  4 active torsions:
REMARK  status: ('A' for Active; 'I' for Inactive)
REMARK    1  A    between atoms: C_2  and  C_17
REMARK    2  A    between atoms: C_7  and  C_8
REMARK    3  A    between atoms: C_8  and  C_9
REMARK    4  A    between atoms: C_22  and  C_24
REMARK                            x       y       z     vdW  Elec       q    Type
REMARK                         _______ _______ _______ _____ _____    ______ ____
ROOT
ATOM      1  O   UNL     1       0.092  10.146  22.224  0.00  0.00    +0.000 OA
ATOM      2  C   UNL     1      -0.214  10.907  21.307  0.00  0.00    +0.000 C 
ATOM      3  N   UNL     1       0.026  10.714  19.950  0.00  0.00    +0.000 N 
ATOM      4  C   UNL     1       0.760   9.687  19.409  0.00  0.00    +0.000 A 
ATOM      5  N   UNL     1       1.180   9.702  18.165  0.00  0.00    +0.000 NA
ATOM      6  C   UNL     1       2.039   8.632  17.954  0.00  0.00    +0.000 A 
ATOM      7  C   UNL     1       2.222   7.814  19.055  0.00  0.00    +0.000 A 
ATOM      8  S   UNL     1       1.222   8.343  20.329  0.00  0.00    +0.000 S 
ATOM      9  H   UNL     1      -0.242  11.418  19.275  0.00  0.00    +0.000 HD
ENDROOT
BRANCH   2  10
ATOM     10  C   UNL     1      -0.736  12.323  21.611  0.00  0.00    +0.000 C 
ATOM     11  C   UNL     1      -2.195  12.342  21.103  0.00  0.00    +0.000 C 
ATOM     12  C   UNL     1      -2.532  13.807  20.975  0.00  0.00    +0.000 C 
ATOM     13  C   UNL     1      -1.200  14.458  20.684  0.00  0.00    +0.000 C 
ATOM     14  N   UNL     1      -0.160  13.489  20.929  0.00  0.00    +0.000 N 
ATOM     15  C   UNL     1       1.213  13.737  20.934  0.00  0.00    +0.000 C 
ATOM     16  O   UNL     1       1.991  12.843  21.283  0.00  0.00    +0.000 OA
BRANCH  15  17
ATOM     17  C   UNL     1       1.811  15.094  20.570  0.00  0.00    +0.000 A 
ATOM     18  C   UNL     1       2.072  15.567  19.274  0.00  0.00    +0.000 A 
ATOM     19  C   UNL     1       2.452  16.885  19.012  0.00  0.00    +0.000 A 
ATOM     20  C   UNL     1       2.635  17.768  20.058  0.00  0.00    +0.000 A 
ATOM     21  C   UNL     1       2.453  17.321  21.363  0.00  0.00    +0.000 A 
ATOM     22  C   UNL     1       2.047  16.000  21.618  0.00  0.00    +0.000 A 
ENDBRANCH  15  17
ENDBRANCH   2  10
BRANCH   7  23
ATOM     23  C   UNL     1       3.120   6.635  19.267  0.00  0.00    +0.000 C 
BRANCH  23  24
ATOM     24  C   UNL     1       2.390   5.322  19.109  0.00  0.00    +0.000 A 
ATOM     25  C   UNL     1       2.345   4.687  17.859  0.00  0.00    +0.000 A 
ATOM     26  C   UNL     1       1.652   3.485  17.709  0.00  0.00    +0.000 A 
ATOM     27  C   UNL     1       1.012   2.918  18.803  0.00  0.00    +0.000 A 
ATOM     28  F   UNL     1       0.336   1.770  18.652  0.00  0.00    +0.000 F 
ATOM     29  C   UNL     1       1.053   3.529  20.050  0.00  0.00    +0.000 A 
ATOM     30  C   UNL     1       1.745   4.728  20.206  0.00  0.00    +0.000 A 
ENDBRANCH  23  24
ENDBRANCH   7  23
TORSDOF 4
ENDMDL
