MODEL 1
REMARK VINA RESULT:      -8.3      0.000      0.000
REMARK  Name = 
REMARK  2 active torsions:
REMARK  status: ('A' for Active; 'I' for Inactive)
REMARK    1  A    between atoms: C_2  and  C_3
REMARK    2  A    between atoms: C_17  and  C_18
REMARK                            x       y       z     vdW  Elec       q    Type
REMARK                         _______ _______ _______ _____ _____    ______ ____
ROOT
ATOM      1  O   UNL     1       1.505   9.410  17.386  0.00  0.00    +0.000 OA
ATOM      2  C   UNL     1       1.778   8.748  18.391  0.00  0.00    +0.000 C 
ATOM      3  N   UNL     1       1.329   9.120  19.659  0.00  0.00    +0.000 N 
ATOM      4  C   UNL     1       1.447   8.360  20.894  0.00  0.00    +0.000 C 
ATOM      5  C   UNL     1       0.041   8.385  21.461  0.00  0.00    +0.000 C 
ATOM      6  C   UNL     1      -0.468   9.770  21.090  0.00  0.00    +0.000 C 
ATOM      7  C   UNL     1       0.245  10.100  19.765  0.00  0.00    +0.000 C 
ENDROOT
BRANCH   7   8
ATOM      8  C   UNL     1       0.710  11.542  19.711  0.00  0.00    +0.000 A 
ATOM      9  C   UNL     1       0.354  12.353  18.620  0.00  0.00    +0.000 A 
ATOM     10  C   UNL     1       0.759  13.690  18.559  0.00  0.00    +0.000 A 
ATOM     11  C   UNL     1       1.551  14.219  19.573  0.00  0.00    +0.000 A 
ATOM     12  C   UNL     1       1.895  13.433  20.672  0.00  0.00    +0.000 A 
ATOM     13  C   UNL     1       1.467  12.108  20.748  0.00  0.00    +0.000 A 
ATOM     14  O   UNL     1       2.598  13.928  21.738  0.00  0.00    +0.000 OA
ATOM     15  C   UNL     1       3.939  14.242  21.361  0.00  0.00    +0.000 C 
ATOM     16  C   UNL     1       4.043  15.608  20.698  0.00  0.00    +0.000 C 
ATOM     17  C   UNL     1       3.353  15.633  19.342  0.00  0.00    +0.000 C 
ATOM     18  O   UNL     1       1.931  15.529  19.460  0.00  0.00    +0.000 OA
ENDBRANCH   7   8
BRANCH   2  19
ATOM     19  C   UNL     1       2.482   7.440  18.184  0.00  0.00    +0.000 A 
ATOM     20  C   UNL     1       3.790   7.489  17.718  0.00  0.00    +0.000 A 
ATOM     21  C   UNL     1       4.425   6.297  17.392  0.00  0.00    +0.000 A 
ATOM     22  C   UNL     1       3.741   5.088  17.550  0.00  0.00    +0.000 A 
ATOM     23  C   UNL     1       4.337   3.863  17.209  0.00  0.00    +0.000 A 
ATOM     24  C   UNL     1       3.632   2.671  17.365  0.00  0.00    +0.000 A 
ATOM     25  C   UNL     1       2.334   2.702  17.860  0.00  0.00    +0.000 A 
ATOM     26  C   UNL     1       1.744   3.924  18.197  0.00  0.00    +0.000 A 
ATOM     27  C   UNL     1       2.423   5.129  18.057  0.00  0.00    +0.000 A 
ATOM     28  N   UNL     1       1.803   6.281  18.379  0.00  0.00    +0.000 NA
ENDBRANCH   2  19
TORSDOF 2
ENDMDL
MODEL 2
REMARK VINA RESULT:      -8.2      3.359      8.512
REMARK  Name = 
REMARK  2 active torsions:
REMARK  status: ('A' for Active; 'I' for Inactive)
REMARK    1  A    between atoms: C_2  and  C_3
REMARK    2  A    between atoms: C_17  and  C_18
REMARK                            x       y       z     vdW  Elec       q    Type
REMARK                         _______ _______ _______ _____ _____    ______ ____
ROOT
ATOM      1  O   UNL     1       0.500  10.226  18.402  0.00  0.00    +0.000 OA
ATOM      2  C   UNL     1      -0.287  10.136  19.348  0.00  0.00    +0.000 C 
ATOM      3  N   UNL     1       0.024   9.405  20.495  0.00  0.00    +0.000 N 
ATOM      4  C   UNL     1      -0.736   9.340  21.734  0.00  0.00    +0.000 C 
ATOM      5  C   UNL     1       0.305   9.603  22.804  0.00  0.00    +0.000 C 
ATOM      6  C   UNL     1       1.550   8.915  22.265  0.00  0.00    +0.000 C 
ATOM      7  C   UNL     1       1.420   9.026  20.734  0.00  0.00    +0.000 C 
ENDROOT
BRANCH   7   8
ATOM      8  C   UNL     1       1.840   7.750  20.032  0.00  0.00    +0.000 A 
ATOM      9  C   UNL     1       2.441   7.813  18.763  0.00  0.00    +0.000 A 
ATOM     10  C   UNL     1       2.852   6.649  18.106  0.00  0.00    +0.000 A 
ATOM     11  C   UNL     1       2.634   5.409  18.698  0.00  0.00    +0.000 A 
ATOM     12  C   UNL     1       2.059   5.331  19.964  0.00  0.00    +0.000 A 
ATOM     13  C   UNL     1       1.676   6.492  20.634  0.00  0.00    +0.000 A 
ATOM     14  O   UNL     1       1.902   4.144  20.628  0.00  0.00    +0.000 OA
ATOM     15  C   UNL     1       0.932   3.321  19.979  0.00  0.00    +0.000 C 
ATOM     16  C   UNL     1       1.525   2.552  18.807  0.00  0.00    +0.000 C 
ATOM     17  C   UNL     1       1.924   3.477  17.666  0.00  0.00    +0.000 C 
ATOM     18  O   UNL     1       3.043   4.299  18.007  0.00  0.00    +0.000 OA
ENDBRANCH   7   8
BRANCH   2  19
ATOM     19  C   UNL     1      -1.531  10.971  19.291  0.00  0.00    +0.000 A 
ATOM     20  C   UNL     1      -1.685  11.950  20.266  0.00  0.00    +0.000 A 
ATOM     21  C   UNL     1      -2.883  12.652  20.320  0.00  0.00    +0.000 A 
ATOM     22  C   UNL     1      -3.890  12.366  19.394  0.00  0.00    +0.000 A 
ATOM     23  C   UNL     1      -5.125  13.034  19.430  0.00  0.00    +0.000 A 
ATOM     24  C   UNL     1      -6.118  12.725  18.504  0.00  0.00    +0.000 A 
ATOM     25  C   UNL     1      -5.881  11.748  17.544  0.00  0.00    +0.000 A 
ATOM     26  C   UNL     1      -4.650  11.084  17.513  0.00  0.00    +0.000 A 
ATOM     27  C   UNL     1      -3.638  11.374  18.420  0.00  0.00    +0.000 A 
ATOM     28  N   UNL     1      -2.478  10.692  18.359  0.00  0.00    +0.000 NA
ENDBRANCH   2  19
TORSDOF 2
ENDMDL
MODEL 3
REMARK VINA RESULT:      -7.9      3.459      4.627
REMARK  Name = 
REMARK  2 active torsions:
REMARK  status: ('A' for Active; 'I' for Inactive)
REMARK    1  A    between atoms: C_2  and  C_3
REMARK    2  A    between atoms: C_17  and  C_18
REMARK                            x       y       z     vdW  Elec       q    Type
REMARK                         _______ _______ _______ _____ _____    ______ ____
ROOT
ATOM      1  O   UNL     1       1.321  10.853  21.655  0.00  0.00    +0.000 OA
ATOM      2  C   UNL     1       0.660  10.252  20.803  0.00  0.00    +0.000 C 
ATOM      3  N   UNL     1      -0.423  10.850  20.158  0.00  0.00    +0.000 N 
ATOM      4  C   UNL     1      -1.186  10.320  19.039  0.00  0.00    +0.000 C 
ATOM      5  C   UNL     1      -1.219  11.471  18.054  0.00  0.00    +0.000 C 
ATOM      6  C   UNL     1      -1.324  12.699  18.946  0.00  0.00    +0.000 C 
ATOM      7  C   UNL     1      -0.574  12.307  20.233  0.00  0.00    +0.000 C 
ENDROOT
BRANCH   7   8
ATOM      8  C   UNL     1      -1.288  12.789  21.480  0.00  0.00    +0.000 A 
ATOM      9  C   UNL     1      -2.605  12.370  21.740  0.00  0.00    +0.000 A 
ATOM     10  C   UNL     1      -3.275  12.789  22.893  0.00  0.00    +0.000 A 
ATOM     11  C   UNL     1      -2.647  13.658  23.780  0.00  0.00    +0.000 A 
ATOM     12  C   UNL     1      -1.334  14.066  23.546  0.00  0.00    +0.000 A 
ATOM     13  C   UNL     1      -0.654  13.624  22.412  0.00  0.00    +0.000 A 
ATOM     14  O   UNL     1      -0.641  14.848  24.430  0.00  0.00    +0.000 OA
ATOM     15  C   UNL     1      -1.191  16.165  24.485  0.00  0.00    +0.000 C 
ATOM     16  C   UNL     1      -2.397  16.243  25.412  0.00  0.00    +0.000 C 
ATOM     17  C   UNL     1      -3.583  15.460  24.865  0.00  0.00    +0.000 C 
ATOM     18  O   UNL     1      -3.352  14.049  24.887  0.00  0.00    +0.000 OA
ENDBRANCH   7   8
BRANCH   2  19
ATOM     19  C   UNL     1       1.159   8.906  20.367  0.00  0.00    +0.000 A 
ATOM     20  C   UNL     1       0.930   7.837  21.226  0.00  0.00    +0.000 A 
ATOM     21  C   UNL     1       1.492   6.604  20.915  0.00  0.00    +0.000 A 
ATOM     22  C   UNL     1       2.256   6.470  19.752  0.00  0.00    +0.000 A 
ATOM     23  C   UNL     1       2.862   5.248  19.415  0.00  0.00    +0.000 A 
ATOM     24  C   UNL     1       3.628   5.141  18.257  0.00  0.00    +0.000 A 
ATOM     25  C   UNL     1       3.792   6.251  17.437  0.00  0.00    +0.000 A 
ATOM     26  C   UNL     1       3.188   7.466  17.777  0.00  0.00    +0.000 A 
ATOM     27  C   UNL     1       2.414   7.603  18.924  0.00  0.00    +0.000 A 
ATOM     28  N   UNL     1       1.869   8.800  19.216  0.00  0.00    +0.000 NA
ENDBRANCH   2  19
TORSDOF 2
ENDMDL
MODEL 4
REMARK VINA RESULT:      -7.9      1.082      1.927
REMARK  Name = 
REMARK  2 active torsions:
REMARK  status: ('A' for Active; 'I' for Inactive)
REMARK    1  A    between atoms: C_2  and  C_3
REMARK    2  A    between atoms: C_17  and  C_18
REMARK                            x       y       z     vdW  Elec       q    Type
REMARK                         _______ _______ _______ _____ _____    ______ ____
ROOT
ATOM      1  O   UNL     1       1.334   9.311  17.303  0.00  0.00    +0.000 OA
ATOM      2  C   UNL     1       1.799   8.687  18.261  0.00  0.00    +0.000 C 
ATOM      3  N   UNL     1       1.412   8.962  19.573  0.00  0.00    +0.000 N 
ATOM      4  C   UNL     1       1.759   8.212  20.770  0.00  0.00    +0.000 C 
ATOM      5  C   UNL     1       0.424   8.000  21.457  0.00  0.00    +0.000 C 
ATOM      6  C   UNL     1      -0.330   9.291  21.172  0.00  0.00    +0.000 C 
ATOM      7  C   UNL     1       0.199   9.753  19.801  0.00  0.00    +0.000 C 
ENDROOT
BRANCH   7   8
ATOM      8  C   UNL     1       0.422  11.251  19.750  0.00  0.00    +0.000 A 
ATOM      9  C   UNL     1      -0.221  12.023  18.767  0.00  0.00    +0.000 A 
ATOM     10  C   UNL     1      -0.042  13.408  18.713  0.00  0.00    +0.000 A 
ATOM     11  C   UNL     1       0.808  14.031  19.622  0.00  0.00    +0.000 A 
ATOM     12  C   UNL     1       1.436  13.282  20.616  0.00  0.00    +0.000 A 
ATOM     13  C   UNL     1       1.235  11.904  20.689  0.00  0.00    +0.000 A 
ATOM     14  O   UNL     1       2.212  13.855  21.588  0.00  0.00    +0.000 OA
ATOM     15  C   UNL     1       3.414  14.390  21.030  0.00  0.00    +0.000 C 
ATOM     16  C   UNL     1       3.201  15.772  20.429  0.00  0.00    +0.000 C 
ATOM     17  C   UNL     1       2.312  15.721  19.194  0.00  0.00    +0.000 C 
ATOM     18  O   UNL     1       0.959  15.388  19.519  0.00  0.00    +0.000 OA
ENDBRANCH   7   8
BRANCH   2  19
ATOM     19  C   UNL     1       2.680   7.512  17.955  0.00  0.00    +0.000 A 
ATOM     20  C   UNL     1       2.149   6.246  18.175  0.00  0.00    +0.000 A 
ATOM     21  C   UNL     1       2.980   5.143  18.027  0.00  0.00    +0.000 A 
ATOM     22  C   UNL     1       4.314   5.331  17.654  0.00  0.00    +0.000 A 
ATOM     23  C   UNL     1       5.194   4.244  17.519  0.00  0.00    +0.000 A 
ATOM     24  C   UNL     1       6.522   4.457  17.157  0.00  0.00    +0.000 A 
ATOM     25  C   UNL     1       6.973   5.752  16.933  0.00  0.00    +0.000 A 
ATOM     26  C   UNL     1       6.093   6.831  17.069  0.00  0.00    +0.000 A 
ATOM     27  C   UNL     1       4.762   6.651  17.425  0.00  0.00    +0.000 A 
ATOM     28  N   UNL     1       3.961   7.725  17.562  0.00  0.00    +0.000 NA
ENDBRANCH   2  19
TORSDOF 2
ENDMDL
MODEL 5
REMARK VINA RESULT:      -7.8      1.377      1.441
REMARK  Name = 
REMARK  2 active torsions:
REMARK  status: ('A' for Active; 'I' for Inactive)
REMARK    1  A    between atoms: C_2  and  C_3
REMARK    2  A    between atoms: C_17  and  C_18
REMARK                            x       y       z     vdW  Elec       q    Type
REMARK                         _______ _______ _______ _____ _____    ______ ____
ROOT
ATOM      1  O   UNL     1       1.085   9.297  18.092  0.00  0.00    +0.000 OA
ATOM      2  C   UNL     1       1.454   8.875  19.191  0.00  0.00    +0.000 C 
ATOM      3  N   UNL     1       1.090   9.508  20.380  0.00  0.00    +0.000 N 
ATOM      4  C   UNL     1       1.324   9.039  21.737  0.00  0.00    +0.000 C 
ATOM      5  C   UNL     1      -0.035   9.166  22.396  0.00  0.00    +0.000 C 
ATOM      6  C   UNL     1      -0.614  10.430  21.776  0.00  0.00    +0.000 C 
ATOM      7  C   UNL     1      -0.014  10.472  20.357  0.00  0.00    +0.000 C 
ENDROOT
BRANCH   7   8
ATOM      8  C   UNL     1       0.400  11.874  19.955  0.00  0.00    +0.000 A 
ATOM      9  C   UNL     1      -0.305  12.551  18.945  0.00  0.00    +0.000 A 
ATOM     10  C   UNL     1       0.050  13.850  18.571  0.00  0.00    +0.000 A 
ATOM     11  C   UNL     1       1.135  14.472  19.181  0.00  0.00    +0.000 A 
ATOM     12  C   UNL     1       1.831  13.822  20.199  0.00  0.00    +0.000 A 
ATOM     13  C   UNL     1       1.459  12.538  20.594  0.00  0.00    +0.000 A 
ATOM     14  O   UNL     1       2.849  14.421  20.891  0.00  0.00    +0.000 OA
ATOM     15  C   UNL     1       3.985  14.627  20.050  0.00  0.00    +0.000 C 
ATOM     16  C   UNL     1       3.854  15.890  19.210  0.00  0.00    +0.000 C 
ATOM     17  C   UNL     1       2.748  15.768  18.171  0.00  0.00    +0.000 C 
ATOM     18  O   UNL     1       1.450  15.740  18.769  0.00  0.00    +0.000 OA
ENDBRANCH   7   8
BRANCH   2  19
ATOM     19  C   UNL     1       2.181   7.563  19.218  0.00  0.00    +0.000 A 
ATOM     20  C   UNL     1       3.087   7.318  18.191  0.00  0.00    +0.000 A 
ATOM     21  C   UNL     1       3.679   6.064  18.113  0.00  0.00    +0.000 A 
ATOM     22  C   UNL     1       3.360   5.092  19.066  0.00  0.00    +0.000 A 
ATOM     23  C   UNL     1       3.916   3.804  19.008  0.00  0.00    +0.000 A 
ATOM     24  C   UNL     1       3.576   2.848  19.962  0.00  0.00    +0.000 A 
ATOM     25  C   UNL     1       2.679   3.176  20.972  0.00  0.00    +0.000 A 
ATOM     26  C   UNL     1       2.127   4.460  21.025  0.00  0.00    +0.000 A 
ATOM     27  C   UNL     1       2.450   5.436  20.090  0.00  0.00    +0.000 A 
ATOM     28  N   UNL     1       1.875   6.652  20.175  0.00  0.00    +0.000 NA
ENDBRANCH   2  19
TORSDOF 2
ENDMDL
MODEL 6
REMARK VINA RESULT:      -7.8      3.319      4.373
REMARK  Name = 
REMARK  2 active torsions:
REMARK  status: ('A' for Active; 'I' for Inactive)
REMARK    1  A    between atoms: C_2  and  C_3
REMARK    2  A    between atoms: C_17  and  C_18
REMARK                            x       y       z     vdW  Elec       q    Type
REMARK                         _______ _______ _______ _____ _____    ______ ____
ROOT
ATOM      1  O   UNL     1       1.422  11.676  19.432  0.00  0.00    +0.000 OA
ATOM      2  C   UNL     1       0.762  10.675  19.140  0.00  0.00    +0.000 C 
ATOM      3  N   UNL     1      -0.586  10.762  18.789  0.00  0.00    +0.000 N 
ATOM      4  C   UNL     1      -1.435   9.696  18.280  0.00  0.00    +0.000 C 
ATOM      5  C   UNL     1      -2.085  10.312  17.057  0.00  0.00    +0.000 C 
ATOM      6  C   UNL     1      -2.299  11.763  17.461  0.00  0.00    +0.000 C 
ATOM      7  C   UNL     1      -1.138  12.071  18.425  0.00  0.00    +0.000 C 
ENDROOT
BRANCH   7   8
ATOM      8  C   UNL     1      -1.586  12.901  19.612  0.00  0.00    +0.000 A 
ATOM      9  C   UNL     1      -0.996  14.153  19.855  0.00  0.00    +0.000 A 
ATOM     10  C   UNL     1      -1.407  14.941  20.934  0.00  0.00    +0.000 A 
ATOM     11  C   UNL     1      -2.389  14.470  21.799  0.00  0.00    +0.000 A 
ATOM     12  C   UNL     1      -2.998  13.239  21.560  0.00  0.00    +0.000 A 
ATOM     13  C   UNL     1      -2.611  12.465  20.467  0.00  0.00    +0.000 A 
ATOM     14  O   UNL     1      -4.029  12.768  22.329  0.00  0.00    +0.000 OA
ATOM     15  C   UNL     1      -3.577  12.451  23.646  0.00  0.00    +0.000 C 
ATOM     16  C   UNL     1      -3.513  13.680  24.541  0.00  0.00    +0.000 C 
ATOM     17  C   UNL     1      -2.428  14.650  24.094  0.00  0.00    +0.000 C 
ATOM     18  O   UNL     1      -2.746  15.275  22.848  0.00  0.00    +0.000 OA
ENDBRANCH   7   8
BRANCH   2  19
ATOM     19  C   UNL     1       1.498   9.374  19.024  0.00  0.00    +0.000 A 
ATOM     20  C   UNL     1       2.212   9.150  17.852  0.00  0.00    +0.000 A 
ATOM     21  C   UNL     1       2.796   7.905  17.658  0.00  0.00    +0.000 A 
ATOM     22  C   UNL     1       2.661   6.920  18.641  0.00  0.00    +0.000 A 
ATOM     23  C   UNL     1       3.215   5.640  18.472  0.00  0.00    +0.000 A 
ATOM     24  C   UNL     1       3.059   4.672  19.461  0.00  0.00    +0.000 A 
ATOM     25  C   UNL     1       2.350   4.979  20.616  0.00  0.00    +0.000 A 
ATOM     26  C   UNL     1       1.800   6.254  20.780  0.00  0.00    +0.000 A 
ATOM     27  C   UNL     1       1.942   7.243  19.813  0.00  0.00    +0.000 A 
ATOM     28  N   UNL     1       1.376   8.449  20.011  0.00  0.00    +0.000 NA
ENDBRANCH   2  19
TORSDOF 2
ENDMDL
MODEL 7
REMARK VINA RESULT:      -7.8      1.247      1.610
REMARK  Name = 
REMARK  2 active torsions:
REMARK  status: ('A' for Active; 'I' for Inactive)
REMARK    1  A    between atoms: C_2  and  C_3
REMARK    2  A    between atoms: C_17  and  C_18
REMARK                            x       y       z     vdW  Elec       q    Type
REMARK                         _______ _______ _______ _____ _____    ______ ____
ROOT
ATOM      1  O   UNL     1       1.478   9.062  17.081  0.00  0.00    +0.000 OA
ATOM      2  C   UNL     1       1.800   8.538  18.151  0.00  0.00    +0.000 C 
ATOM      3  N   UNL     1       1.412   9.078  19.378  0.00  0.00    +0.000 N 
ATOM      4  C   UNL     1       1.589   8.489  20.697  0.00  0.00    +0.000 C 
ATOM      5  C   UNL     1       0.213   8.597  21.322  0.00  0.00    +0.000 C 
ATOM      6  C   UNL     1      -0.314   9.924  20.794  0.00  0.00    +0.000 C 
ATOM      7  C   UNL     1       0.333  10.070  19.404  0.00  0.00    +0.000 C 
ENDROOT
BRANCH   7   8
ATOM      8  C   UNL     1       0.795  11.489  19.136  0.00  0.00    +0.000 A 
ATOM      9  C   UNL     1       2.105  11.727  18.687  0.00  0.00    +0.000 A 
ATOM     10  C   UNL     1       2.545  13.026  18.418  0.00  0.00    +0.000 A 
ATOM     11  C   UNL     1       1.689  14.103  18.628  0.00  0.00    +0.000 A 
ATOM     12  C   UNL     1       0.380  13.881  19.054  0.00  0.00    +0.000 A 
ATOM     13  C   UNL     1      -0.069  12.584  19.293  0.00  0.00    +0.000 A 
ATOM     14  O   UNL     1      -0.528  14.896  19.192  0.00  0.00    +0.000 OA
ATOM     15  C   UNL     1      -0.170  15.757  20.274  0.00  0.00    +0.000 C 
ATOM     16  C   UNL     1       0.872  16.789  19.864  0.00  0.00    +0.000 C 
ATOM     17  C   UNL     1       2.216  16.144  19.555  0.00  0.00    +0.000 C 
ATOM     18  O   UNL     1       2.173  15.356  18.362  0.00  0.00    +0.000 OA
ENDBRANCH   7   8
BRANCH   2  19
ATOM     19  C   UNL     1       2.493   7.210  18.087  0.00  0.00    +0.000 A 
ATOM     20  C   UNL     1       3.847   7.215  17.771  0.00  0.00    +0.000 A 
ATOM     21  C   UNL     1       4.488   5.997  17.576  0.00  0.00    +0.000 A 
ATOM     22  C   UNL     1       3.764   4.809  17.712  0.00  0.00    +0.000 A 
ATOM     23  C   UNL     1       4.368   3.559  17.499  0.00  0.00    +0.000 A 
ATOM     24  C   UNL     1       3.624   2.389  17.630  0.00  0.00    +0.000 A 
ATOM     25  C   UNL     1       2.279   2.465  17.971  0.00  0.00    +0.000 A 
ATOM     26  C   UNL     1       1.682   3.712  18.182  0.00  0.00    +0.000 A 
ATOM     27  C   UNL     1       2.399   4.897  18.063  0.00  0.00    +0.000 A 
ATOM     28  N   UNL     1       1.771   6.073  18.258  0.00  0.00    +0.000 NA
ENDBRANCH   2  19
TORSDOF 2
ENDMDL
MODEL 8
REMARK VINA RESULT:      -7.7      3.745      5.237
REMARK  Name = 
REMARK  2 active torsions:
REMARK  status: ('A' for Active; 'I' for Inactive)
REMARK    1  A    between atoms: C_2  and  C_3
REMARK    2  A    between atoms: C_17  and  C_18
REMARK                            x       y       z     vdW  Elec       q    Type
REMARK                         _______ _______ _______ _____ _____    ______ ____
ROOT
ATOM      1  O   UNL     1       1.080  11.205  20.608  0.00  0.00    +0.000 OA
ATOM      2  C   UNL     1       0.545  10.371  19.872  0.00  0.00    +0.000 C 
ATOM      3  N   UNL     1      -0.748  10.550  19.377  0.00  0.00    +0.000 N 
ATOM      4  C   UNL     1      -1.435   9.732  18.390  0.00  0.00    +0.000 C 
ATOM      5  C   UNL     1      -1.966  10.746  17.396  0.00  0.00    +0.000 C 
ATOM      6  C   UNL     1      -2.347  11.933  18.269  0.00  0.00    +0.000 C 
ATOM      7  C   UNL     1      -1.351  11.885  19.443  0.00  0.00    +0.000 C 
ENDROOT
BRANCH   7   8
ATOM      8  C   UNL     1      -2.015  12.196  20.769  0.00  0.00    +0.000 A 
ATOM      9  C   UNL     1      -1.369  11.864  21.972  0.00  0.00    +0.000 A 
ATOM     10  C   UNL     1      -1.957  12.157  23.206  0.00  0.00    +0.000 A 
ATOM     11  C   UNL     1      -3.212  12.756  23.248  0.00  0.00    +0.000 A 
ATOM     12  C   UNL     1      -3.856  13.110  22.064  0.00  0.00    +0.000 A 
ATOM     13  C   UNL     1      -3.258  12.845  20.833  0.00  0.00    +0.000 A 
ATOM     14  O   UNL     1      -5.051  13.779  22.050  0.00  0.00    +0.000 OA
ATOM     15  C   UNL     1      -6.104  12.950  22.543  0.00  0.00    +0.000 C 
ATOM     16  C   UNL     1      -6.162  12.943  24.065  0.00  0.00    +0.000 C 
ATOM     17  C   UNL     1      -4.949  12.255  24.674  0.00  0.00    +0.000 C 
ATOM     18  O   UNL     1      -3.750  13.010  24.481  0.00  0.00    +0.000 OA
ENDBRANCH   7   8
BRANCH   2  19
ATOM     19  C   UNL     1       1.392   9.228  19.397  0.00  0.00    +0.000 A 
ATOM     20  C   UNL     1       1.957   9.339  18.131  0.00  0.00    +0.000 A 
ATOM     21  C   UNL     1       2.637   8.245  17.610  0.00  0.00    +0.000 A 
ATOM     22  C   UNL     1       2.745   7.076  18.368  0.00  0.00    +0.000 A 
ATOM     23  C   UNL     1       3.402   5.940  17.868  0.00  0.00    +0.000 A 
ATOM     24  C   UNL     1       3.487   4.782  18.637  0.00  0.00    +0.000 A 
ATOM     25  C   UNL     1       2.916   4.756  19.904  0.00  0.00    +0.000 A 
ATOM     26  C   UNL     1       2.262   5.890  20.398  0.00  0.00    +0.000 A 
ATOM     27  C   UNL     1       2.164   7.061  19.656  0.00  0.00    +0.000 A 
ATOM     28  N   UNL     1       1.506   8.118  20.170  0.00  0.00    +0.000 NA
ENDBRANCH   2  19
TORSDOF 2
ENDMDL
MODEL 9
REMARK VINA RESULT:      -7.7      3.467      4.482
REMARK  Name = 
REMARK  2 active torsions:
REMARK  status: ('A' for Active; 'I' for Inactive)
REMARK    1  A    between atoms: C_2  and  C_3
REMARK    2  A    between atoms: C_17  and  C_18
REMARK                            x       y       z     vdW  Elec       q    Type
REMARK                         _______ _______ _______ _____ _____    ______ ____
ROOT
ATOM      1  O   UNL     1       1.392  11.358  21.006  0.00  0.00    +0.000 OA
ATOM      2  C   UNL     1       0.724  10.646  20.252  0.00  0.00    +0.000 C 
ATOM      3  N   UNL     1      -0.523  11.050  19.773  0.00  0.00    +0.000 N 
ATOM      4  C   UNL     1      -1.341  10.386  18.770  0.00  0.00    +0.000 C 
ATOM      5  C   UNL     1      -1.701  11.502  17.809  0.00  0.00    +0.000 C 
ATOM      6  C   UNL     1      -1.876  12.710  18.717  0.00  0.00    +0.000 C 
ATOM      7  C   UNL     1      -0.896  12.464  19.880  0.00  0.00    +0.000 C 
ENDROOT
BRANCH   7   8
ATOM      8  C   UNL     1      -1.495  12.843  21.220  0.00  0.00    +0.000 A 
ATOM      9  C   UNL     1      -2.779  12.390  21.569  0.00  0.00    +0.000 A 
ATOM     10  C   UNL     1      -3.342  12.714  22.806  0.00  0.00    +0.000 A 
ATOM     11  C   UNL     1      -2.639  13.523  23.694  0.00  0.00    +0.000 A 
ATOM     12  C   UNL     1      -1.357  13.964  23.372  0.00  0.00    +0.000 A 
ATOM     13  C   UNL     1      -0.782  13.616  22.150  0.00  0.00    +0.000 A 
ATOM     14  O   UNL     1      -0.589  14.688  24.244  0.00  0.00    +0.000 OA
ATOM     15  C   UNL     1      -1.140  15.989  24.448  0.00  0.00    +0.000 C 
ATOM     16  C   UNL     1      -2.255  15.983  25.484  0.00  0.00    +0.000 C 
ATOM     17  C   UNL     1      -3.481  15.228  24.992  0.00  0.00    +0.000 C 
ATOM     18  O   UNL     1      -3.241  13.822  24.887  0.00  0.00    +0.000 OA
ENDBRANCH   7   8
BRANCH   2  19
ATOM     19  C   UNL     1       1.367   9.392  19.739  0.00  0.00    +0.000 A 
ATOM     20  C   UNL     1       1.841   9.410  18.432  0.00  0.00    +0.000 A 
ATOM     21  C   UNL     1       2.324   8.228  17.884  0.00  0.00    +0.000 A 
ATOM     22  C   UNL     1       2.330   7.063  18.657  0.00  0.00    +0.000 A 
ATOM     23  C   UNL     1       2.785   5.842  18.132  0.00  0.00    +0.000 A 
ATOM     24  C   UNL     1       2.772   4.692  18.918  0.00  0.00    +0.000 A 
ATOM     25  C   UNL     1       2.303   4.759  20.224  0.00  0.00    +0.000 A 
ATOM     26  C   UNL     1       1.849   5.977  20.742  0.00  0.00    +0.000 A 
ATOM     27  C   UNL     1       1.854   7.142  19.985  0.00  0.00    +0.000 A 
ATOM     28  N   UNL     1       1.389   8.285  20.525  0.00  0.00    +0.000 NA
ENDBRANCH   2  19
TORSDOF 2
ENDMDL
