MODEL 1
REMARK VINA RESULT:      -7.9      0.000      0.000
REMARK  Name = 
REMARK  6 active torsions:
REMARK  status: ('A' for Active; 'I' for Inactive)
REMARK    1  A    between atoms: C_1  and  C_2
REMARK    2  A    between atoms: C_4  and  N_5
REMARK    3  A    between atoms: C_6  and  C_8
REMARK    4  A    between atoms: C_11  and  N_12
REMARK    5  A    between atoms: N_12  and  C_13
REMARK    6  A    between atoms: C_23  and  N_24
REMARK                            x       y       z     vdW  Elec       q    Type
REMARK                         _______ _______ _______ _____ _____    ______ ____
ROOT
ATOM      1  N   UNL     1       8.257   8.966  18.713  0.00  0.00    +0.000 N 
ATOM      2  C   UNL     1       8.073   8.013  17.722  0.00  0.00    +0.000 C 
ATOM      3  O   UNL     1       8.459   8.084  16.560  0.00  0.00    +0.000 OA
ATOM      4  H   UNL     1       7.854   8.780  19.621  0.00  0.00    +0.000 HD
ENDROOT
BRANCH   1   8
ATOM      5  C   UNL     1      12.017  11.984  19.838  0.00  0.00    +0.000 C 
ATOM      6  C   UNL     1      10.769  11.766  19.022  0.00  0.00    +0.000 A 
ATOM      7  C   UNL     1      10.154  10.500  19.145  0.00  0.00    +0.000 A 
ATOM      8  C   UNL     1       8.915  10.211  18.571  0.00  0.00    +0.000 A 
ATOM      9  C   UNL     1       8.285  11.208  17.827  0.00  0.00    +0.000 A 
ATOM     10  C   UNL     1       8.883  12.466  17.666  0.00  0.00    +0.000 A 
ATOM     11  C   UNL     1      10.136  12.752  18.239  0.00  0.00    +0.000 A 
BRANCH  11  12
ATOM     12  N   UNL     1      10.710  14.036  18.004  0.00  0.00    +0.000 N 
ATOM     13  C   UNL     1      11.709  14.341  17.102  0.00  0.00    +0.000 A 
ATOM     14  C   UNL     1      11.915  15.697  17.207  0.00  0.00    +0.000 A 
ATOM     15  N   UNL     1      11.127  16.233  18.181  0.00  0.00    +0.000 NA
ATOM     16  C   UNL     1      10.439  15.219  18.656  0.00  0.00    +0.000 A 
ENDBRANCH  11  12
ENDBRANCH   1   8
BRANCH   2  17
ATOM     17  C   UNL     1       7.295   6.802  18.108  0.00  0.00    +0.000 A 
ATOM     18  C   UNL     1       6.165   6.497  17.342  0.00  0.00    +0.000 A 
ATOM     19  C   UNL     1       5.387   5.380  17.644  0.00  0.00    +0.000 A 
ATOM     20  C   UNL     1       5.716   4.534  18.709  0.00  0.00    +0.000 A 
ATOM     21  C   UNL     1       6.866   4.830  19.455  0.00  0.00    +0.000 A 
ATOM     22  C   UNL     1       7.654   5.955  19.162  0.00  0.00    +0.000 A 
BRANCH  20  23
ATOM     23  N   UNL     1       4.984   3.363  18.989  0.00  0.00    +0.000 N 
ATOM     24  H   UNL     1       5.549   2.548  19.186  0.00  0.00    +0.000 HD
BRANCH  23  25
ATOM     25  C   UNL     1       3.609   3.219  19.262  0.00  0.00    +0.000 A 
ATOM     26  C   UNL     1       2.800   2.363  18.515  0.00  0.00    +0.000 A 
ATOM     27  C   UNL     1       1.441   2.320  18.773  0.00  0.00    +0.000 A 
ATOM     28  N   UNL     1       0.835   3.074  19.716  0.00  0.00    +0.000 NA
ATOM     29  C   UNL     1       1.630   3.901  20.426  0.00  0.00    +0.000 A 
ATOM     30  C   UNL     1       3.002   4.005  20.244  0.00  0.00    +0.000 A 
ENDBRANCH  23  25
ENDBRANCH  20  23
ENDBRANCH   2  17
TORSDOF 5
ENDMDL
MODEL 2
REMARK VINA RESULT:      -7.9      7.256      9.800
REMARK  Name = 
REMARK  6 active torsions:
REMARK  status: ('A' for Active; 'I' for Inactive)
REMARK    1  A    between atoms: C_1  and  C_2
REMARK    2  A    between atoms: C_4  and  N_5
REMARK    3  A    between atoms: C_6  and  C_8
REMARK    4  A    between atoms: C_11  and  N_12
REMARK    5  A    between atoms: N_12  and  C_13
REMARK    6  A    between atoms: C_23  and  N_24
REMARK                            x       y       z     vdW  Elec       q    Type
REMARK                         _______ _______ _______ _____ _____    ______ ____
ROOT
ATOM      1  N   UNL     1       0.301   9.279  20.438  0.00  0.00    +0.000 N 
ATOM      2  C   UNL     1       1.303   8.484  20.973  0.00  0.00    +0.000 C 
ATOM      3  O   UNL     1       1.767   8.557  22.106  0.00  0.00    +0.000 OA
ATOM      4  H   UNL     1       0.042   9.120  19.474  0.00  0.00    +0.000 HD
ENDROOT
BRANCH   1   8
ATOM      5  C   UNL     1      -1.516  13.884  20.393  0.00  0.00    +0.000 C 
ATOM      6  C   UNL     1      -1.357  12.593  21.154  0.00  0.00    +0.000 A 
ATOM      7  C   UNL     1      -0.723  11.535  20.466  0.00  0.00    +0.000 A 
ATOM      8  C   UNL     1      -0.372  10.339  21.092  0.00  0.00    +0.000 A 
ATOM      9  C   UNL     1      -0.691  10.183  22.441  0.00  0.00    +0.000 A 
ATOM     10  C   UNL     1      -1.344  11.206  23.144  0.00  0.00    +0.000 A 
ATOM     11  C   UNL     1      -1.703  12.408  22.507  0.00  0.00    +0.000 A 
BRANCH  11  12
ATOM     12  N   UNL     1      -2.401  13.392  23.266  0.00  0.00    +0.000 N 
ATOM     13  C   UNL     1      -1.842  14.420  23.999  0.00  0.00    +0.000 A 
ATOM     14  C   UNL     1      -2.896  15.124  24.533  0.00  0.00    +0.000 A 
ATOM     15  N   UNL     1      -4.083  14.537  24.211  0.00  0.00    +0.000 NA
ATOM     16  C   UNL     1      -3.759  13.495  23.479  0.00  0.00    +0.000 A 
ENDBRANCH  11  12
ENDBRANCH   1   8
BRANCH   2  17
ATOM     17  C   UNL     1       1.895   7.465  20.060  0.00  0.00    +0.000 A 
ATOM     18  C   UNL     1       2.357   7.911  18.818  0.00  0.00    +0.000 A 
ATOM     19  C   UNL     1       2.921   7.016  17.910  0.00  0.00    +0.000 A 
ATOM     20  C   UNL     1       3.049   5.656  18.218  0.00  0.00    +0.000 A 
ATOM     21  C   UNL     1       2.610   5.221  19.477  0.00  0.00    +0.000 A 
ATOM     22  C   UNL     1       2.036   6.114  20.396  0.00  0.00    +0.000 A 
BRANCH  20  23
ATOM     23  N   UNL     1       3.678   4.747  17.345  0.00  0.00    +0.000 N 
ATOM     24  H   UNL     1       3.046   4.212  16.764  0.00  0.00    +0.000 HD
BRANCH  23  25
ATOM     25  C   UNL     1       5.041   4.642  17.002  0.00  0.00    +0.000 A 
ATOM     26  C   UNL     1       6.044   4.656  17.971  0.00  0.00    +0.000 A 
ATOM     27  C   UNL     1       7.369   4.631  17.573  0.00  0.00    +0.000 A 
ATOM     28  N   UNL     1       7.762   4.601  16.281  0.00  0.00    +0.000 NA
ATOM     29  C   UNL     1       6.780   4.594  15.355  0.00  0.00    +0.000 A 
ATOM     30  C   UNL     1       5.426   4.608  15.659  0.00  0.00    +0.000 A 
ENDBRANCH  23  25
ENDBRANCH  20  23
ENDBRANCH   2  17
TORSDOF 5
ENDMDL
MODEL 3
REMARK VINA RESULT:      -7.9      7.617      9.555
REMARK  Name = 
REMARK  6 active torsions:
REMARK  status: ('A' for Active; 'I' for Inactive)
REMARK    1  A    between atoms: C_1  and  C_2
REMARK    2  A    between atoms: C_4  and  N_5
REMARK    3  A    between atoms: C_6  and  C_8
REMARK    4  A    between atoms: C_11  and  N_12
REMARK    5  A    between atoms: N_12  and  C_13
REMARK    6  A    between atoms: C_23  and  N_24
REMARK                            x       y       z     vdW  Elec       q    Type
REMARK                         _______ _______ _______ _____ _____    ______ ____
ROOT
ATOM      1  N   UNL     1       0.983  10.058  20.905  0.00  0.00    +0.000 N 
ATOM      2  C   UNL     1       0.935   9.717  19.562  0.00  0.00    +0.000 C 
ATOM      3  O   UNL     1       0.273  10.270  18.691  0.00  0.00    +0.000 OA
ATOM      4  H   UNL     1       1.555   9.488  21.513  0.00  0.00    +0.000 HD
ENDROOT
BRANCH   1   8
ATOM      5  C   UNL     1       0.311  14.888  21.758  0.00  0.00    +0.000 C 
ATOM      6  C   UNL     1      -0.186  13.483  21.978  0.00  0.00    +0.000 A 
ATOM      7  C   UNL     1       0.516  12.459  21.305  0.00  0.00    +0.000 A 
ATOM      8  C   UNL     1       0.267  11.105  21.534  0.00  0.00    +0.000 A 
ATOM      9  C   UNL     1      -0.736  10.765  22.441  0.00  0.00    +0.000 A 
ATOM     10  C   UNL     1      -1.468  11.759  23.104  0.00  0.00    +0.000 A 
ATOM     11  C   UNL     1      -1.219  13.123  22.866  0.00  0.00    +0.000 A 
BRANCH  11  12
ATOM     12  N   UNL     1      -2.025  14.086  23.541  0.00  0.00    +0.000 N 
ATOM     13  C   UNL     1      -1.679  14.812  24.663  0.00  0.00    +0.000 A 
ATOM     14  C   UNL     1      -2.753  15.627  24.935  0.00  0.00    +0.000 A 
ATOM     15  N   UNL     1      -3.773  15.391  24.064  0.00  0.00    +0.000 NA
ATOM     16  C   UNL     1      -3.324  14.452  23.261  0.00  0.00    +0.000 A 
ENDBRANCH  11  12
ENDBRANCH   1   8
BRANCH   2  17
ATOM     17  C   UNL     1       1.744   8.533  19.153  0.00  0.00    +0.000 A 
ATOM     18  C   UNL     1       1.843   7.480  20.067  0.00  0.00    +0.000 A 
ATOM     19  C   UNL     1       2.584   6.341  19.755  0.00  0.00    +0.000 A 
ATOM     20  C   UNL     1       3.238   6.217  18.523  0.00  0.00    +0.000 A 
ATOM     21  C   UNL     1       3.110   7.265  17.601  0.00  0.00    +0.000 A 
ATOM     22  C   UNL     1       2.370   8.418  17.907  0.00  0.00    +0.000 A 
BRANCH  20  23
ATOM     23  N   UNL     1       3.935   5.047  18.159  0.00  0.00    +0.000 N 
ATOM     24  H   UNL     1       3.375   4.205  18.157  0.00  0.00    +0.000 HD
BRANCH  23  25
ATOM     25  C   UNL     1       5.213   4.918  17.583  0.00  0.00    +0.000 A 
ATOM     26  C   UNL     1       5.381   4.654  16.224  0.00  0.00    +0.000 A 
ATOM     27  C   UNL     1       6.657   4.457  15.725  0.00  0.00    +0.000 A 
ATOM     28  N   UNL     1       7.772   4.497  16.486  0.00  0.00    +0.000 NA
ATOM     29  C   UNL     1       7.593   4.747  17.800  0.00  0.00    +0.000 A 
ATOM     30  C   UNL     1       6.354   4.966  18.387  0.00  0.00    +0.000 A 
ENDBRANCH  23  25
ENDBRANCH  20  23
ENDBRANCH   2  17
TORSDOF 5
ENDMDL
MODEL 4
REMARK VINA RESULT:      -7.9      0.399      1.151
REMARK  Name = 
REMARK  6 active torsions:
REMARK  status: ('A' for Active; 'I' for Inactive)
REMARK    1  A    between atoms: C_1  and  C_2
REMARK    2  A    between atoms: C_4  and  N_5
REMARK    3  A    between atoms: C_6  and  C_8
REMARK    4  A    between atoms: C_11  and  N_12
REMARK    5  A    between atoms: N_12  and  C_13
REMARK    6  A    between atoms: C_23  and  N_24
REMARK                            x       y       z     vdW  Elec       q    Type
REMARK                         _______ _______ _______ _____ _____    ______ ____
ROOT
ATOM      1  N   UNL     1       8.204   9.015  18.667  0.00  0.00    +0.000 N 
ATOM      2  C   UNL     1       8.064   8.052  17.679  0.00  0.00    +0.000 C 
ATOM      3  O   UNL     1       8.511   8.106  16.538  0.00  0.00    +0.000 OA
ATOM      4  H   UNL     1       7.752   8.844  19.555  0.00  0.00    +0.000 HD
ENDROOT
BRANCH   1   8
ATOM      5  C   UNL     1      11.953  11.998  19.914  0.00  0.00    +0.000 C 
ATOM      6  C   UNL     1      10.732  11.791  19.057  0.00  0.00    +0.000 A 
ATOM      7  C   UNL     1      10.100  10.532  19.161  0.00  0.00    +0.000 A 
ATOM      8  C   UNL     1       8.879  10.253  18.545  0.00  0.00    +0.000 A 
ATOM      9  C   UNL     1       8.285  11.255  17.779  0.00  0.00    +0.000 A 
ATOM     10  C   UNL     1       8.901  12.507  17.636  0.00  0.00    +0.000 A 
ATOM     11  C   UNL     1      10.136  12.781  18.251  0.00  0.00    +0.000 A 
BRANCH  11  12
ATOM     12  N   UNL     1      10.730  14.059  18.034  0.00  0.00    +0.000 N 
ATOM     13  C   UNL     1      10.438  15.230  18.703  0.00  0.00    +0.000 A 
ATOM     14  C   UNL     1      11.273  16.188  18.177  0.00  0.00    +0.000 A 
ATOM     15  N   UNL     1      12.026  15.671  17.166  0.00  0.00    +0.000 NA
ATOM     16  C   UNL     1      11.666  14.410  17.085  0.00  0.00    +0.000 A 
ENDBRANCH  11  12
ENDBRANCH   1   8
BRANCH   2  17
ATOM     17  C   UNL     1       7.257   6.852  18.037  0.00  0.00    +0.000 A 
ATOM     18  C   UNL     1       7.733   6.048  19.077  0.00  0.00    +0.000 A 
ATOM     19  C   UNL     1       7.033   4.907  19.467  0.00  0.00    +0.000 A 
ATOM     20  C   UNL     1       5.836   4.542  18.839  0.00  0.00    +0.000 A 
ATOM     21  C   UNL     1       5.350   5.368  17.816  0.00  0.00    +0.000 A 
ATOM     22  C   UNL     1       6.050   6.517  17.413  0.00  0.00    +0.000 A 
BRANCH  20  23
ATOM     23  N   UNL     1       5.077   3.433  19.262  0.00  0.00    +0.000 N 
ATOM     24  H   UNL     1       5.605   2.718  19.745  0.00  0.00    +0.000 HD
BRANCH  23  25
ATOM     25  C   UNL     1       3.677   3.283  19.316  0.00  0.00    +0.000 A 
ATOM     26  C   UNL     1       2.989   2.484  18.403  0.00  0.00    +0.000 A 
ATOM     27  C   UNL     1       1.607   2.437  18.452  0.00  0.00    +0.000 A 
ATOM     28  N   UNL     1       0.866   3.134  19.341  0.00  0.00    +0.000 NA
ATOM     29  C   UNL     1       1.545   3.907  20.214  0.00  0.00    +0.000 A 
ATOM     30  C   UNL     1       2.929   4.011  20.245  0.00  0.00    +0.000 A 
ENDBRANCH  23  25
ENDBRANCH  20  23
ENDBRANCH   2  17
TORSDOF 5
ENDMDL
MODEL 5
REMARK VINA RESULT:      -7.8      1.225      1.660
REMARK  Name = 
REMARK  6 active torsions:
REMARK  status: ('A' for Active; 'I' for Inactive)
REMARK    1  A    between atoms: C_1  and  C_2
REMARK    2  A    between atoms: C_4  and  N_5
REMARK    3  A    between atoms: C_6  and  C_8
REMARK    4  A    between atoms: C_11  and  N_12
REMARK    5  A    between atoms: N_12  and  C_13
REMARK    6  A    between atoms: C_23  and  N_24
REMARK                            x       y       z     vdW  Elec       q    Type
REMARK                         _______ _______ _______ _____ _____    ______ ____
ROOT
ATOM      1  N   UNL     1       7.920   9.385  17.640  0.00  0.00    +0.000 N 
ATOM      2  C   UNL     1       8.147   8.185  18.295  0.00  0.00    +0.000 C 
ATOM      3  O   UNL     1       9.004   7.967  19.145  0.00  0.00    +0.000 OA
ATOM      4  H   UNL     1       7.193   9.405  16.938  0.00  0.00    +0.000 HD
ENDROOT
BRANCH   1   8
ATOM      5  C   UNL     1      12.003  11.763  19.118  0.00  0.00    +0.000 C 
ATOM      6  C   UNL     1      10.647  11.860  18.469  0.00  0.00    +0.000 A 
ATOM      7  C   UNL     1       9.963  10.641  18.263  0.00  0.00    +0.000 A 
ATOM      8  C   UNL     1       8.642  10.590  17.815  0.00  0.00    +0.000 A 
ATOM      9  C   UNL     1       7.994  11.793  17.539  0.00  0.00    +0.000 A 
ATOM     10  C   UNL     1       8.655  13.018  17.709  0.00  0.00    +0.000 A 
ATOM     11  C   UNL     1       9.990  13.065  18.153  0.00  0.00    +0.000 A 
BRANCH  11  12
ATOM     12  N   UNL     1      10.619  14.339  18.267  0.00  0.00    +0.000 N 
ATOM     13  C   UNL     1      10.720  15.112  19.406  0.00  0.00    +0.000 A 
ATOM     14  C   UNL     1      11.428  16.234  19.044  0.00  0.00    +0.000 A 
ATOM     15  N   UNL     1      11.716  16.216  17.713  0.00  0.00    +0.000 NA
ATOM     16  C   UNL     1      11.202  15.091  17.269  0.00  0.00    +0.000 A 
ENDBRANCH  11  12
ENDBRANCH   1   8
BRANCH   2  17
ATOM     17  C   UNL     1       7.282   7.039  17.893  0.00  0.00    +0.000 A 
ATOM     18  C   UNL     1       7.358   5.878  18.668  0.00  0.00    +0.000 A 
ATOM     19  C   UNL     1       6.581   4.765  18.352  0.00  0.00    +0.000 A 
ATOM     20  C   UNL     1       5.701   4.781  17.263  0.00  0.00    +0.000 A 
ATOM     21  C   UNL     1       5.609   5.959  16.508  0.00  0.00    +0.000 A 
ATOM     22  C   UNL     1       6.392   7.084  16.815  0.00  0.00    +0.000 A 
BRANCH  20  23
ATOM     23  N   UNL     1       4.856   3.693  16.966  0.00  0.00    +0.000 N 
ATOM     24  H   UNL     1       5.251   3.012  16.332  0.00  0.00    +0.000 HD
BRANCH  23  25
ATOM     25  C   UNL     1       3.657   3.303  17.594  0.00  0.00    +0.000 A 
ATOM     26  C   UNL     1       3.493   2.027  18.131  0.00  0.00    +0.000 A 
ATOM     27  C   UNL     1       2.267   1.669  18.665  0.00  0.00    +0.000 A 
ATOM     28  N   UNL     1       1.195   2.491  18.692  0.00  0.00    +0.000 NA
ATOM     29  C   UNL     1       1.367   3.721  18.163  0.00  0.00    +0.000 A 
ATOM     30  C   UNL     1       2.561   4.169  17.615  0.00  0.00    +0.000 A 
ENDBRANCH  23  25
ENDBRANCH  20  23
ENDBRANCH   2  17
TORSDOF 5
ENDMDL
MODEL 6
REMARK VINA RESULT:      -7.8      7.716      9.429
REMARK  Name = 
REMARK  6 active torsions:
REMARK  status: ('A' for Active; 'I' for Inactive)
REMARK    1  A    between atoms: C_1  and  C_2
REMARK    2  A    between atoms: C_4  and  N_5
REMARK    3  A    between atoms: C_6  and  C_8
REMARK    4  A    between atoms: C_11  and  N_12
REMARK    5  A    between atoms: N_12  and  C_13
REMARK    6  A    between atoms: C_23  and  N_24
REMARK                            x       y       z     vdW  Elec       q    Type
REMARK                         _______ _______ _______ _____ _____    ______ ____
ROOT
ATOM      1  N   UNL     1       1.052  10.232  20.784  0.00  0.00    +0.000 N 
ATOM      2  C   UNL     1       0.950   9.827  19.462  0.00  0.00    +0.000 C 
ATOM      3  O   UNL     1       0.249  10.336  18.594  0.00  0.00    +0.000 OA
ATOM      4  H   UNL     1       1.651   9.693  21.394  0.00  0.00    +0.000 HD
ENDROOT
BRANCH   1   8
ATOM      5  C   UNL     1      -2.753  11.907  23.473  0.00  0.00    +0.000 C 
ATOM      6  C   UNL     1      -1.464  12.232  22.763  0.00  0.00    +0.000 A 
ATOM      7  C   UNL     1      -0.765  11.140  22.204  0.00  0.00    +0.000 A 
ATOM      8  C   UNL     1       0.357  11.306  21.391  0.00  0.00    +0.000 A 
ATOM      9  C   UNL     1       0.811  12.603  21.153  0.00  0.00    +0.000 A 
ATOM     10  C   UNL     1       0.153  13.706  21.716  0.00  0.00    +0.000 A 
ATOM     11  C   UNL     1      -0.973  13.534  22.541  0.00  0.00    +0.000 A 
BRANCH  11  12
ATOM     12  N   UNL     1      -1.573  14.692  23.116  0.00  0.00    +0.000 N 
ATOM     13  C   UNL     1      -2.486  15.535  22.514  0.00  0.00    +0.000 A 
ATOM     14  C   UNL     1      -2.800  16.490  23.453  0.00  0.00    +0.000 A 
ATOM     15  N   UNL     1      -2.072  16.308  24.590  0.00  0.00    +0.000 NA
ATOM     16  C   UNL     1      -1.332  15.247  24.354  0.00  0.00    +0.000 A 
ENDBRANCH  11  12
ENDBRANCH   1   8
BRANCH   2  17
ATOM     17  C   UNL     1       1.746   8.628  19.076  0.00  0.00    +0.000 A 
ATOM     18  C   UNL     1       1.844   7.596  20.015  0.00  0.00    +0.000 A 
ATOM     19  C   UNL     1       2.574   6.444  19.726  0.00  0.00    +0.000 A 
ATOM     20  C   UNL     1       3.218   6.284  18.493  0.00  0.00    +0.000 A 
ATOM     21  C   UNL     1       3.092   7.311  17.546  0.00  0.00    +0.000 A 
ATOM     22  C   UNL     1       2.363   8.477  17.829  0.00  0.00    +0.000 A 
BRANCH  20  23
ATOM     23  N   UNL     1       3.903   5.101  18.153  0.00  0.00    +0.000 N 
ATOM     24  H   UNL     1       3.333   4.265  18.161  0.00  0.00    +0.000 HD
BRANCH  23  25
ATOM     25  C   UNL     1       5.184   4.947  17.588  0.00  0.00    +0.000 A 
ATOM     26  C   UNL     1       5.358   4.631  16.241  0.00  0.00    +0.000 A 
ATOM     27  C   UNL     1       6.635   4.412  15.756  0.00  0.00    +0.000 A 
ATOM     28  N   UNL     1       7.747   4.480  16.521  0.00  0.00    +0.000 NA
ATOM     29  C   UNL     1       7.563   4.781  17.823  0.00  0.00    +0.000 A 
ATOM     30  C   UNL     1       6.322   5.025  18.395  0.00  0.00    +0.000 A 
ENDBRANCH  23  25
ENDBRANCH  20  23
ENDBRANCH   2  17
TORSDOF 5
ENDMDL
MODEL 7
REMARK VINA RESULT:      -7.8      7.296      9.956
REMARK  Name = 
REMARK  6 active torsions:
REMARK  status: ('A' for Active; 'I' for Inactive)
REMARK    1  A    between atoms: C_1  and  C_2
REMARK    2  A    between atoms: C_4  and  N_5
REMARK    3  A    between atoms: C_6  and  C_8
REMARK    4  A    between atoms: C_11  and  N_12
REMARK    5  A    between atoms: N_12  and  C_13
REMARK    6  A    between atoms: C_23  and  N_24
REMARK                            x       y       z     vdW  Elec       q    Type
REMARK                         _______ _______ _______ _____ _____    ______ ____
ROOT
ATOM      1  N   UNL     1       0.330   9.245  20.879  0.00  0.00    +0.000 N 
ATOM      2  C   UNL     1       1.164   9.305  19.773  0.00  0.00    +0.000 C 
ATOM      3  O   UNL     1       1.354  10.280  19.053  0.00  0.00    +0.000 OA
ATOM      4  H   UNL     1       0.253   8.359  21.359  0.00  0.00    +0.000 HD
ENDROOT
BRANCH   1   8
ATOM      5  C   UNL     1      -2.133  13.482  20.179  0.00  0.00    +0.000 C 
ATOM      6  C   UNL     1      -1.772  12.370  21.129  0.00  0.00    +0.000 A 
ATOM      7  C   UNL     1      -1.008  11.311  20.591  0.00  0.00    +0.000 A 
ATOM      8  C   UNL     1      -0.473  10.295  21.385  0.00  0.00    +0.000 A 
ATOM      9  C   UNL     1      -0.735  10.323  22.754  0.00  0.00    +0.000 A 
ATOM     10  C   UNL     1      -1.512  11.347  23.314  0.00  0.00    +0.000 A 
ATOM     11  C   UNL     1      -2.056  12.366  22.509  0.00  0.00    +0.000 A 
BRANCH  11  12
ATOM     12  N   UNL     1      -2.871  13.356  23.132  0.00  0.00    +0.000 N 
ATOM     13  C   UNL     1      -4.251  13.374  23.186  0.00  0.00    +0.000 A 
ATOM     14  C   UNL     1      -4.588  14.497  23.906  0.00  0.00    +0.000 A 
ATOM     15  N   UNL     1      -3.476  15.207  24.246  0.00  0.00    +0.000 NA
ATOM     16  C   UNL     1      -2.470  14.519  23.751  0.00  0.00    +0.000 A 
ENDBRANCH  11  12
ENDBRANCH   1   8
BRANCH   2  17
ATOM     17  C   UNL     1       1.867   8.043  19.407  0.00  0.00    +0.000 A 
ATOM     18  C   UNL     1       2.555   8.024  18.190  0.00  0.00    +0.000 A 
ATOM     19  C   UNL     1       3.234   6.877  17.779  0.00  0.00    +0.000 A 
ATOM     20  C   UNL     1       3.255   5.724  18.573  0.00  0.00    +0.000 A 
ATOM     21  C   UNL     1       2.586   5.760  19.805  0.00  0.00    +0.000 A 
ATOM     22  C   UNL     1       1.895   6.908  20.225  0.00  0.00    +0.000 A 
BRANCH  20  23
ATOM     23  N   UNL     1       3.991   4.579  18.211  0.00  0.00    +0.000 N 
ATOM     24  H   UNL     1       3.469   3.713  18.243  0.00  0.00    +0.000 HD
BRANCH  23  25
ATOM     25  C   UNL     1       5.256   4.493  17.596  0.00  0.00    +0.000 A 
ATOM     26  C   UNL     1       6.434   4.691  18.315  0.00  0.00    +0.000 A 
ATOM     27  C   UNL     1       7.646   4.675  17.645  0.00  0.00    +0.000 A 
ATOM     28  N   UNL     1       7.761   4.483  16.313  0.00  0.00    +0.000 NA
ATOM     29  C   UNL     1       6.612   4.299  15.631  0.00  0.00    +0.000 A 
ATOM     30  C   UNL     1       5.354   4.291  16.217  0.00  0.00    +0.000 A 
ENDBRANCH  23  25
ENDBRANCH  20  23
ENDBRANCH   2  17
TORSDOF 5
ENDMDL
MODEL 8
REMARK VINA RESULT:      -7.8      7.393      9.998
REMARK  Name = 
REMARK  6 active torsions:
REMARK  status: ('A' for Active; 'I' for Inactive)
REMARK    1  A    between atoms: C_1  and  C_2
REMARK    2  A    between atoms: C_4  and  N_5
REMARK    3  A    between atoms: C_6  and  C_8
REMARK    4  A    between atoms: C_11  and  N_12
REMARK    5  A    between atoms: N_12  and  C_13
REMARK    6  A    between atoms: C_23  and  N_24
REMARK                            x       y       z     vdW  Elec       q    Type
REMARK                         _______ _______ _______ _____ _____    ______ ____
ROOT
ATOM      1  N   UNL     1       0.449   9.523  20.762  0.00  0.00    +0.000 N 
ATOM      2  C   UNL     1       1.077   9.574  19.527  0.00  0.00    +0.000 C 
ATOM      3  O   UNL     1       1.030  10.497  18.721  0.00  0.00    +0.000 OA
ATOM      4  H   UNL     1       0.555   8.679  21.306  0.00  0.00    +0.000 HD
ENDROOT
BRANCH   1   8
ATOM      5  C   UNL     1      -1.898  13.866  20.387  0.00  0.00    +0.000 C 
ATOM      6  C   UNL     1      -1.626  12.642  21.223  0.00  0.00    +0.000 A 
ATOM      7  C   UNL     1      -0.836  11.638  20.622  0.00  0.00    +0.000 A 
ATOM      8  C   UNL     1      -0.379  10.523  21.327  0.00  0.00    +0.000 A 
ATOM      9  C   UNL     1      -0.746  10.395  22.666  0.00  0.00    +0.000 A 
ATOM     10  C   UNL     1      -1.552  11.363  23.282  0.00  0.00    +0.000 A 
ATOM     11  C   UNL     1      -2.018  12.481  22.566  0.00  0.00    +0.000 A 
BRANCH  11  12
ATOM     12  N   UNL     1      -2.867  13.408  23.239  0.00  0.00    +0.000 N 
ATOM     13  C   UNL     1      -2.477  14.396  24.120  0.00  0.00    +0.000 A 
ATOM     14  C   UNL     1      -3.627  15.053  24.490  0.00  0.00    +0.000 A 
ATOM     15  N   UNL     1      -4.720  14.472  23.921  0.00  0.00    +0.000 NA
ATOM     16  C   UNL     1      -4.242  13.481  23.202  0.00  0.00    +0.000 A 
ENDBRANCH  11  12
ENDBRANCH   1   8
BRANCH   2  17
ATOM     17  C   UNL     1       1.853   8.364  19.131  0.00  0.00    +0.000 A 
ATOM     18  C   UNL     1       1.881   7.299  20.036  0.00  0.00    +0.000 A 
ATOM     19  C   UNL     1       2.588   6.135  19.736  0.00  0.00    +0.000 A 
ATOM     20  C   UNL     1       3.278   5.998  18.525  0.00  0.00    +0.000 A 
ATOM     21  C   UNL     1       3.222   7.060  17.611  0.00  0.00    +0.000 A 
ATOM     22  C   UNL     1       2.517   8.238  17.906  0.00  0.00    +0.000 A 
BRANCH  20  23
ATOM     23  N   UNL     1       3.942   4.807  18.172  0.00  0.00    +0.000 N 
ATOM     24  H   UNL     1       3.356   3.982  18.167  0.00  0.00    +0.000 HD
BRANCH  23  25
ATOM     25  C   UNL     1       5.221   4.636  17.608  0.00  0.00    +0.000 A 
ATOM     26  C   UNL     1       6.383   4.871  18.343  0.00  0.00    +0.000 A 
ATOM     27  C   UNL     1       7.613   4.766  17.717  0.00  0.00    +0.000 A 
ATOM     28  N   UNL     1       7.763   4.450  16.412  0.00  0.00    +0.000 NA
ATOM     29  C   UNL     1       6.630   4.231  15.713  0.00  0.00    +0.000 A 
ATOM     30  C   UNL     1       5.355   4.306  16.257  0.00  0.00    +0.000 A 
ENDBRANCH  23  25
ENDBRANCH  20  23
ENDBRANCH   2  17
TORSDOF 5
ENDMDL
MODEL 9
REMARK VINA RESULT:      -7.8      7.557     10.804
REMARK  Name = 
REMARK  6 active torsions:
REMARK  status: ('A' for Active; 'I' for Inactive)
REMARK    1  A    between atoms: C_1  and  C_2
REMARK    2  A    between atoms: C_4  and  N_5
REMARK    3  A    between atoms: C_6  and  C_8
REMARK    4  A    between atoms: C_11  and  N_12
REMARK    5  A    between atoms: N_12  and  C_13
REMARK    6  A    between atoms: C_23  and  N_24
REMARK                            x       y       z     vdW  Elec       q    Type
REMARK                         _______ _______ _______ _____ _____    ______ ____
ROOT
ATOM      1  N   UNL     1       1.055   9.055  19.797  0.00  0.00    +0.000 N 
ATOM      2  C   UNL     1       0.921   9.370  21.141  0.00  0.00    +0.000 C 
ATOM      3  O   UNL     1       1.556   8.887  22.072  0.00  0.00    +0.000 OA
ATOM      4  H   UNL     1       0.437   9.517  19.144  0.00  0.00    +0.000 HD
ENDROOT
BRANCH   1   8
ATOM      5  C   UNL     1       3.343   4.671  20.030  0.00  0.00    +0.000 C 
ATOM      6  C   UNL     1       3.087   5.924  19.234  0.00  0.00    +0.000 A 
ATOM      7  C   UNL     1       2.163   6.838  19.787  0.00  0.00    +0.000 A 
ATOM      8  C   UNL     1       1.943   8.104  19.241  0.00  0.00    +0.000 A 
ATOM      9  C   UNL     1       2.648   8.455  18.090  0.00  0.00    +0.000 A 
ATOM     10  C   UNL     1       3.553   7.559  17.503  0.00  0.00    +0.000 A 
ATOM     11  C   UNL     1       3.766   6.281  18.053  0.00  0.00    +0.000 A 
BRANCH  11  12
ATOM     12  N   UNL     1       4.668   5.401  17.386  0.00  0.00    +0.000 N 
ATOM     13  C   UNL     1       4.335   4.310  16.609  0.00  0.00    +0.000 A 
ATOM     14  C   UNL     1       5.524   3.787  16.157  0.00  0.00    +0.000 A 
ATOM     15  N   UNL     1       6.582   4.473  16.673  0.00  0.00    +0.000 NA
ATOM     16  C   UNL     1       6.045   5.411  17.421  0.00  0.00    +0.000 A 
ENDBRANCH  11  12
ENDBRANCH   1   8
BRANCH   2  17
ATOM     17  C   UNL     1      -0.130  10.371  21.482  0.00  0.00    +0.000 A 
ATOM     18  C   UNL     1      -0.660  11.125  20.430  0.00  0.00    +0.000 A 
ATOM     19  C   UNL     1      -1.645  12.082  20.673  0.00  0.00    +0.000 A 
ATOM     20  C   UNL     1      -2.134  12.307  21.965  0.00  0.00    +0.000 A 
ATOM     21  C   UNL     1      -1.617  11.528  23.010  0.00  0.00    +0.000 A 
ATOM     22  C   UNL     1      -0.622  10.565  22.777  0.00  0.00    +0.000 A 
BRANCH  20  23
ATOM     23  N   UNL     1      -3.176  13.219  22.223  0.00  0.00    +0.000 N 
ATOM     24  H   UNL     1      -2.952  14.185  22.023  0.00  0.00    +0.000 HD
BRANCH  23  25
ATOM     25  C   UNL     1      -4.535  12.963  22.491  0.00  0.00    +0.000 A 
ATOM     26  C   UNL     1      -5.036  12.953  23.792  0.00  0.00    +0.000 A 
ATOM     27  C   UNL     1      -6.362  12.616  24.005  0.00  0.00    +0.000 A 
ATOM     28  N   UNL     1      -7.217  12.282  23.013  0.00  0.00    +0.000 NA
ATOM     29  C   UNL     1      -6.716  12.290  21.760  0.00  0.00    +0.000 A 
ATOM     30  C   UNL     1      -5.404  12.623  21.451  0.00  0.00    +0.000 A 
ENDBRANCH  23  25
ENDBRANCH  20  23
ENDBRANCH   2  17
TORSDOF 5
ENDMDL
