MODEL 1
REMARK VINA RESULT:      -9.9      0.000      0.000
REMARK  Name = 
REMARK  6 active torsions:
REMARK  status: ('A' for Active; 'I' for Inactive)
REMARK    1  A    between atoms: C_2  and  C_3
REMARK    2  A    between atoms: C_3  and  O_4
REMARK    3  A    between atoms: O_4  and  C_5
REMARK    4  A    between atoms: N_15  and  C_16
REMARK    5  A    between atoms: C_20  and  S_21
REMARK    6  A    between atoms: S_21  and  N_24
REMARK                            x       y       z     vdW  Elec       q    Type
REMARK                         _______ _______ _______ _____ _____    ______ ____
ROOT
ATOM      1  O   UNL     1       8.216   6.939  18.823  0.00  0.00    +0.000 OA
ATOM      2  C   UNL     1       7.833   7.754  17.986  0.00  0.00    +0.000 C 
ATOM      3  N   UNL     1       6.954   7.490  16.940  0.00  0.00    +0.000 N 
ATOM      4  H   UNL     1       6.933   8.158  16.179  0.00  0.00    +0.000 HD
ENDROOT
BRANCH   3   5
ATOM      5  C   UNL     1       6.298   6.250  16.733  0.00  0.00    +0.000 A 
ATOM      6  C   UNL     1       6.866   5.225  15.967  0.00  0.00    +0.000 A 
ATOM      7  C   UNL     1       6.138   4.084  15.628  0.00  0.00    +0.000 A 
ATOM      8  C   UNL     1       4.853   3.917  16.121  0.00  0.00    +0.000 A 
ATOM      9  C   UNL     1       4.339   4.853  17.022  0.00  0.00    +0.000 A 
ATOM     10  C   UNL     1       5.038   6.038  17.306  0.00  0.00    +0.000 A 
BRANCH   9  11
ATOM     11  S   UNL     1       2.752   4.531  17.766  0.00  0.00    +0.000 S 
ATOM     12  O   UNL     1       2.095   5.809  17.945  0.00  0.00    +0.000 OA
ATOM     13  O   UNL     1       2.126   3.463  17.017  0.00  0.00    +0.000 OA
BRANCH  11  14
ATOM     14  N   UNL     1       3.147   3.928  19.303  0.00  0.00    +0.000 NA
ATOM     15  C   UNL     1       2.953   2.498  19.587  0.00  0.00    +0.000 C 
ATOM     16  C   UNL     1       1.795   2.468  20.566  0.00  0.00    +0.000 C 
ATOM     17  C   UNL     1       1.965   3.737  21.384  0.00  0.00    +0.000 C 
ATOM     18  C   UNL     1       2.753   4.701  20.500  0.00  0.00    +0.000 C 
ENDBRANCH  11  14
ENDBRANCH   9  11
ENDBRANCH   3   5
BRANCH   2  19
ATOM     19  C   UNL     1       8.305   9.203  18.077  0.00  0.00    +0.000 C 
BRANCH  19  20
ATOM     20  O   UNL     1       9.148   9.419  19.201  0.00  0.00    +0.000 OA
BRANCH  20  21
ATOM     21  C   UNL     1       9.661  10.686  19.331  0.00  0.00    +0.000 A 
ATOM     22  C   UNL     1       9.825  11.371  20.536  0.00  0.00    +0.000 A 
ATOM     23  C   UNL     1      10.356  12.663  20.552  0.00  0.00    +0.000 A 
ATOM     24  C   UNL     1      10.739  13.296  19.364  0.00  0.00    +0.000 A 
ATOM     25  C   UNL     1      11.275  14.595  19.370  0.00  0.00    +0.000 A 
ATOM     26  C   UNL     1      11.654  15.218  18.185  0.00  0.00    +0.000 A 
ATOM     27  C   UNL     1      11.509  14.547  16.977  0.00  0.00    +0.000 A 
ATOM     28  C   UNL     1      10.987  13.250  16.952  0.00  0.00    +0.000 A 
ATOM     29  C   UNL     1      10.596  12.607  18.139  0.00  0.00    +0.000 A 
ATOM     30  C   UNL     1      10.067  11.300  18.142  0.00  0.00    +0.000 A 
ENDBRANCH  20  21
ENDBRANCH  19  20
ENDBRANCH   2  19
TORSDOF 6
ENDMDL
MODEL 2
REMARK VINA RESULT:      -9.5      0.685      1.685
REMARK  Name = 
REMARK  6 active torsions:
REMARK  status: ('A' for Active; 'I' for Inactive)
REMARK    1  A    between atoms: C_2  and  C_3
REMARK    2  A    between atoms: C_3  and  O_4
REMARK    3  A    between atoms: O_4  and  C_5
REMARK    4  A    between atoms: N_15  and  C_16
REMARK    5  A    between atoms: C_20  and  S_21
REMARK    6  A    between atoms: S_21  and  N_24
REMARK                            x       y       z     vdW  Elec       q    Type
REMARK                         _______ _______ _______ _____ _____    ______ ____
ROOT
ATOM      1  O   UNL     1       8.291   7.003  18.767  0.00  0.00    +0.000 OA
ATOM      2  C   UNL     1       7.851   7.794  17.935  0.00  0.00    +0.000 C 
ATOM      3  N   UNL     1       6.922   7.494  16.943  0.00  0.00    +0.000 N 
ATOM      4  H   UNL     1       6.849   8.146  16.170  0.00  0.00    +0.000 HD
ENDROOT
BRANCH   3   5
ATOM      5  C   UNL     1       6.277   6.241  16.797  0.00  0.00    +0.000 A 
ATOM      6  C   UNL     1       6.869   5.172  16.112  0.00  0.00    +0.000 A 
ATOM      7  C   UNL     1       6.155   4.008  15.826  0.00  0.00    +0.000 A 
ATOM      8  C   UNL     1       4.857   3.866  16.292  0.00  0.00    +0.000 A 
ATOM      9  C   UNL     1       4.316   4.853  17.118  0.00  0.00    +0.000 A 
ATOM     10  C   UNL     1       5.002   6.058  17.347  0.00  0.00    +0.000 A 
BRANCH   9  11
ATOM     11  S   UNL     1       2.710   4.570  17.838  0.00  0.00    +0.000 S 
ATOM     12  O   UNL     1       2.082   5.864  18.008  0.00  0.00    +0.000 OA
ATOM     13  O   UNL     1       2.069   3.519  17.077  0.00  0.00    +0.000 OA
BRANCH  11  14
ATOM     14  N   UNL     1       3.066   3.956  19.380  0.00  0.00    +0.000 NA
ATOM     15  C   UNL     1       2.945   2.510  19.624  0.00  0.00    +0.000 C 
ATOM     16  C   UNL     1       1.745   2.388  20.543  0.00  0.00    +0.000 C 
ATOM     17  C   UNL     1       1.799   3.645  21.395  0.00  0.00    +0.000 C 
ATOM     18  C   UNL     1       2.569   4.676  20.572  0.00  0.00    +0.000 C 
ENDBRANCH  11  14
ENDBRANCH   9  11
ENDBRANCH   3   5
BRANCH   2  19
ATOM     19  C   UNL     1       8.303   9.252  17.971  0.00  0.00    +0.000 C 
BRANCH  19  20
ATOM     20  O   UNL     1       9.051   9.548  19.142  0.00  0.00    +0.000 OA
BRANCH  20  21
ATOM     21  C   UNL     1       9.603  10.804  19.200  0.00  0.00    +0.000 A 
ATOM     22  C   UNL     1      10.348  11.407  18.186  0.00  0.00    +0.000 A 
ATOM     23  C   UNL     1      10.867  12.693  18.353  0.00  0.00    +0.000 A 
ATOM     24  C   UNL     1      10.647  13.407  19.537  0.00  0.00    +0.000 A 
ATOM     25  C   UNL     1      11.164  14.701  19.714  0.00  0.00    +0.000 A 
ATOM     26  C   UNL     1      10.941  15.405  20.893  0.00  0.00    +0.000 A 
ATOM     27  C   UNL     1      10.191  14.827  21.910  0.00  0.00    +0.000 A 
ATOM     28  C   UNL     1       9.660  13.543  21.748  0.00  0.00    +0.000 A 
ATOM     29  C   UNL     1       9.878  12.817  20.565  0.00  0.00    +0.000 A 
ATOM     30  C   UNL     1       9.354  11.521  20.375  0.00  0.00    +0.000 A 
ENDBRANCH  20  21
ENDBRANCH  19  20
ENDBRANCH   2  19
TORSDOF 6
ENDMDL
MODEL 3
REMARK VINA RESULT:      -9.3      0.835      1.228
REMARK  Name = 
REMARK  6 active torsions:
REMARK  status: ('A' for Active; 'I' for Inactive)
REMARK    1  A    between atoms: C_2  and  C_3
REMARK    2  A    between atoms: C_3  and  O_4
REMARK    3  A    between atoms: O_4  and  C_5
REMARK    4  A    between atoms: N_15  and  C_16
REMARK    5  A    between atoms: C_20  and  S_21
REMARK    6  A    between atoms: S_21  and  N_24
REMARK                            x       y       z     vdW  Elec       q    Type
REMARK                         _______ _______ _______ _____ _____    ______ ____
ROOT
ATOM      1  O   UNL     1       8.099   6.706  18.690  0.00  0.00    +0.000 OA
ATOM      2  C   UNL     1       7.658   7.559  17.922  0.00  0.00    +0.000 C 
ATOM      3  N   UNL     1       6.617   7.375  17.016  0.00  0.00    +0.000 N 
ATOM      4  H   UNL     1       6.533   8.054  16.269  0.00  0.00    +0.000 HD
ENDROOT
BRANCH   3   5
ATOM      5  C   UNL     1       5.849   6.189  16.904  0.00  0.00    +0.000 A 
ATOM      6  C   UNL     1       6.277   5.091  16.147  0.00  0.00    +0.000 A 
ATOM      7  C   UNL     1       5.436   4.005  15.903  0.00  0.00    +0.000 A 
ATOM      8  C   UNL     1       4.177   3.967  16.483  0.00  0.00    +0.000 A 
ATOM      9  C   UNL     1       3.805   4.975  17.374  0.00  0.00    +0.000 A 
ATOM     10  C   UNL     1       4.617   6.106  17.564  0.00  0.00    +0.000 A 
BRANCH   9  11
ATOM     11  S   UNL     1       2.249   4.817  18.231  0.00  0.00    +0.000 S 
ATOM     12  O   UNL     1       2.134   5.952  19.123  0.00  0.00    +0.000 OA
ATOM     13  O   UNL     1       1.232   4.533  17.242  0.00  0.00    +0.000 OA
BRANCH  11  14
ATOM     14  N   UNL     1       2.457   3.425  19.181  0.00  0.00    +0.000 NA
ATOM     15  C   UNL     1       3.535   3.391  20.181  0.00  0.00    +0.000 C 
ATOM     16  C   UNL     1       4.529   2.392  19.620  0.00  0.00    +0.000 C 
ATOM     17  C   UNL     1       3.665   1.370  18.901  0.00  0.00    +0.000 C 
ATOM     18  C   UNL     1       2.373   2.097  18.536  0.00  0.00    +0.000 C 
ENDBRANCH  11  14
ENDBRANCH   9  11
ENDBRANCH   3   5
BRANCH   2  19
ATOM     19  C   UNL     1       8.243   8.969  17.947  0.00  0.00    +0.000 C 
BRANCH  19  20
ATOM     20  O   UNL     1       9.023   9.200  19.113  0.00  0.00    +0.000 OA
BRANCH  20  21
ATOM     21  C   UNL     1       9.488  10.482  19.279  0.00  0.00    +0.000 A 
ATOM     22  C   UNL     1       9.542  11.171  20.491  0.00  0.00    +0.000 A 
ATOM     23  C   UNL     1      10.033  12.478  20.544  0.00  0.00    +0.000 A 
ATOM     24  C   UNL     1      10.484  13.122  19.387  0.00  0.00    +0.000 A 
ATOM     25  C   UNL     1      10.979  14.436  19.431  0.00  0.00    +0.000 A 
ATOM     26  C   UNL     1      11.427  15.070  18.276  0.00  0.00    +0.000 A 
ATOM     27  C   UNL     1      11.391  14.396  17.061  0.00  0.00    +0.000 A 
ATOM     28  C   UNL     1      10.910  13.085  16.999  0.00  0.00    +0.000 A 
ATOM     29  C   UNL     1      10.452  12.430  18.156  0.00  0.00    +0.000 A 
ATOM     30  C   UNL     1       9.962  11.108  18.122  0.00  0.00    +0.000 A 
ENDBRANCH  20  21
ENDBRANCH  19  20
ENDBRANCH   2  19
TORSDOF 6
ENDMDL
MODEL 4
REMARK VINA RESULT:      -9.1      5.824      8.500
REMARK  Name = 
REMARK  6 active torsions:
REMARK  status: ('A' for Active; 'I' for Inactive)
REMARK    1  A    between atoms: C_2  and  C_3
REMARK    2  A    between atoms: C_3  and  O_4
REMARK    3  A    between atoms: O_4  and  C_5
REMARK    4  A    between atoms: N_15  and  C_16
REMARK    5  A    between atoms: C_20  and  S_21
REMARK    6  A    between atoms: S_21  and  N_24
REMARK                            x       y       z     vdW  Elec       q    Type
REMARK                         _______ _______ _______ _____ _____    ______ ____
ROOT
ATOM      1  O   UNL     1       2.185   7.617  19.770  0.00  0.00    +0.000 OA
ATOM      2  C   UNL     1       2.400   7.992  18.618  0.00  0.00    +0.000 C 
ATOM      3  N   UNL     1       3.241   7.363  17.705  0.00  0.00    +0.000 N 
ATOM      4  H   UNL     1       3.537   7.908  16.903  0.00  0.00    +0.000 HD
ENDROOT
BRANCH   3   5
ATOM      5  C   UNL     1       3.916   6.139  17.942  0.00  0.00    +0.000 A 
ATOM      6  C   UNL     1       5.301   6.076  18.137  0.00  0.00    +0.000 A 
ATOM      7  C   UNL     1       5.971   4.854  18.194  0.00  0.00    +0.000 A 
ATOM      8  C   UNL     1       5.250   3.671  18.135  0.00  0.00    +0.000 A 
ATOM      9  C   UNL     1       3.855   3.722  18.110  0.00  0.00    +0.000 A 
ATOM     10  C   UNL     1       3.180   4.948  17.977  0.00  0.00    +0.000 A 
BRANCH   9  11
ATOM     11  S   UNL     1       2.949   2.190  18.200  0.00  0.00    +0.000 S 
ATOM     12  O   UNL     1       1.946   2.222  17.156  0.00  0.00    +0.000 OA
ATOM     13  O   UNL     1       3.915   1.115  18.281  0.00  0.00    +0.000 OA
BRANCH  11  14
ATOM     14  N   UNL     1       2.149   2.287  19.695  0.00  0.00    +0.000 NA
ATOM     15  C   UNL     1       0.804   2.879  19.754  0.00  0.00    +0.000 C 
ATOM     16  C   UNL     1       1.007   4.189  20.490  0.00  0.00    +0.000 C 
ATOM     17  C   UNL     1       2.121   3.893  21.479  0.00  0.00    +0.000 C 
ATOM     18  C   UNL     1       2.907   2.725  20.887  0.00  0.00    +0.000 C 
ENDBRANCH  11  14
ENDBRANCH   9  11
ENDBRANCH   3   5
BRANCH   2  19
ATOM     19  C   UNL     1       1.681   9.228  18.083  0.00  0.00    +0.000 C 
BRANCH  19  20
ATOM     20  O   UNL     1       1.100   9.998  19.127  0.00  0.00    +0.000 OA
BRANCH  20  21
ATOM     21  C   UNL     1      -0.167  10.472  18.887  0.00  0.00    +0.000 A 
ATOM     22  C   UNL     1      -0.888  11.312  19.736  0.00  0.00    +0.000 A 
ATOM     23  C   UNL     1      -2.176  11.733  19.393  0.00  0.00    +0.000 A 
ATOM     24  C   UNL     1      -2.767  11.326  18.192  0.00  0.00    +0.000 A 
ATOM     25  C   UNL     1      -4.062  11.744  17.839  0.00  0.00    +0.000 A 
ATOM     26  C   UNL     1      -4.643  11.336  16.643  0.00  0.00    +0.000 A 
ATOM     27  C   UNL     1      -3.935  10.509  15.779  0.00  0.00    +0.000 A 
ATOM     28  C   UNL     1      -2.643  10.090  16.109  0.00  0.00    +0.000 A 
ATOM     29  C   UNL     1      -2.041  10.491  17.314  0.00  0.00    +0.000 A 
ATOM     30  C   UNL     1      -0.739  10.083  17.672  0.00  0.00    +0.000 A 
ENDBRANCH  20  21
ENDBRANCH  19  20
ENDBRANCH   2  19
TORSDOF 6
ENDMDL
MODEL 5
REMARK VINA RESULT:      -9.0      1.505      2.397
REMARK  Name = 
REMARK  6 active torsions:
REMARK  status: ('A' for Active; 'I' for Inactive)
REMARK    1  A    between atoms: C_2  and  C_3
REMARK    2  A    between atoms: C_3  and  O_4
REMARK    3  A    between atoms: O_4  and  C_5
REMARK    4  A    between atoms: N_15  and  C_16
REMARK    5  A    between atoms: C_20  and  S_21
REMARK    6  A    between atoms: S_21  and  N_24
REMARK                            x       y       z     vdW  Elec       q    Type
REMARK                         _______ _______ _______ _____ _____    ______ ____
ROOT
ATOM      1  O   UNL     1       8.200   6.855  18.670  0.00  0.00    +0.000 OA
ATOM      2  C   UNL     1       7.745   7.648  17.847  0.00  0.00    +0.000 C 
ATOM      3  N   UNL     1       6.890   7.326  16.798  0.00  0.00    +0.000 N 
ATOM      4  H   UNL     1       6.808   8.003  16.048  0.00  0.00    +0.000 HD
ENDROOT
BRANCH   3   5
ATOM      5  C   UNL     1       6.345   6.037  16.570  0.00  0.00    +0.000 A 
ATOM      6  C   UNL     1       6.453   5.389  15.333  0.00  0.00    +0.000 A 
ATOM      7  C   UNL     1       5.765   4.205  15.071  0.00  0.00    +0.000 A 
ATOM      8  C   UNL     1       5.019   3.607  16.075  0.00  0.00    +0.000 A 
ATOM      9  C   UNL     1       5.041   4.154  17.360  0.00  0.00    +0.000 A 
ATOM     10  C   UNL     1       5.670   5.386  17.609  0.00  0.00    +0.000 A 
BRANCH   9  11
ATOM     11  S   UNL     1       4.208   3.277  18.670  0.00  0.00    +0.000 S 
ATOM     12  O   UNL     1       3.709   2.039  18.107  0.00  0.00    +0.000 OA
ATOM     13  O   UNL     1       5.083   3.279  19.823  0.00  0.00    +0.000 OA
BRANCH  11  14
ATOM     14  N   UNL     1       2.873   4.264  19.025  0.00  0.00    +0.000 NA
ATOM     15  C   UNL     1       2.097   4.848  17.921  0.00  0.00    +0.000 C 
ATOM     16  C   UNL     1       2.412   6.329  17.989  0.00  0.00    +0.000 C 
ATOM     17  C   UNL     1       2.593   6.606  19.472  0.00  0.00    +0.000 C 
ATOM     18  C   UNL     1       2.993   5.272  20.100  0.00  0.00    +0.000 C 
ENDBRANCH  11  14
ENDBRANCH   9  11
ENDBRANCH   3   5
BRANCH   2  19
ATOM     19  C   UNL     1       8.089   9.131  17.963  0.00  0.00    +0.000 C 
BRANCH  19  20
ATOM     20  O   UNL     1       9.029   9.380  18.998  0.00  0.00    +0.000 OA
BRANCH  20  21
ATOM     21  C   UNL     1       9.530  10.657  19.059  0.00  0.00    +0.000 A 
ATOM     22  C   UNL     1      10.174  11.323  18.016  0.00  0.00    +0.000 A 
ATOM     23  C   UNL     1      10.648  12.626  18.189  0.00  0.00    +0.000 A 
ATOM     24  C   UNL     1      10.486  13.291  19.409  0.00  0.00    +0.000 A 
ATOM     25  C   UNL     1      10.960  14.602  19.593  0.00  0.00    +0.000 A 
ATOM     26  C   UNL     1      10.794  15.258  20.809  0.00  0.00    +0.000 A 
ATOM     27  C   UNL     1      10.145  14.615  21.856  0.00  0.00    +0.000 A 
ATOM     28  C   UNL     1       9.659  13.315  21.689  0.00  0.00    +0.000 A 
ATOM     29  C   UNL     1       9.820  12.637  20.469  0.00  0.00    +0.000 A 
ATOM     30  C   UNL     1       9.339  11.325  20.273  0.00  0.00    +0.000 A 
ENDBRANCH  20  21
ENDBRANCH  19  20
ENDBRANCH   2  19
TORSDOF 6
ENDMDL
MODEL 6
REMARK VINA RESULT:      -8.8      1.359      1.741
REMARK  Name = 
REMARK  6 active torsions:
REMARK  status: ('A' for Active; 'I' for Inactive)
REMARK    1  A    between atoms: C_2  and  C_3
REMARK    2  A    between atoms: C_3  and  O_4
REMARK    3  A    between atoms: O_4  and  C_5
REMARK    4  A    between atoms: N_15  and  C_16
REMARK    5  A    between atoms: C_20  and  S_21
REMARK    6  A    between atoms: S_21  and  N_24
REMARK                            x       y       z     vdW  Elec       q    Type
REMARK                         _______ _______ _______ _____ _____    ______ ____
ROOT
ATOM      1  O   UNL     1       8.250   7.023  18.471  0.00  0.00    +0.000 OA
ATOM      2  C   UNL     1       7.597   7.760  17.734  0.00  0.00    +0.000 C 
ATOM      3  N   UNL     1       6.678   7.341  16.777  0.00  0.00    +0.000 N 
ATOM      4  H   UNL     1       6.417   8.015  16.066  0.00  0.00    +0.000 HD
ENDROOT
BRANCH   3   5
ATOM      5  C   UNL     1       6.292   5.993  16.566  0.00  0.00    +0.000 A 
ATOM      6  C   UNL     1       6.622   5.298  15.396  0.00  0.00    +0.000 A 
ATOM      7  C   UNL     1       6.089   4.036  15.128  0.00  0.00    +0.000 A 
ATOM      8  C   UNL     1       5.279   3.418  16.068  0.00  0.00    +0.000 A 
ATOM      9  C   UNL     1       5.081   4.030  17.308  0.00  0.00    +0.000 A 
ATOM     10  C   UNL     1       5.552   5.331  17.553  0.00  0.00    +0.000 A 
BRANCH   9  11
ATOM     11  S   UNL     1       4.173   3.140  18.557  0.00  0.00    +0.000 S 
ATOM     12  O   UNL     1       3.598   1.973  17.920  0.00  0.00    +0.000 OA
ATOM     13  O   UNL     1       5.029   3.018  19.717  0.00  0.00    +0.000 OA
BRANCH  11  14
ATOM     14  N   UNL     1       2.903   4.195  18.954  0.00  0.00    +0.000 NA
ATOM     15  C   UNL     1       2.981   4.977  20.198  0.00  0.00    +0.000 C 
ATOM     16  C   UNL     1       1.913   4.368  21.086  0.00  0.00    +0.000 C 
ATOM     17  C   UNL     1       0.820   3.947  20.120  0.00  0.00    +0.000 C 
ATOM     18  C   UNL     1       1.508   3.741  18.772  0.00  0.00    +0.000 C 
ENDBRANCH  11  14
ENDBRANCH   9  11
ENDBRANCH   3   5
BRANCH   2  19
ATOM     19  C   UNL     1       7.744   9.274  17.863  0.00  0.00    +0.000 C 
BRANCH  19  20
ATOM     20  O   UNL     1       9.107   9.673  17.918  0.00  0.00    +0.000 OA
BRANCH  20  21
ATOM     21  C   UNL     1       9.395  10.708  18.773  0.00  0.00    +0.000 A 
ATOM     22  C   UNL     1       9.370  10.637  20.167  0.00  0.00    +0.000 A 
ATOM     23  C   UNL     1       9.678  11.757  20.942  0.00  0.00    +0.000 A 
ATOM     24  C   UNL     1      10.022  12.973  20.340  0.00  0.00    +0.000 A 
ATOM     25  C   UNL     1      10.334  14.105  21.112  0.00  0.00    +0.000 A 
ATOM     26  C   UNL     1      10.676  15.310  20.507  0.00  0.00    +0.000 A 
ATOM     27  C   UNL     1      10.718  15.398  19.120  0.00  0.00    +0.000 A 
ATOM     28  C   UNL     1      10.420  14.279  18.336  0.00  0.00    +0.000 A 
ATOM     29  C   UNL     1      10.070  13.055  18.931  0.00  0.00    +0.000 A 
ATOM     30  C   UNL     1       9.765  11.912  18.164  0.00  0.00    +0.000 A 
ENDBRANCH  20  21
ENDBRANCH  19  20
ENDBRANCH   2  19
TORSDOF 6
ENDMDL
MODEL 7
REMARK VINA RESULT:      -8.8      1.282      1.518
REMARK  Name = 
REMARK  6 active torsions:
REMARK  status: ('A' for Active; 'I' for Inactive)
REMARK    1  A    between atoms: C_2  and  C_3
REMARK    2  A    between atoms: C_3  and  O_4
REMARK    3  A    between atoms: O_4  and  C_5
REMARK    4  A    between atoms: N_15  and  C_16
REMARK    5  A    between atoms: C_20  and  S_21
REMARK    6  A    between atoms: S_21  and  N_24
REMARK                            x       y       z     vdW  Elec       q    Type
REMARK                         _______ _______ _______ _____ _____    ______ ____
ROOT
ATOM      1  O   UNL     1       6.983   8.089  16.721  0.00  0.00    +0.000 OA
ATOM      2  C   UNL     1       7.556   7.575  17.680  0.00  0.00    +0.000 C 
ATOM      3  N   UNL     1       7.453   6.242  18.067  0.00  0.00    +0.000 N 
ATOM      4  H   UNL     1       7.750   6.013  19.009  0.00  0.00    +0.000 HD
ENDROOT
BRANCH   3   5
ATOM      5  C   UNL     1       6.732   5.250  17.356  0.00  0.00    +0.000 A 
ATOM      6  C   UNL     1       7.142   4.787  16.099  0.00  0.00    +0.000 A 
ATOM      7  C   UNL     1       6.332   3.944  15.337  0.00  0.00    +0.000 A 
ATOM      8  C   UNL     1       5.132   3.488  15.859  0.00  0.00    +0.000 A 
ATOM      9  C   UNL     1       4.793   3.808  17.175  0.00  0.00    +0.000 A 
ATOM     10  C   UNL     1       5.567   4.716  17.918  0.00  0.00    +0.000 A 
BRANCH   9  11
ATOM     11  S   UNL     1       3.326   3.076  17.876  0.00  0.00    +0.000 S 
ATOM     12  O   UNL     1       2.210   3.468  17.041  0.00  0.00    +0.000 OA
ATOM     13  O   UNL     1       3.616   1.681  18.137  0.00  0.00    +0.000 OA
BRANCH  11  14
ATOM     14  N   UNL     1       3.162   3.863  19.371  0.00  0.00    +0.000 NA
ATOM     15  C   UNL     1       3.026   3.060  20.595  0.00  0.00    +0.000 C 
ATOM     16  C   UNL     1       1.592   3.288  21.031  0.00  0.00    +0.000 C 
ATOM     17  C   UNL     1       1.299   4.720  20.618  0.00  0.00    +0.000 C 
ATOM     18  C   UNL     1       2.260   5.030  19.472  0.00  0.00    +0.000 C 
ENDBRANCH  11  14
ENDBRANCH   9  11
ENDBRANCH   3   5
BRANCH   2  19
ATOM     19  C   UNL     1       8.500   8.419  18.533  0.00  0.00    +0.000 C 
BRANCH  19  20
ATOM     20  O   UNL     1       8.819   9.655  17.907  0.00  0.00    +0.000 OA
BRANCH  20  21
ATOM     21  C   UNL     1       9.215  10.667  18.747  0.00  0.00    +0.000 A 
ATOM     22  C   UNL     1       9.418  10.544  20.121  0.00  0.00    +0.000 A 
ATOM     23  C   UNL     1       9.819  11.645  20.882  0.00  0.00    +0.000 A 
ATOM     24  C   UNL     1      10.029  12.892  20.284  0.00  0.00    +0.000 A 
ATOM     25  C   UNL     1      10.432  14.005  21.042  0.00  0.00    +0.000 A 
ATOM     26  C   UNL     1      10.639  15.242  20.439  0.00  0.00    +0.000 A 
ATOM     27  C   UNL     1      10.453  15.382  19.069  0.00  0.00    +0.000 A 
ATOM     28  C   UNL     1      10.061  14.283  18.298  0.00  0.00    +0.000 A 
ATOM     29  C   UNL     1       9.845  13.028  18.890  0.00  0.00    +0.000 A 
ATOM     30  C   UNL     1       9.449  11.903  18.136  0.00  0.00    +0.000 A 
ENDBRANCH  20  21
ENDBRANCH  19  20
ENDBRANCH   2  19
TORSDOF 6
ENDMDL
MODEL 8
REMARK VINA RESULT:      -8.8      1.532      1.792
REMARK  Name = 
REMARK  6 active torsions:
REMARK  status: ('A' for Active; 'I' for Inactive)
REMARK    1  A    between atoms: C_2  and  C_3
REMARK    2  A    between atoms: C_3  and  O_4
REMARK    3  A    between atoms: O_4  and  C_5
REMARK    4  A    between atoms: N_15  and  C_16
REMARK    5  A    between atoms: C_20  and  S_21
REMARK    6  A    between atoms: S_21  and  N_24
REMARK                            x       y       z     vdW  Elec       q    Type
REMARK                         _______ _______ _______ _____ _____    ______ ____
ROOT
ATOM      1  O   UNL     1       6.816   8.334  16.954  0.00  0.00    +0.000 OA
ATOM      2  C   UNL     1       7.581   7.871  17.798  0.00  0.00    +0.000 C 
ATOM      3  N   UNL     1       7.654   6.535  18.181  0.00  0.00    +0.000 N 
ATOM      4  H   UNL     1       8.122   6.334  19.057  0.00  0.00    +0.000 HD
ENDROOT
BRANCH   3   5
ATOM      5  C   UNL     1       6.908   5.486  17.588  0.00  0.00    +0.000 A 
ATOM      6  C   UNL     1       7.022   5.164  16.230  0.00  0.00    +0.000 A 
ATOM      7  C   UNL     1       6.158   4.251  15.625  0.00  0.00    +0.000 A 
ATOM      8  C   UNL     1       5.216   3.585  16.393  0.00  0.00    +0.000 A 
ATOM      9  C   UNL     1       5.205   3.772  17.777  0.00  0.00    +0.000 A 
ATOM     10  C   UNL     1       6.021   4.745  18.378  0.00  0.00    +0.000 A 
BRANCH   9  11
ATOM     11  S   UNL     1       4.095   2.782  18.758  0.00  0.00    +0.000 S 
ATOM     12  O   UNL     1       3.686   1.658  17.941  0.00  0.00    +0.000 OA
ATOM     13  O   UNL     1       4.712   2.585  20.052  0.00  0.00    +0.000 OA
BRANCH  11  14
ATOM     14  N   UNL     1       2.745   3.789  18.972  0.00  0.00    +0.000 NA
ATOM     15  C   UNL     1       2.828   4.910  19.921  0.00  0.00    +0.000 C 
ATOM     16  C   UNL     1       1.914   4.501  21.059  0.00  0.00    +0.000 C 
ATOM     17  C   UNL     1       0.804   3.714  20.383  0.00  0.00    +0.000 C 
ATOM     18  C   UNL     1       1.404   3.178  19.085  0.00  0.00    +0.000 C 
ENDBRANCH  11  14
ENDBRANCH   9  11
ENDBRANCH   3   5
BRANCH   2  19
ATOM     19  C   UNL     1       8.582   8.793  18.492  0.00  0.00    +0.000 C 
BRANCH  19  20
ATOM     20  O   UNL     1       8.487  10.130  18.020  0.00  0.00    +0.000 OA
BRANCH  20  21
ATOM     21  C   UNL     1       9.379  11.022  18.565  0.00  0.00    +0.000 A 
ATOM     22  C   UNL     1      10.024  10.872  19.793  0.00  0.00    +0.000 A 
ATOM     23  C   UNL     1      10.913  11.846  20.253  0.00  0.00    +0.000 A 
ATOM     24  C   UNL     1      11.179  12.990  19.493  0.00  0.00    +0.000 A 
ATOM     25  C   UNL     1      12.072  13.976  19.948  0.00  0.00    +0.000 A 
ATOM     26  C   UNL     1      12.333  15.110  19.186  0.00  0.00    +0.000 A 
ATOM     27  C   UNL     1      11.709  15.272  17.954  0.00  0.00    +0.000 A 
ATOM     28  C   UNL     1      10.825  14.298  17.481  0.00  0.00    +0.000 A 
ATOM     29  C   UNL     1      10.548  13.147  18.239  0.00  0.00    +0.000 A 
ATOM     30  C   UNL     1       9.661  12.149  17.786  0.00  0.00    +0.000 A 
ENDBRANCH  20  21
ENDBRANCH  19  20
ENDBRANCH   2  19
TORSDOF 6
ENDMDL
MODEL 9
REMARK VINA RESULT:      -8.8      1.413      2.237
REMARK  Name = 
REMARK  6 active torsions:
REMARK  status: ('A' for Active; 'I' for Inactive)
REMARK    1  A    between atoms: C_2  and  C_3
REMARK    2  A    between atoms: C_3  and  O_4
REMARK    3  A    between atoms: O_4  and  C_5
REMARK    4  A    between atoms: N_15  and  C_16
REMARK    5  A    between atoms: C_20  and  S_21
REMARK    6  A    between atoms: S_21  and  N_24
REMARK                            x       y       z     vdW  Elec       q    Type
REMARK                         _______ _______ _______ _____ _____    ______ ____
ROOT
ATOM      1  O   UNL     1       8.436   7.005  18.561  0.00  0.00    +0.000 OA
ATOM      2  C   UNL     1       7.839   7.888  17.946  0.00  0.00    +0.000 C 
ATOM      3  N   UNL     1       6.800   7.685  17.043  0.00  0.00    +0.000 N 
ATOM      4  H   UNL     1       6.582   8.450  16.415  0.00  0.00    +0.000 HD
ENDROOT
BRANCH   3   5
ATOM      5  C   UNL     1       6.214   6.426  16.759  0.00  0.00    +0.000 A 
ATOM      6  C   UNL     1       6.148   5.910  15.458  0.00  0.00    +0.000 A 
ATOM      7  C   UNL     1       5.417   4.757  15.171  0.00  0.00    +0.000 A 
ATOM      8  C   UNL     1       4.805   4.057  16.199  0.00  0.00    +0.000 A 
ATOM      9  C   UNL     1       5.004   4.468  17.519  0.00  0.00    +0.000 A 
ATOM     10  C   UNL     1       5.675   5.669  17.806  0.00  0.00    +0.000 A 
BRANCH   9  11
ATOM     11  S   UNL     1       4.343   3.458  18.830  0.00  0.00    +0.000 S 
ATOM     12  O   UNL     1       3.953   2.193  18.243  0.00  0.00    +0.000 OA
ATOM     13  O   UNL     1       5.273   3.517  19.939  0.00  0.00    +0.000 OA
BRANCH  11  14
ATOM     14  N   UNL     1       2.929   4.278  19.291  0.00  0.00    +0.000 NA
ATOM     15  C   UNL     1       2.675   4.526  20.718  0.00  0.00    +0.000 C 
ATOM     16  C   UNL     1       1.505   3.621  21.049  0.00  0.00    +0.000 C 
ATOM     17  C   UNL     1       0.679   3.596  19.775  0.00  0.00    +0.000 C 
ATOM     18  C   UNL     1       1.650   3.922  18.641  0.00  0.00    +0.000 C 
ENDBRANCH  11  14
ENDBRANCH   9  11
ENDBRANCH   3   5
BRANCH   2  19
ATOM     19  C   UNL     1       8.207   9.350  18.184  0.00  0.00    +0.000 C 
BRANCH  19  20
ATOM     20  O   UNL     1       9.202   9.491  19.189  0.00  0.00    +0.000 OA
BRANCH  20  21
ATOM     21  C   UNL     1       9.767  10.738  19.301  0.00  0.00    +0.000 A 
ATOM     22  C   UNL     1      10.684  11.293  18.408  0.00  0.00    +0.000 A 
ATOM     23  C   UNL     1      11.200  12.574  18.622  0.00  0.00    +0.000 A 
ATOM     24  C   UNL     1      10.806  13.329  19.732  0.00  0.00    +0.000 A 
ATOM     25  C   UNL     1      11.319  14.618  19.955  0.00  0.00    +0.000 A 
ATOM     26  C   UNL     1      10.922  15.364  21.061  0.00  0.00    +0.000 A 
ATOM     27  C   UNL     1      10.000  14.833  21.956  0.00  0.00    +0.000 A 
ATOM     28  C   UNL     1       9.472  13.555  21.745  0.00  0.00    +0.000 A 
ATOM     29  C   UNL     1       9.864  12.788  20.635  0.00  0.00    +0.000 A 
ATOM     30  C   UNL     1       9.347  11.497  20.398  0.00  0.00    +0.000 A 
ENDBRANCH  20  21
ENDBRANCH  19  20
ENDBRANCH   2  19
TORSDOF 6
ENDMDL
