MODEL 1
REMARK VINA RESULT:      -7.8      0.000      0.000
REMARK  Name = 
REMARK  2 active torsions:
REMARK  status: ('A' for Active; 'I' for Inactive)
REMARK    1  A    between atoms: C_8  and  C_9
REMARK    2  A    between atoms: C_16  and  C_17
REMARK                            x       y       z     vdW  Elec       q    Type
REMARK                         _______ _______ _______ _____ _____    ______ ____
ROOT
ATOM      1  C   UNL     1       4.879   3.691  18.978  0.00  0.00    +0.000 C 
ATOM      2  O   UNL     1       5.583   3.092  19.790  0.00  0.00    +0.000 OA
ATOM      3  N   UNL     1       3.504   3.894  19.200  0.00  0.00    +0.000 N 
ATOM      4  C   UNL     1       2.984   3.506  20.520  0.00  0.00    +0.000 C 
ATOM      5  C   UNL     1       1.598   2.861  20.465  0.00  0.00    +0.000 C 
ATOM      6  C   UNL     1       0.607   3.617  19.592  0.00  0.00    +0.000 C 
ATOM      7  C   UNL     1       1.223   3.972  18.245  0.00  0.00    +0.000 C 
ATOM      8  C   UNL     1       2.576   4.686  18.375  0.00  0.00    +0.000 C 
ENDROOT
BRANCH   1  16
ATOM      9  O   UNL     1       6.102   2.756  12.032  0.00  0.00    +0.000 OA
ATOM     10  C   UNL     1       6.263   3.543  12.967  0.00  0.00    +0.000 C 
ATOM     11  C   UNL     1       6.729   4.964  12.736  0.00  0.00    +0.000 C 
ATOM     12  S   UNL     1       7.870   5.542  14.008  0.00  0.00    +0.000 S 
ATOM     13  C   UNL     1       6.912   5.053  15.424  0.00  0.00    +0.000 A 
ATOM     14  C   UNL     1       7.027   5.796  16.601  0.00  0.00    +0.000 A 
ATOM     15  C   UNL     1       6.305   5.429  17.740  0.00  0.00    +0.000 A 
ATOM     16  C   UNL     1       5.585   4.232  17.771  0.00  0.00    +0.000 A 
ATOM     17  C   UNL     1       5.442   3.510  16.575  0.00  0.00    +0.000 A 
ATOM     18  C   UNL     1       6.077   3.930  15.402  0.00  0.00    +0.000 A 
ATOM     19  N   UNL     1       5.877   3.180  14.230  0.00  0.00    +0.000 N 
ATOM     20  H   UNL     1       5.412   2.282  14.289  0.00  0.00    +0.000 HD
ENDBRANCH   1  16
BRANCH   8  21
ATOM     21  C   UNL     1       2.432   6.126  18.825  0.00  0.00    +0.000 A 
ATOM     22  N   UNL     1       2.076   6.528  20.028  0.00  0.00    +0.000 NA
ATOM     23  C   UNL     1       1.724   7.870  19.996  0.00  0.00    +0.000 A 
ATOM     24  C   UNL     1       1.187   8.610  21.068  0.00  0.00    +0.000 A 
ATOM     25  C   UNL     1       0.797   9.939  20.868  0.00  0.00    +0.000 A 
ATOM     26  C   UNL     1       0.954  10.542  19.624  0.00  0.00    +0.000 A 
ATOM     27  C   UNL     1       1.515   9.839  18.554  0.00  0.00    +0.000 A 
ATOM     28  C   UNL     1       1.887   8.501  18.763  0.00  0.00    +0.000 A 
ATOM     29  S   UNL     1       2.559   7.381  17.647  0.00  0.00    +0.000 S 
ENDBRANCH   8  21
TORSDOF 2
ENDMDL
MODEL 2
REMARK VINA RESULT:      -7.5      4.016      6.706
REMARK  Name = 
REMARK  2 active torsions:
REMARK  status: ('A' for Active; 'I' for Inactive)
REMARK    1  A    between atoms: C_8  and  C_9
REMARK    2  A    between atoms: C_16  and  C_17
REMARK                            x       y       z     vdW  Elec       q    Type
REMARK                         _______ _______ _______ _____ _____    ______ ____
ROOT
ATOM      1  C   UNL     1       2.640   8.978  18.201  0.00  0.00    +0.000 C 
ATOM      2  O   UNL     1       3.480   8.920  17.304  0.00  0.00    +0.000 OA
ATOM      3  N   UNL     1       2.007  10.187  18.542  0.00  0.00    +0.000 N 
ATOM      4  C   UNL     1       2.272  11.341  17.669  0.00  0.00    +0.000 C 
ATOM      5  C   UNL     1       2.420  12.661  18.428  0.00  0.00    +0.000 C 
ATOM      6  C   UNL     1       1.333  12.891  19.470  0.00  0.00    +0.000 C 
ATOM      7  C   UNL     1       1.131  11.653  20.333  0.00  0.00    +0.000 C 
ATOM      8  C   UNL     1       0.910  10.377  19.507  0.00  0.00    +0.000 C 
ENDROOT
BRANCH   1  16
ATOM      9  O   UNL     1       2.529   1.903  17.456  0.00  0.00    +0.000 OA
ATOM     10  C   UNL     1       2.374   2.814  18.273  0.00  0.00    +0.000 C 
ATOM     11  C   UNL     1       2.274   2.540  19.758  0.00  0.00    +0.000 C 
ATOM     12  S   UNL     1       1.072   3.600  20.585  0.00  0.00    +0.000 S 
ATOM     13  C   UNL     1       1.628   5.152  19.921  0.00  0.00    +0.000 A 
ATOM     14  C   UNL     1       1.464   6.308  20.687  0.00  0.00    +0.000 A 
ATOM     15  C   UNL     1       1.870   7.549  20.189  0.00  0.00    +0.000 A 
ATOM     16  C   UNL     1       2.299   7.678  18.865  0.00  0.00    +0.000 A 
ATOM     17  C   UNL     1       2.498   6.510  18.112  0.00  0.00    +0.000 A 
ATOM     18  C   UNL     1       2.192   5.252  18.644  0.00  0.00    +0.000 A 
ATOM     19  N   UNL     1       2.436   4.117  17.852  0.00  0.00    +0.000 N 
ATOM     20  H   UNL     1       2.679   4.235  16.876  0.00  0.00    +0.000 HD
ENDBRANCH   1  16
BRANCH   8  21
ATOM     21  C   UNL     1      -0.470  10.318  18.885  0.00  0.00    +0.000 A 
ATOM     22  N   UNL     1      -0.775   9.761  17.732  0.00  0.00    +0.000 NA
ATOM     23  C   UNL     1      -2.033  10.177  17.320  0.00  0.00    +0.000 A 
ATOM     24  C   UNL     1      -2.641   9.876  16.084  0.00  0.00    +0.000 A 
ATOM     25  C   UNL     1      -3.884  10.437  15.767  0.00  0.00    +0.000 A 
ATOM     26  C   UNL     1      -4.533  11.273  16.670  0.00  0.00    +0.000 A 
ATOM     27  C   UNL     1      -3.965  11.560  17.915  0.00  0.00    +0.000 A 
ATOM     28  C   UNL     1      -2.711  11.005  18.214  0.00  0.00    +0.000 A 
ATOM     29  S   UNL     1      -1.754  11.201  19.628  0.00  0.00    +0.000 S 
ENDBRANCH   8  21
TORSDOF 2
ENDMDL
MODEL 3
REMARK VINA RESULT:      -7.4      8.233     10.746
REMARK  Name = 
REMARK  2 active torsions:
REMARK  status: ('A' for Active; 'I' for Inactive)
REMARK    1  A    between atoms: C_8  and  C_9
REMARK    2  A    between atoms: C_16  and  C_17
REMARK                            x       y       z     vdW  Elec       q    Type
REMARK                         _______ _______ _______ _____ _____    ______ ____
ROOT
ATOM      1  C   UNL     1      -0.266  13.237  22.231  0.00  0.00    +0.000 C 
ATOM      2  O   UNL     1      -0.738  13.714  23.262  0.00  0.00    +0.000 OA
ATOM      3  N   UNL     1      -0.289  11.853  21.979  0.00  0.00    +0.000 N 
ATOM      4  C   UNL     1      -1.051  11.022  22.924  0.00  0.00    +0.000 C 
ATOM      5  C   UNL     1      -0.384   9.682  23.236  0.00  0.00    +0.000 C 
ATOM      6  C   UNL     1       0.109   8.943  21.999  0.00  0.00    +0.000 C 
ATOM      7  C   UNL     1       0.893   9.873  21.082  0.00  0.00    +0.000 C 
ATOM      8  C   UNL     1       0.133  11.165  20.747  0.00  0.00    +0.000 C 
ENDROOT
BRANCH   1  16
ATOM      9  O   UNL     1      -1.883  18.525  17.755  0.00  0.00    +0.000 OA
ATOM     10  C   UNL     1      -0.941  17.925  18.277  0.00  0.00    +0.000 C 
ATOM     11  C   UNL     1       0.476  18.450  18.195  0.00  0.00    +0.000 C 
ATOM     12  S   UNL     1       1.696  17.137  17.988  0.00  0.00    +0.000 S 
ATOM     13  C   UNL     1       1.129  16.077  19.296  0.00  0.00    +0.000 A 
ATOM     14  C   UNL     1       2.056  15.268  19.955  0.00  0.00    +0.000 A 
ATOM     15  C   UNL     1       1.643  14.406  20.975  0.00  0.00    +0.000 A 
ATOM     16  C   UNL     1       0.285  14.223  21.245  0.00  0.00    +0.000 A 
ATOM     17  C   UNL     1      -0.641  15.065  20.607  0.00  0.00    +0.000 A 
ATOM     18  C   UNL     1      -0.221  16.006  19.659  0.00  0.00    +0.000 A 
ATOM     19  N   UNL     1      -1.190  16.838  19.073  0.00  0.00    +0.000 N 
ATOM     20  H   UNL     1      -2.172  16.643  19.228  0.00  0.00    +0.000 HD
ENDBRANCH   1  16
BRANCH   8  21
ATOM     21  C   UNL     1      -0.991  10.937  19.757  0.00  0.00    +0.000 A 
ATOM     22  N   UNL     1      -0.927  10.195  18.671  0.00  0.00    +0.000 NA
ATOM     23  C   UNL     1      -2.001  10.476  17.839  0.00  0.00    +0.000 A 
ATOM     24  C   UNL     1      -2.201   9.958  16.542  0.00  0.00    +0.000 A 
ATOM     25  C   UNL     1      -3.290  10.396  15.780  0.00  0.00    +0.000 A 
ATOM     26  C   UNL     1      -4.189  11.323  16.299  0.00  0.00    +0.000 A 
ATOM     27  C   UNL     1      -4.030  11.826  17.594  0.00  0.00    +0.000 A 
ATOM     28  C   UNL     1      -2.924  11.391  18.342  0.00  0.00    +0.000 A 
ATOM     29  S   UNL     1      -2.445  11.852  19.926  0.00  0.00    +0.000 S 
ENDBRANCH   8  21
TORSDOF 2
ENDMDL
MODEL 4
REMARK VINA RESULT:      -7.4      7.763      9.631
REMARK  Name = 
REMARK  2 active torsions:
REMARK  status: ('A' for Active; 'I' for Inactive)
REMARK    1  A    between atoms: C_8  and  C_9
REMARK    2  A    between atoms: C_16  and  C_17
REMARK                            x       y       z     vdW  Elec       q    Type
REMARK                         _______ _______ _______ _____ _____    ______ ____
ROOT
ATOM      1  C   UNL     1       0.027  13.099  21.946  0.00  0.00    +0.000 C 
ATOM      2  O   UNL     1      -0.354  13.622  22.993  0.00  0.00    +0.000 OA
ATOM      3  N   UNL     1      -0.086  11.714  21.729  0.00  0.00    +0.000 N 
ATOM      4  C   UNL     1      -0.830  10.945  22.739  0.00  0.00    +0.000 C 
ATOM      5  C   UNL     1      -0.217   9.577  23.039  0.00  0.00    +0.000 C 
ATOM      6  C   UNL     1       0.157   8.788  21.792  0.00  0.00    +0.000 C 
ATOM      7  C   UNL     1       0.929   9.654  20.807  0.00  0.00    +0.000 C 
ATOM      8  C   UNL     1       0.219  10.979  20.489  0.00  0.00    +0.000 C 
ENDROOT
BRANCH   1  16
ATOM      9  O   UNL     1       5.656  14.699  17.900  0.00  0.00    +0.000 OA
ATOM     10  C   UNL     1       4.468  14.967  18.092  0.00  0.00    +0.000 C 
ATOM     11  C   UNL     1       3.675  15.804  17.111  0.00  0.00    +0.000 C 
ATOM     12  S   UNL     1       2.522  16.929  17.924  0.00  0.00    +0.000 S 
ATOM     13  C   UNL     1       1.770  15.747  19.018  0.00  0.00    +0.000 A 
ATOM     14  C   UNL     1       0.441  15.935  19.401  0.00  0.00    +0.000 A 
ATOM     15  C   UNL     1      -0.176  15.038  20.276  0.00  0.00    +0.000 A 
ATOM     16  C   UNL     1       0.565  14.033  20.904  0.00  0.00    +0.000 A 
ATOM     17  C   UNL     1       1.890  13.824  20.488  0.00  0.00    +0.000 A 
ATOM     18  C   UNL     1       2.482  14.656  19.532  0.00  0.00    +0.000 A 
ATOM     19  N   UNL     1       3.803  14.382  19.137  0.00  0.00    +0.000 N 
ATOM     20  H   UNL     1       4.343  13.697  19.651  0.00  0.00    +0.000 HD
ENDBRANCH   1  16
BRANCH   8  21
ATOM     21  C   UNL     1      -0.976  10.793  19.577  0.00  0.00    +0.000 A 
ATOM     22  N   UNL     1      -1.033   9.995  18.530  0.00  0.00    +0.000 NA
ATOM     23  C   UNL     1      -2.130  10.319  17.745  0.00  0.00    +0.000 A 
ATOM     24  C   UNL     1      -2.446   9.755  16.492  0.00  0.00    +0.000 A 
ATOM     25  C   UNL     1      -3.541  10.240  15.768  0.00  0.00    +0.000 A 
ATOM     26  C   UNL     1      -4.333  11.261  16.285  0.00  0.00    +0.000 A 
ATOM     27  C   UNL     1      -4.059  11.813  17.539  0.00  0.00    +0.000 A 
ATOM     28  C   UNL     1      -2.948  11.329  18.248  0.00  0.00    +0.000 A 
ATOM     29  S   UNL     1      -2.342  11.828  19.776  0.00  0.00    +0.000 S 
ENDBRANCH   8  21
TORSDOF 2
ENDMDL
MODEL 5
REMARK VINA RESULT:      -7.3      3.857      7.049
REMARK  Name = 
REMARK  2 active torsions:
REMARK  status: ('A' for Active; 'I' for Inactive)
REMARK    1  A    between atoms: C_8  and  C_9
REMARK    2  A    between atoms: C_16  and  C_17
REMARK                            x       y       z     vdW  Elec       q    Type
REMARK                         _______ _______ _______ _____ _____    ______ ____
ROOT
ATOM      1  C   UNL     1       0.455   9.453  20.876  0.00  0.00    +0.000 C 
ATOM      2  O   UNL     1       0.167   8.843  21.905  0.00  0.00    +0.000 OA
ATOM      3  N   UNL     1       0.036  10.779  20.661  0.00  0.00    +0.000 N 
ATOM      4  C   UNL     1      -0.617  11.457  21.791  0.00  0.00    +0.000 C 
ATOM      5  C   UNL     1      -1.789  12.348  21.375  0.00  0.00    +0.000 C 
ATOM      6  C   UNL     1      -1.478  13.250  20.189  0.00  0.00    +0.000 C 
ATOM      7  C   UNL     1      -0.813  12.468  19.065  0.00  0.00    +0.000 C 
ATOM      8  C   UNL     1       0.403  11.657  19.537  0.00  0.00    +0.000 C 
ENDROOT
BRANCH   1  16
ATOM      9  O   UNL     1       4.364   3.606  19.801  0.00  0.00    +0.000 OA
ATOM     10  C   UNL     1       3.891   4.597  19.239  0.00  0.00    +0.000 C 
ATOM     11  C   UNL     1       3.889   4.728  17.731  0.00  0.00    +0.000 C 
ATOM     12  S   UNL     1       4.214   6.414  17.175  0.00  0.00    +0.000 S 
ATOM     13  C   UNL     1       3.038   7.239  18.222  0.00  0.00    +0.000 A 
ATOM     14  C   UNL     1       2.453   8.424  17.771  0.00  0.00    +0.000 A 
ATOM     15  C   UNL     1       1.540   9.111  18.576  0.00  0.00    +0.000 A 
ATOM     16  C   UNL     1       1.318   8.715  19.897  0.00  0.00    +0.000 A 
ATOM     17  C   UNL     1       1.879   7.504  20.333  0.00  0.00    +0.000 A 
ATOM     18  C   UNL     1       2.711   6.755  19.494  0.00  0.00    +0.000 A 
ATOM     19  N   UNL     1       3.223   5.538  19.977  0.00  0.00    +0.000 N 
ATOM     20  H   UNL     1       3.108   5.304  20.955  0.00  0.00    +0.000 HD
ENDBRANCH   1  16
BRANCH   8  21
ATOM     21  C   UNL     1       1.612  12.529  19.810  0.00  0.00    +0.000 A 
ATOM     22  N   UNL     1       2.016  12.941  20.994  0.00  0.00    +0.000 NA
ATOM     23  C   UNL     1       2.932  13.973  20.851  0.00  0.00    +0.000 A 
ATOM     24  C   UNL     1       3.492  14.734  21.897  0.00  0.00    +0.000 A 
ATOM     25  C   UNL     1       4.342  15.805  21.600  0.00  0.00    +0.000 A 
ATOM     26  C   UNL     1       4.654  16.114  20.279  0.00  0.00    +0.000 A 
ATOM     27  C   UNL     1       4.137  15.354  19.226  0.00  0.00    +0.000 A 
ATOM     28  C   UNL     1       3.273  14.292  19.537  0.00  0.00    +0.000 A 
ATOM     29  S   UNL     1       2.460  13.215  18.473  0.00  0.00    +0.000 S 
ENDBRANCH   8  21
TORSDOF 2
ENDMDL
MODEL 6
REMARK VINA RESULT:      -7.2      9.496     13.114
REMARK  Name = 
REMARK  2 active torsions:
REMARK  status: ('A' for Active; 'I' for Inactive)
REMARK    1  A    between atoms: C_8  and  C_9
REMARK    2  A    between atoms: C_16  and  C_17
REMARK                            x       y       z     vdW  Elec       q    Type
REMARK                         _______ _______ _______ _____ _____    ______ ____
ROOT
ATOM      1  C   UNL     1      -5.910  12.082  17.655  0.00  0.00    +0.000 C 
ATOM      2  O   UNL     1      -6.623  12.632  16.816  0.00  0.00    +0.000 OA
ATOM      3  N   UNL     1      -4.686  11.483  17.306  0.00  0.00    +0.000 N 
ATOM      4  C   UNL     1      -4.218  11.690  15.926  0.00  0.00    +0.000 C 
ATOM      5  C   UNL     1      -3.560  10.453  15.313  0.00  0.00    +0.000 C 
ATOM      6  C   UNL     1      -2.547   9.782  16.230  0.00  0.00    +0.000 C 
ATOM      7  C   UNL     1      -3.114   9.600  17.631  0.00  0.00    +0.000 C 
ATOM      8  C   UNL     1      -3.689  10.897  18.219  0.00  0.00    +0.000 C 
ENDROOT
BRANCH   1  16
ATOM      9  O   UNL     1      -6.379  16.099  23.508  0.00  0.00    +0.000 OA
ATOM     10  C   UNL     1      -6.759  15.040  23.002  0.00  0.00    +0.000 C 
ATOM     11  C   UNL     1      -7.866  14.217  23.623  0.00  0.00    +0.000 C 
ATOM     12  S   UNL     1      -7.569  12.441  23.501  0.00  0.00    +0.000 S 
ATOM     13  C   UNL     1      -7.174  12.386  21.769  0.00  0.00    +0.000 A 
ATOM     14  C   UNL     1      -7.471  11.227  21.050  0.00  0.00    +0.000 A 
ATOM     15  C   UNL     1      -7.156  11.139  19.691  0.00  0.00    +0.000 A 
ATOM     16  C   UNL     1      -6.402  12.138  19.070  0.00  0.00    +0.000 A 
ATOM     17  C   UNL     1      -6.139  13.317  19.786  0.00  0.00    +0.000 A 
ATOM     18  C   UNL     1      -6.545  13.453  21.118  0.00  0.00    +0.000 A 
ATOM     19  N   UNL     1      -6.276  14.665  21.776  0.00  0.00    +0.000 N 
ATOM     20  H   UNL     1      -5.670  15.347  21.334  0.00  0.00    +0.000 HD
ENDBRANCH   1  16
BRANCH   8  21
ATOM     21  C   UNL     1      -2.609  11.868  18.650  0.00  0.00    +0.000 A 
ATOM     22  N   UNL     1      -1.520  12.166  17.971  0.00  0.00    +0.000 NA
ATOM     23  C   UNL     1      -0.609  12.813  18.793  0.00  0.00    +0.000 A 
ATOM     24  C   UNL     1       0.706  13.180  18.443  0.00  0.00    +0.000 A 
ATOM     25  C   UNL     1       1.547  13.754  19.404  0.00  0.00    +0.000 A 
ATOM     26  C   UNL     1       1.087  13.984  20.697  0.00  0.00    +0.000 A 
ATOM     27  C   UNL     1      -0.223  13.659  21.059  0.00  0.00    +0.000 A 
ATOM     28  C   UNL     1      -1.051  13.069  20.090  0.00  0.00    +0.000 A 
ATOM     29  S   UNL     1      -2.675  12.530  20.243  0.00  0.00    +0.000 S 
ENDBRANCH   8  21
TORSDOF 2
ENDMDL
MODEL 7
REMARK VINA RESULT:      -7.2      7.178     11.587
REMARK  Name = 
REMARK  2 active torsions:
REMARK  status: ('A' for Active; 'I' for Inactive)
REMARK    1  A    between atoms: C_8  and  C_9
REMARK    2  A    between atoms: C_16  and  C_17
REMARK                            x       y       z     vdW  Elec       q    Type
REMARK                         _______ _______ _______ _____ _____    ______ ____
ROOT
ATOM      1  C   UNL     1      -0.822  10.790  22.492  0.00  0.00    +0.000 C 
ATOM      2  O   UNL     1      -0.967  10.050  23.464  0.00  0.00    +0.000 OA
ATOM      3  N   UNL     1      -0.237  10.334  21.297  0.00  0.00    +0.000 N 
ATOM      4  C   UNL     1       0.041   8.892  21.206  0.00  0.00    +0.000 C 
ATOM      5  C   UNL     1       1.359   8.567  20.502  0.00  0.00    +0.000 C 
ATOM      6  C   UNL     1       1.564   9.334  19.203  0.00  0.00    +0.000 C 
ATOM      7  C   UNL     1       1.264  10.815  19.390  0.00  0.00    +0.000 C 
ATOM      8  C   UNL     1      -0.108  11.073  20.029  0.00  0.00    +0.000 C 
ENDROOT
BRANCH   1  16
ATOM      9  O   UNL     1      -6.594  14.705  23.897  0.00  0.00    +0.000 OA
ATOM     10  C   UNL     1      -5.373  14.767  23.733  0.00  0.00    +0.000 C 
ATOM     11  C   UNL     1      -4.590  16.018  24.067  0.00  0.00    +0.000 C 
ATOM     12  S   UNL     1      -3.268  16.351  22.886  0.00  0.00    +0.000 S 
ATOM     13  C   UNL     1      -2.544  14.728  22.876  0.00  0.00    +0.000 A 
ATOM     14  C   UNL     1      -1.175  14.604  22.632  0.00  0.00    +0.000 A 
ATOM     15  C   UNL     1      -0.575  13.343  22.596  0.00  0.00    +0.000 A 
ATOM     16  C   UNL     1      -1.354  12.183  22.644  0.00  0.00    +0.000 A 
ATOM     17  C   UNL     1      -2.723  12.312  22.927  0.00  0.00    +0.000 A 
ATOM     18  C   UNL     1      -3.311  13.574  23.070  0.00  0.00    +0.000 A 
ATOM     19  N   UNL     1      -4.681  13.639  23.377  0.00  0.00    +0.000 N 
ATOM     20  H   UNL     1      -5.240  12.795  23.339  0.00  0.00    +0.000 HD
ENDBRANCH   1  16
BRANCH   8  21
ATOM     21  C   UNL     1      -1.253  10.838  19.064  0.00  0.00    +0.000 A 
ATOM     22  N   UNL     1      -1.218  10.067  17.997  0.00  0.00    +0.000 NA
ATOM     23  C   UNL     1      -2.302  10.343  17.176  0.00  0.00    +0.000 A 
ATOM     24  C   UNL     1      -2.532   9.796  15.897  0.00  0.00    +0.000 A 
ATOM     25  C   UNL     1      -3.628  10.230  15.143  0.00  0.00    +0.000 A 
ATOM     26  C   UNL     1      -4.504  11.184  15.653  0.00  0.00    +0.000 A 
ATOM     27  C   UNL     1      -4.315  11.717  16.931  0.00  0.00    +0.000 A 
ATOM     28  C   UNL     1      -3.202  11.285  17.672  0.00  0.00    +0.000 A 
ATOM     29  S   UNL     1      -2.690  11.778  19.235  0.00  0.00    +0.000 S 
ENDBRANCH   8  21
TORSDOF 2
ENDMDL
MODEL 8
REMARK VINA RESULT:      -7.2      8.906     11.390
REMARK  Name = 
REMARK  2 active torsions:
REMARK  status: ('A' for Active; 'I' for Inactive)
REMARK    1  A    between atoms: C_8  and  C_9
REMARK    2  A    between atoms: C_16  and  C_17
REMARK                            x       y       z     vdW  Elec       q    Type
REMARK                         _______ _______ _______ _____ _____    ______ ____
ROOT
ATOM      1  C   UNL     1       8.892  15.312  17.954  0.00  0.00    +0.000 C 
ATOM      2  O   UNL     1       9.582  16.178  17.418  0.00  0.00    +0.000 OA
ATOM      3  N   UNL     1       9.430  14.069  18.334  0.00  0.00    +0.000 N 
ATOM      4  C   UNL     1      10.889  13.915  18.211  0.00  0.00    +0.000 C 
ATOM      5  C   UNL     1      11.318  12.533  17.716  0.00  0.00    +0.000 C 
ATOM      6  C   UNL     1      10.617  11.384  18.428  0.00  0.00    +0.000 C 
ATOM      7  C   UNL     1       9.115  11.620  18.502  0.00  0.00    +0.000 C 
ATOM      8  C   UNL     1       8.753  12.996  19.082  0.00  0.00    +0.000 C 
ENDROOT
BRANCH   1  16
ATOM      9  O   UNL     1       2.142  13.074  17.741  0.00  0.00    +0.000 OA
ATOM     10  C   UNL     1       2.869  13.990  18.134  0.00  0.00    +0.000 C 
ATOM     11  C   UNL     1       2.361  15.052  19.085  0.00  0.00    +0.000 C 
ATOM     12  S   UNL     1       3.011  16.693  18.712  0.00  0.00    +0.000 S 
ATOM     13  C   UNL     1       4.727  16.245  18.585  0.00  0.00    +0.000 A 
ATOM     14  C   UNL     1       5.695  17.191  18.924  0.00  0.00    +0.000 A 
ATOM     15  C   UNL     1       7.054  16.881  18.818  0.00  0.00    +0.000 A 
ATOM     16  C   UNL     1       7.466  15.685  18.225  0.00  0.00    +0.000 A 
ATOM     17  C   UNL     1       6.490  14.721  17.921  0.00  0.00    +0.000 A 
ATOM     18  C   UNL     1       5.131  14.987  18.125  0.00  0.00    +0.000 A 
ATOM     19  N   UNL     1       4.203  13.975  17.825  0.00  0.00    +0.000 N 
ATOM     20  H   UNL     1       4.514  13.145  17.333  0.00  0.00    +0.000 HD
ENDBRANCH   1  16
BRANCH   8  21
ATOM     21  C   UNL     1       8.962  13.068  20.581  0.00  0.00    +0.000 A 
ATOM     22  N   UNL     1       8.843  12.066  21.427  0.00  0.00    +0.000 NA
ATOM     23  C   UNL     1       8.771  12.547  22.726  0.00  0.00    +0.000 A 
ATOM     24  C   UNL     1       8.530  11.777  23.882  0.00  0.00    +0.000 A 
ATOM     25  C   UNL     1       8.398  12.409  25.124  0.00  0.00    +0.000 A 
ATOM     26  C   UNL     1       8.525  13.791  25.230  0.00  0.00    +0.000 A 
ATOM     27  C   UNL     1       8.797  14.573  24.104  0.00  0.00    +0.000 A 
ATOM     28  C   UNL     1       8.910  13.928  22.861  0.00  0.00    +0.000 A 
ATOM     29  S   UNL     1       9.199  14.613  21.313  0.00  0.00    +0.000 S 
ENDBRANCH   8  21
TORSDOF 2
ENDMDL
MODEL 9
REMARK VINA RESULT:      -7.2      9.190     13.334
REMARK  Name = 
REMARK  2 active torsions:
REMARK  status: ('A' for Active; 'I' for Inactive)
REMARK    1  A    between atoms: C_8  and  C_9
REMARK    2  A    between atoms: C_16  and  C_17
REMARK                            x       y       z     vdW  Elec       q    Type
REMARK                         _______ _______ _______ _____ _____    ______ ____
ROOT
ATOM      1  C   UNL     1      -1.294  14.512  23.086  0.00  0.00    +0.000 C 
ATOM      2  O   UNL     1      -0.650  14.304  24.113  0.00  0.00    +0.000 OA
ATOM      3  N   UNL     1      -0.689  14.484  21.816  0.00  0.00    +0.000 N 
ATOM      4  C   UNL     1       0.710  14.031  21.761  0.00  0.00    +0.000 C 
ATOM      5  C   UNL     1       1.567  14.814  20.766  0.00  0.00    +0.000 C 
ATOM      6  C   UNL     1       0.907  15.000  19.406  0.00  0.00    +0.000 C 
ATOM      7  C   UNL     1      -0.531  15.477  19.555  0.00  0.00    +0.000 C 
ATOM      8  C   UNL     1      -1.357  14.600  20.508  0.00  0.00    +0.000 C 
ENDROOT
BRANCH   1  16
ATOM      9  O   UNL     1      -7.641  11.379  23.806  0.00  0.00    +0.000 OA
ATOM     10  C   UNL     1      -7.063  12.466  23.865  0.00  0.00    +0.000 C 
ATOM     11  C   UNL     1      -7.735  13.692  24.446  0.00  0.00    +0.000 C 
ATOM     12  S   UNL     1      -7.325  15.204  23.551  0.00  0.00    +0.000 S 
ATOM     13  C   UNL     1      -5.561  14.989  23.519  0.00  0.00    +0.000 A 
ATOM     14  C   UNL     1      -4.747  16.123  23.510  0.00  0.00    +0.000 A 
ATOM     15  C   UNL     1      -3.356  15.993  23.465  0.00  0.00    +0.000 A 
ATOM     16  C   UNL     1      -2.764  14.743  23.269  0.00  0.00    +0.000 A 
ATOM     17  C   UNL     1      -3.584  13.603  23.317  0.00  0.00    +0.000 A 
ATOM     18  C   UNL     1      -4.970  13.722  23.469  0.00  0.00    +0.000 A 
ATOM     19  N   UNL     1      -5.736  12.545  23.535  0.00  0.00    +0.000 N 
ATOM     20  H   UNL     1      -5.300  11.656  23.323  0.00  0.00    +0.000 HD
ENDBRANCH   1  16
BRANCH   8  21
ATOM     21  C   UNL     1      -1.734  13.268  19.893  0.00  0.00    +0.000 A 
ATOM     22  N   UNL     1      -0.916  12.445  19.269  0.00  0.00    +0.000 NA
ATOM     23  C   UNL     1      -1.642  11.504  18.554  0.00  0.00    +0.000 A 
ATOM     24  C   UNL     1      -1.107  10.537  17.679  0.00  0.00    +0.000 A 
ATOM     25  C   UNL     1      -1.968   9.704  16.954  0.00  0.00    +0.000 A 
ATOM     26  C   UNL     1      -3.347   9.810  17.106  0.00  0.00    +0.000 A 
ATOM     27  C   UNL     1      -3.900  10.739  17.992  0.00  0.00    +0.000 A 
ATOM     28  C   UNL     1      -3.026  11.580  18.700  0.00  0.00    +0.000 A 
ATOM     29  S   UNL     1      -3.402  12.830  19.818  0.00  0.00    +0.000 S 
ENDBRANCH   8  21
TORSDOF 2
ENDMDL
