MODEL 1
REMARK VINA RESULT:      -9.0      0.000      0.000
REMARK  Name = 
REMARK  4 active torsions:
REMARK  status: ('A' for Active; 'I' for Inactive)
REMARK    1  A    between atoms: C_1  and  N_2
REMARK    2  A    between atoms: C_6  and  C_7
REMARK    3  A    between atoms: C_14  and  N_15
REMARK    4  A    between atoms: C_22  and  C_23
REMARK                            x       y       z     vdW  Elec       q    Type
REMARK                         _______ _______ _______ _____ _____    ______ ____
ROOT
ATOM      1  C   UNL     1       0.140  10.759  18.629  0.00  0.00    +0.000 C 
ATOM      2  C   UNL     1       1.305   9.935  17.978  0.00  0.00    +0.000 C 
ATOM      3  C   UNL     1       1.350   9.162  19.278  0.00  0.00    +0.000 A 
ATOM      4  C   UNL     1       0.568  10.103  19.914  0.00  0.00    +0.000 A 
ATOM      5  C   UNL     1       0.286  10.067  21.258  0.00  0.00    +0.000 A 
ATOM      6  C   UNL     1       0.796   9.003  21.981  0.00  0.00    +0.000 A 
ATOM      7  C   UNL     1       1.510   7.987  21.325  0.00  0.00    +0.000 A 
ATOM      8  C   UNL     1       1.790   8.039  19.946  0.00  0.00    +0.000 A 
ENDROOT
BRANCH   8   9
ATOM      9  N   UNL     1       2.424   6.954  19.303  0.00  0.00    +0.000 N 
ATOM     10  C   UNL     1       3.384   7.121  18.218  0.00  0.00    +0.000 C 
ATOM     11  C   UNL     1       3.702   5.710  17.825  0.00  0.00    +0.000 A 
ATOM     12  C   UNL     1       2.971   4.832  18.622  0.00  0.00    +0.000 A 
ATOM     13  C   UNL     1       3.027   3.456  18.492  0.00  0.00    +0.000 A 
ATOM     14  C   UNL     1       3.865   2.943  17.511  0.00  0.00    +0.000 A 
ATOM     15  C   UNL     1       4.628   3.807  16.704  0.00  0.00    +0.000 A 
ATOM     16  C   UNL     1       4.563   5.210  16.854  0.00  0.00    +0.000 A 
ATOM     17  C   UNL     1       2.182   5.609  19.568  0.00  0.00    +0.000 C 
ATOM     18  O   UNL     1       1.491   5.066  20.421  0.00  0.00    +0.000 OA
BRANCH  16  19
ATOM     19  C   UNL     1       5.422   6.095  15.990  0.00  0.00    +0.000 C 
ATOM     20  F   UNL     1       4.707   6.986  15.249  0.00  0.00    +0.000 F 
ATOM     21  F   UNL     1       6.295   6.838  16.722  0.00  0.00    +0.000 F 
ATOM     22  F   UNL     1       6.175   5.390  15.103  0.00  0.00    +0.000 F 
ENDBRANCH  16  19
ENDBRANCH   8   9
BRANCH   1  28
ATOM     23  C   UNL     1       2.562  12.996  18.259  0.00  0.00    +0.000 C 
ATOM     24  N   UNL     1       1.174  13.190  18.570  0.00  0.00    +0.000 N 
ATOM     25  C   UNL     1       0.629  14.388  18.934  0.00  0.00    +0.000 A 
ATOM     26  N   UNL     1      -0.665  14.254  19.096  0.00  0.00    +0.000 NA
ATOM     27  N   UNL     1      -0.968  12.936  18.889  0.00  0.00    +0.000 NA
ATOM     28  C   UNL     1       0.148  12.280  18.620  0.00  0.00    +0.000 A 
ENDBRANCH   1  28
TORSDOF 3
ENDMDL
MODEL 2
REMARK VINA RESULT:      -8.8      2.613      3.116
REMARK  Name = 
REMARK  4 active torsions:
REMARK  status: ('A' for Active; 'I' for Inactive)
REMARK    1  A    between atoms: C_1  and  N_2
REMARK    2  A    between atoms: C_6  and  C_7
REMARK    3  A    between atoms: C_14  and  N_15
REMARK    4  A    between atoms: C_22  and  C_23
REMARK                            x       y       z     vdW  Elec       q    Type
REMARK                         _______ _______ _______ _____ _____    ______ ____
ROOT
ATOM      1  C   UNL     1       0.011  10.866  18.846  0.00  0.00    +0.000 C 
ATOM      2  C   UNL     1       0.992   9.920  18.070  0.00  0.00    +0.000 C 
ATOM      3  C   UNL     1       1.205   9.219  19.394  0.00  0.00    +0.000 A 
ATOM      4  C   UNL     1       0.606  10.251  20.084  0.00  0.00    +0.000 A 
ATOM      5  C   UNL     1       0.553  10.312  21.456  0.00  0.00    +0.000 A 
ATOM      6  C   UNL     1       1.107   9.254  22.156  0.00  0.00    +0.000 A 
ATOM      7  C   UNL     1       1.630   8.151  21.461  0.00  0.00    +0.000 A 
ATOM      8  C   UNL     1       1.676   8.105  20.054  0.00  0.00    +0.000 A 
ENDROOT
BRANCH   8   9
ATOM      9  N   UNL     1       2.119   6.941  19.390  0.00  0.00    +0.000 N 
ATOM     10  C   UNL     1       1.673   5.599  19.750  0.00  0.00    +0.000 C 
ATOM     11  C   UNL     1       2.470   4.719  18.834  0.00  0.00    +0.000 A 
ATOM     12  C   UNL     1       3.296   5.509  18.038  0.00  0.00    +0.000 A 
ATOM     13  C   UNL     1       4.173   4.993  17.101  0.00  0.00    +0.000 A 
ATOM     14  C   UNL     1       4.214   3.611  16.960  0.00  0.00    +0.000 A 
ATOM     15  C   UNL     1       3.377   2.792  17.740  0.00  0.00    +0.000 A 
ATOM     16  C   UNL     1       2.484   3.336  18.689  0.00  0.00    +0.000 A 
ATOM     17  C   UNL     1       3.063   6.908  18.367  0.00  0.00    +0.000 C 
ATOM     18  O   UNL     1       3.630   7.810  17.764  0.00  0.00    +0.000 OA
BRANCH  16  19
ATOM     19  C   UNL     1       1.583   2.423  19.479  0.00  0.00    +0.000 C 
ATOM     20  F   UNL     1       0.263   2.579  19.186  0.00  0.00    +0.000 F 
ATOM     21  F   UNL     1       1.858   1.109  19.256  0.00  0.00    +0.000 F 
ATOM     22  F   UNL     1       1.693   2.611  20.821  0.00  0.00    +0.000 F 
ENDBRANCH  16  19
ENDBRANCH   8   9
BRANCH   1  28
ATOM     23  C   UNL     1       2.560  12.905  18.250  0.00  0.00    +0.000 C 
ATOM     24  N   UNL     1       1.200  13.213  18.590  0.00  0.00    +0.000 N 
ATOM     25  C   UNL     1       0.747  14.466  18.888  0.00  0.00    +0.000 A 
ATOM     26  N   UNL     1      -0.546  14.431  19.099  0.00  0.00    +0.000 NA
ATOM     27  N   UNL     1      -0.942  13.126  18.991  0.00  0.00    +0.000 NA
ATOM     28  C   UNL     1       0.119  12.379  18.733  0.00  0.00    +0.000 A 
ENDBRANCH   1  28
TORSDOF 3
ENDMDL
MODEL 3
REMARK VINA RESULT:      -8.8      0.588      1.342
REMARK  Name = 
REMARK  4 active torsions:
REMARK  status: ('A' for Active; 'I' for Inactive)
REMARK    1  A    between atoms: C_1  and  N_2
REMARK    2  A    between atoms: C_6  and  C_7
REMARK    3  A    between atoms: C_14  and  N_15
REMARK    4  A    between atoms: C_22  and  C_23
REMARK                            x       y       z     vdW  Elec       q    Type
REMARK                         _______ _______ _______ _____ _____    ______ ____
ROOT
ATOM      1  C   UNL     1       0.329  10.882  18.760  0.00  0.00    +0.000 C 
ATOM      2  C   UNL     1       1.531  10.066  18.170  0.00  0.00    +0.000 C 
ATOM      3  C   UNL     1       1.387   9.169  19.381  0.00  0.00    +0.000 A 
ATOM      4  C   UNL     1       0.571  10.083  20.013  0.00  0.00    +0.000 A 
ATOM      5  C   UNL     1       0.125   9.932  21.304  0.00  0.00    +0.000 A 
ATOM      6  C   UNL     1       0.501   8.778  21.969  0.00  0.00    +0.000 A 
ATOM      7  C   UNL     1       1.249   7.795  21.301  0.00  0.00    +0.000 A 
ATOM      8  C   UNL     1       1.698   7.966  19.977  0.00  0.00    +0.000 A 
ENDROOT
BRANCH   8   9
ATOM      9  N   UNL     1       2.363   6.917  19.306  0.00  0.00    +0.000 N 
ATOM     10  C   UNL     1       3.343   7.142  18.250  0.00  0.00    +0.000 C 
ATOM     11  C   UNL     1       3.692   5.753  17.808  0.00  0.00    +0.000 A 
ATOM     12  C   UNL     1       2.958   4.833  18.553  0.00  0.00    +0.000 A 
ATOM     13  C   UNL     1       3.038   3.464  18.370  0.00  0.00    +0.000 A 
ATOM     14  C   UNL     1       3.905   3.003  17.387  0.00  0.00    +0.000 A 
ATOM     15  C   UNL     1       4.672   3.911  16.633  0.00  0.00    +0.000 A 
ATOM     16  C   UNL     1       4.581   5.305  16.837  0.00  0.00    +0.000 A 
ATOM     17  C   UNL     1       2.136   5.559  19.512  0.00  0.00    +0.000 C 
ATOM     18  O   UNL     1       1.435   4.973  20.326  0.00  0.00    +0.000 OA
BRANCH  16  19
ATOM     19  C   UNL     1       5.445   6.237  16.028  0.00  0.00    +0.000 C 
ATOM     20  F   UNL     1       6.263   7.014  16.791  0.00  0.00    +0.000 F 
ATOM     21  F   UNL     1       6.263   5.569  15.171  0.00  0.00    +0.000 F 
ATOM     22  F   UNL     1       4.717   7.096  15.266  0.00  0.00    +0.000 F 
ENDBRANCH  16  19
ENDBRANCH   8   9
BRANCH   1  28
ATOM     23  C   UNL     1      -1.821  13.133  19.910  0.00  0.00    +0.000 C 
ATOM     24  N   UNL     1      -0.540  13.321  19.289  0.00  0.00    +0.000 N 
ATOM     25  C   UNL     1      -0.039  14.535  18.913  0.00  0.00    +0.000 A 
ATOM     26  N   UNL     1       1.169  14.385  18.430  0.00  0.00    +0.000 NA
ATOM     27  N   UNL     1       1.448  13.045  18.437  0.00  0.00    +0.000 NA
ATOM     28  C   UNL     1       0.398  12.394  18.909  0.00  0.00    +0.000 A 
ENDBRANCH   1  28
TORSDOF 3
ENDMDL
MODEL 4
REMARK VINA RESULT:      -8.5      2.375      3.027
REMARK  Name = 
REMARK  4 active torsions:
REMARK  status: ('A' for Active; 'I' for Inactive)
REMARK    1  A    between atoms: C_1  and  N_2
REMARK    2  A    between atoms: C_6  and  C_7
REMARK    3  A    between atoms: C_14  and  N_15
REMARK    4  A    between atoms: C_22  and  C_23
REMARK                            x       y       z     vdW  Elec       q    Type
REMARK                         _______ _______ _______ _____ _____    ______ ____
ROOT
ATOM      1  C   UNL     1       0.177  10.743  18.757  0.00  0.00    +0.000 C 
ATOM      2  C   UNL     1       1.355  10.014  18.020  0.00  0.00    +0.000 C 
ATOM      3  C   UNL     1       1.384   9.076  19.207  0.00  0.00    +0.000 A 
ATOM      4  C   UNL     1       0.589   9.922  19.950  0.00  0.00    +0.000 A 
ATOM      5  C   UNL     1       0.287   9.708  21.273  0.00  0.00    +0.000 A 
ATOM      6  C   UNL     1       0.790   8.559  21.857  0.00  0.00    +0.000 A 
ATOM      7  C   UNL     1       1.517   7.640  21.082  0.00  0.00    +0.000 A 
ATOM      8  C   UNL     1       1.818   7.875  19.726  0.00  0.00    +0.000 A 
ENDROOT
BRANCH   8   9
ATOM      9  N   UNL     1       2.466   6.886  18.955  0.00  0.00    +0.000 N 
ATOM     10  C   UNL     1       2.266   5.456  19.162  0.00  0.00    +0.000 C 
ATOM     11  C   UNL     1       3.212   4.835  18.178  0.00  0.00    +0.000 A 
ATOM     12  C   UNL     1       3.887   5.839  17.489  0.00  0.00    +0.000 A 
ATOM     13  C   UNL     1       4.847   5.591  16.524  0.00  0.00    +0.000 A 
ATOM     14  C   UNL     1       5.136   4.262  16.241  0.00  0.00    +0.000 A 
ATOM     15  C   UNL     1       4.454   3.228  16.910  0.00  0.00    +0.000 A 
ATOM     16  C   UNL     1       3.474   3.500  17.889  0.00  0.00    +0.000 A 
ATOM     17  C   UNL     1       3.406   7.132  17.958  0.00  0.00    +0.000 C 
ATOM     18  O   UNL     1       3.805   8.179  17.466  0.00  0.00    +0.000 OA
BRANCH  16  19
ATOM     19  C   UNL     1       2.748   2.362  18.557  0.00  0.00    +0.000 C 
ATOM     20  F   UNL     1       2.768   2.431  19.917  0.00  0.00    +0.000 F 
ATOM     21  F   UNL     1       1.433   2.315  18.209  0.00  0.00    +0.000 F 
ATOM     22  F   UNL     1       3.269   1.148  18.236  0.00  0.00    +0.000 F 
ENDBRANCH  16  19
ENDBRANCH   8   9
BRANCH   1  28
ATOM     23  C   UNL     1      -2.065  12.861  19.979  0.00  0.00    +0.000 C 
ATOM     24  N   UNL     1      -0.797  13.124  19.360  0.00  0.00    +0.000 N 
ATOM     25  C   UNL     1      -0.351  14.369  19.020  0.00  0.00    +0.000 A 
ATOM     26  N   UNL     1       0.861  14.288  18.529  0.00  0.00    +0.000 NA
ATOM     27  N   UNL     1       1.198  12.962  18.495  0.00  0.00    +0.000 NA
ATOM     28  C   UNL     1       0.180  12.251  18.950  0.00  0.00    +0.000 A 
ENDBRANCH   1  28
TORSDOF 3
ENDMDL
MODEL 5
REMARK VINA RESULT:      -8.4      2.688      3.318
REMARK  Name = 
REMARK  4 active torsions:
REMARK  status: ('A' for Active; 'I' for Inactive)
REMARK    1  A    between atoms: C_1  and  N_2
REMARK    2  A    between atoms: C_6  and  C_7
REMARK    3  A    between atoms: C_14  and  N_15
REMARK    4  A    between atoms: C_22  and  C_23
REMARK                            x       y       z     vdW  Elec       q    Type
REMARK                         _______ _______ _______ _____ _____    ______ ____
ROOT
ATOM      1  C   UNL     1       0.185  11.048  19.069  0.00  0.00    +0.000 C 
ATOM      2  C   UNL     1       1.179  10.106  18.305  0.00  0.00    +0.000 C 
ATOM      3  C   UNL     1       1.238   9.297  19.583  0.00  0.00    +0.000 A 
ATOM      4  C   UNL     1       0.635  10.308  20.301  0.00  0.00    +0.000 A 
ATOM      5  C   UNL     1       0.465  10.270  21.664  0.00  0.00    +0.000 A 
ATOM      6  C   UNL     1       0.898   9.132  22.321  0.00  0.00    +0.000 A 
ATOM      7  C   UNL     1       1.423   8.055  21.588  0.00  0.00    +0.000 A 
ATOM      8  C   UNL     1       1.590   8.110  20.190  0.00  0.00    +0.000 A 
ENDROOT
BRANCH   8   9
ATOM      9  N   UNL     1       2.028   6.975  19.476  0.00  0.00    +0.000 N 
ATOM     10  C   UNL     1       1.569   5.622  19.770  0.00  0.00    +0.000 C 
ATOM     11  C   UNL     1       2.365   4.779  18.820  0.00  0.00    +0.000 A 
ATOM     12  C   UNL     1       3.202   5.598  18.066  0.00  0.00    +0.000 A 
ATOM     13  C   UNL     1       4.081   5.119  17.111  0.00  0.00    +0.000 A 
ATOM     14  C   UNL     1       4.113   3.745  16.907  0.00  0.00    +0.000 A 
ATOM     15  C   UNL     1       3.264   2.897  17.643  0.00  0.00    +0.000 A 
ATOM     16  C   UNL     1       2.369   3.404  18.611  0.00  0.00    +0.000 A 
ATOM     17  C   UNL     1       2.979   6.982  18.458  0.00  0.00    +0.000 C 
ATOM     18  O   UNL     1       3.557   7.906  17.901  0.00  0.00    +0.000 OA
BRANCH  16  19
ATOM     19  C   UNL     1       1.456   2.463  19.352  0.00  0.00    +0.000 C 
ATOM     20  F   UNL     1       0.192   2.426  18.847  0.00  0.00    +0.000 F 
ATOM     21  F   UNL     1       1.904   1.178  19.320  0.00  0.00    +0.000 F 
ATOM     22  F   UNL     1       1.326   2.786  20.666  0.00  0.00    +0.000 F 
ENDBRANCH  16  19
ENDBRANCH   8   9
BRANCH   1  28
ATOM     23  C   UNL     1      -1.681  13.549  20.198  0.00  0.00    +0.000 C 
ATOM     24  N   UNL     1      -0.448  13.583  19.462  0.00  0.00    +0.000 N 
ATOM     25  C   UNL     1       0.109  14.719  18.949  0.00  0.00    +0.000 A 
ATOM     26  N   UNL     1       1.256  14.434  18.384  0.00  0.00    +0.000 NA
ATOM     27  N   UNL     1       1.432  13.080  18.480  0.00  0.00    +0.000 NA
ATOM     28  C   UNL     1       0.381  12.556  19.086  0.00  0.00    +0.000 A 
ENDBRANCH   1  28
TORSDOF 3
ENDMDL
MODEL 6
REMARK VINA RESULT:      -8.4      4.002      8.484
REMARK  Name = 
REMARK  4 active torsions:
REMARK  status: ('A' for Active; 'I' for Inactive)
REMARK    1  A    between atoms: C_1  and  N_2
REMARK    2  A    between atoms: C_6  and  C_7
REMARK    3  A    between atoms: C_14  and  N_15
REMARK    4  A    between atoms: C_22  and  C_23
REMARK                            x       y       z     vdW  Elec       q    Type
REMARK                         _______ _______ _______ _____ _____    ______ ____
ROOT
ATOM      1  C   UNL     1       2.167   4.124  18.309  0.00  0.00    +0.000 C 
ATOM      2  C   UNL     1       1.655   5.146  19.382  0.00  0.00    +0.000 C 
ATOM      3  C   UNL     1       2.466   6.183  18.637  0.00  0.00    +0.000 A 
ATOM      4  C   UNL     1       3.137   5.210  17.928  0.00  0.00    +0.000 A 
ATOM      5  C   UNL     1       4.179   5.480  17.073  0.00  0.00    +0.000 A 
ATOM      6  C   UNL     1       4.530   6.809  16.908  0.00  0.00    +0.000 A 
ATOM      7  C   UNL     1       3.789   7.815  17.549  0.00  0.00    +0.000 A 
ATOM      8  C   UNL     1       2.723   7.521  18.421  0.00  0.00    +0.000 A 
ENDROOT
BRANCH   8   9
ATOM      9  N   UNL     1       1.939   8.558  18.969  0.00  0.00    +0.000 N 
ATOM     10  C   UNL     1       1.316   8.477  20.285  0.00  0.00    +0.000 C 
ATOM     11  C   UNL     1       0.543   9.758  20.376  0.00  0.00    +0.000 A 
ATOM     12  C   UNL     1       0.717  10.486  19.202  0.00  0.00    +0.000 A 
ATOM     13  C   UNL     1       0.115  11.709  18.965  0.00  0.00    +0.000 A 
ATOM     14  C   UNL     1      -0.701  12.221  19.967  0.00  0.00    +0.000 A 
ATOM     15  C   UNL     1      -0.879  11.513  21.170  0.00  0.00    +0.000 A 
ATOM     16  C   UNL     1      -0.252  10.268  21.397  0.00  0.00    +0.000 A 
ATOM     17  C   UNL     1       1.612   9.747  18.322  0.00  0.00    +0.000 C 
ATOM     18  O   UNL     1       1.969  10.203  17.244  0.00  0.00    +0.000 OA
BRANCH  16  19
ATOM     19  C   UNL     1      -0.445   9.562  22.712  0.00  0.00    +0.000 C 
ATOM     20  F   UNL     1      -1.298  10.210  23.554  0.00  0.00    +0.000 F 
ATOM     21  F   UNL     1      -0.960   8.312  22.555  0.00  0.00    +0.000 F 
ATOM     22  F   UNL     1       0.717   9.410  23.401  0.00  0.00    +0.000 F 
ENDBRANCH  16  19
ENDBRANCH   8   9
BRANCH   1  28
ATOM     23  C   UNL     1       2.883   2.782  21.257  0.00  0.00    +0.000 C 
ATOM     24  N   UNL     1       3.166   2.297  19.936  0.00  0.00    +0.000 N 
ATOM     25  C   UNL     1       3.954   1.215  19.667  0.00  0.00    +0.000 A 
ATOM     26  N   UNL     1       3.972   0.990  18.376  0.00  0.00    +0.000 NA
ATOM     27  N   UNL     1       3.227   1.972  17.780  0.00  0.00    +0.000 NA
ATOM     28  C   UNL     1       2.780   2.793  18.716  0.00  0.00    +0.000 A 
ENDBRANCH   1  28
TORSDOF 3
ENDMDL
MODEL 7
REMARK VINA RESULT:      -8.4      4.188      8.097
REMARK  Name = 
REMARK  4 active torsions:
REMARK  status: ('A' for Active; 'I' for Inactive)
REMARK    1  A    between atoms: C_1  and  N_2
REMARK    2  A    between atoms: C_6  and  C_7
REMARK    3  A    between atoms: C_14  and  N_15
REMARK    4  A    between atoms: C_22  and  C_23
REMARK                            x       y       z     vdW  Elec       q    Type
REMARK                         _______ _______ _______ _____ _____    ______ ____
ROOT
ATOM      1  C   UNL     1       5.325   6.516  17.566  0.00  0.00    +0.000 C 
ATOM      2  C   UNL     1       4.210   7.597  17.342  0.00  0.00    +0.000 C 
ATOM      3  C   UNL     1       3.447   6.893  18.443  0.00  0.00    +0.000 A 
ATOM      4  C   UNL     1       4.282   5.798  18.380  0.00  0.00    +0.000 A 
ATOM      5  C   UNL     1       4.076   4.647  19.102  0.00  0.00    +0.000 A 
ATOM      6  C   UNL     1       2.985   4.625  19.954  0.00  0.00    +0.000 A 
ATOM      7  C   UNL     1       2.186   5.770  20.100  0.00  0.00    +0.000 A 
ATOM      8  C   UNL     1       2.412   6.943  19.353  0.00  0.00    +0.000 A 
ENDROOT
BRANCH   8   9
ATOM      9  N   UNL     1       1.650   8.105  19.597  0.00  0.00    +0.000 N 
ATOM     10  C   UNL     1       1.031   8.396  20.884  0.00  0.00    +0.000 C 
ATOM     11  C   UNL     1       0.281   9.668  20.622  0.00  0.00    +0.000 A 
ATOM     12  C   UNL     1       0.465  10.046  19.293  0.00  0.00    +0.000 A 
ATOM     13  C   UNL     1      -0.116  11.169  18.732  0.00  0.00    +0.000 A 
ATOM     14  C   UNL     1      -0.919  11.949  19.554  0.00  0.00    +0.000 A 
ATOM     15  C   UNL     1      -1.105  11.600  20.905  0.00  0.00    +0.000 A 
ATOM     16  C   UNL     1      -0.500  10.452  21.463  0.00  0.00    +0.000 A 
ATOM     17  C   UNL     1       1.343   9.079  18.650  0.00  0.00    +0.000 C 
ATOM     18  O   UNL     1       1.704   9.217  17.488  0.00  0.00    +0.000 OA
BRANCH  16  19
ATOM     19  C   UNL     1      -0.702  10.134  22.921  0.00  0.00    +0.000 C 
ATOM     20  F   UNL     1      -1.324   8.942  23.134  0.00  0.00    +0.000 F 
ATOM     21  F   UNL     1       0.475  10.064  23.601  0.00  0.00    +0.000 F 
ATOM     22  F   UNL     1      -1.455  11.068  23.562  0.00  0.00    +0.000 F 
ENDBRANCH  16  19
ENDBRANCH   8   9
BRANCH   1  28
ATOM     23  C   UNL     1       7.784   4.299  17.353  0.00  0.00    +0.000 C 
ATOM     24  N   UNL     1       7.001   4.903  16.312  0.00  0.00    +0.000 N 
ATOM     25  C   UNL     1       7.260   4.767  14.978  0.00  0.00    +0.000 A 
ATOM     26  N   UNL     1       6.339   5.387  14.282  0.00  0.00    +0.000 NA
ATOM     27  N   UNL     1       5.489   5.986  15.173  0.00  0.00    +0.000 NA
ATOM     28  C   UNL     1       5.915   5.738  16.400  0.00  0.00    +0.000 A 
ENDBRANCH   1  28
TORSDOF 3
ENDMDL
MODEL 8
REMARK VINA RESULT:      -8.3      3.370      4.282
REMARK  Name = 
REMARK  4 active torsions:
REMARK  status: ('A' for Active; 'I' for Inactive)
REMARK    1  A    between atoms: C_1  and  N_2
REMARK    2  A    between atoms: C_6  and  C_7
REMARK    3  A    between atoms: C_14  and  N_15
REMARK    4  A    between atoms: C_22  and  C_23
REMARK                            x       y       z     vdW  Elec       q    Type
REMARK                         _______ _______ _______ _____ _____    ______ ____
ROOT
ATOM      1  C   UNL     1       0.929  10.309  21.604  0.00  0.00    +0.000 C 
ATOM      2  C   UNL     1       0.906   8.742  21.564  0.00  0.00    +0.000 C 
ATOM      3  C   UNL     1       1.375   8.872  20.131  0.00  0.00    +0.000 A 
ATOM      4  C   UNL     1       1.071  10.216  20.108  0.00  0.00    +0.000 A 
ATOM      5  C   UNL     1       1.163  10.993  18.979  0.00  0.00    +0.000 A 
ATOM      6  C   UNL     1       1.620  10.378  17.826  0.00  0.00    +0.000 A 
ATOM      7  C   UNL     1       2.026   9.034  17.862  0.00  0.00    +0.000 A 
ATOM      8  C   UNL     1       1.926   8.252  19.029  0.00  0.00    +0.000 A 
ENDROOT
BRANCH   8   9
ATOM      9  N   UNL     1       2.434   6.936  19.054  0.00  0.00    +0.000 N 
ATOM     10  C   UNL     1       2.033   5.945  20.046  0.00  0.00    +0.000 C 
ATOM     11  C   UNL     1       2.890   4.761  19.712  0.00  0.00    +0.000 A 
ATOM     12  C   UNL     1       3.706   5.074  18.627  0.00  0.00    +0.000 A 
ATOM     13  C   UNL     1       4.629   4.196  18.088  0.00  0.00    +0.000 A 
ATOM     14  C   UNL     1       4.730   2.940  18.672  0.00  0.00    +0.000 A 
ATOM     15  C   UNL     1       3.904   2.593  19.757  0.00  0.00    +0.000 A 
ATOM     16  C   UNL     1       2.963   3.500  20.292  0.00  0.00    +0.000 A 
ATOM     17  C   UNL     1       3.408   6.433  18.195  0.00  0.00    +0.000 C 
ATOM     18  O   UNL     1       3.955   6.928  17.219  0.00  0.00    +0.000 OA
BRANCH  16  19
ATOM     19  C   UNL     1       2.078   3.073  21.433  0.00  0.00    +0.000 C 
ATOM     20  F   UNL     1       2.243   3.826  22.556  0.00  0.00    +0.000 F 
ATOM     21  F   UNL     1       0.757   3.160  21.121  0.00  0.00    +0.000 F 
ATOM     22  F   UNL     1       2.295   1.785  21.812  0.00  0.00    +0.000 F 
ENDBRANCH  16  19
ENDBRANCH   8   9
BRANCH   1  28
ATOM     23  C   UNL     1       0.169  13.538  21.517  0.00  0.00    +0.000 C 
ATOM     24  N   UNL     1      -0.514  12.452  22.162  0.00  0.00    +0.000 N 
ATOM     25  C   UNL     1      -1.565  12.607  23.019  0.00  0.00    +0.000 A 
ATOM     26  N   UNL     1      -2.006  11.432  23.396  0.00  0.00    +0.000 NA
ATOM     27  N   UNL     1      -1.198  10.489  22.820  0.00  0.00    +0.000 NA
ATOM     28  C   UNL     1      -0.264  11.104  22.113  0.00  0.00    +0.000 A 
ENDBRANCH   1  28
TORSDOF 3
ENDMDL
MODEL 9
REMARK VINA RESULT:      -8.3      4.114      8.466
REMARK  Name = 
REMARK  4 active torsions:
REMARK  status: ('A' for Active; 'I' for Inactive)
REMARK    1  A    between atoms: C_1  and  N_2
REMARK    2  A    between atoms: C_6  and  C_7
REMARK    3  A    between atoms: C_14  and  N_15
REMARK    4  A    between atoms: C_22  and  C_23
REMARK                            x       y       z     vdW  Elec       q    Type
REMARK                         _______ _______ _______ _____ _____    ______ ____
ROOT
ATOM      1  C   UNL     1       2.097   4.762  19.392  0.00  0.00    +0.000 C 
ATOM      2  C   UNL     1       1.563   5.719  20.513  0.00  0.00    +0.000 C 
ATOM      3  C   UNL     1       1.953   6.854  19.592  0.00  0.00    +0.000 A 
ATOM      4  C   UNL     1       2.695   6.008  18.795  0.00  0.00    +0.000 A 
ATOM      5  C   UNL     1       3.467   6.443  17.745  0.00  0.00    +0.000 A 
ATOM      6  C   UNL     1       3.456   7.800  17.475  0.00  0.00    +0.000 A 
ATOM      7  C   UNL     1       2.627   8.657  18.218  0.00  0.00    +0.000 A 
ATOM      8  C   UNL     1       1.840   8.194  19.290  0.00  0.00    +0.000 A 
ENDROOT
BRANCH   8   9
ATOM      9  N   UNL     1       0.947   9.065  19.950  0.00  0.00    +0.000 N 
ATOM     10  C   UNL     1      -0.029   9.889  19.247  0.00  0.00    +0.000 C 
ATOM     11  C   UNL     1      -0.666  10.679  20.350  0.00  0.00    +0.000 A 
ATOM     12  C   UNL     1      -0.084  10.327  21.566  0.00  0.00    +0.000 A 
ATOM     13  C   UNL     1      -0.439  10.895  22.776  0.00  0.00    +0.000 A 
ATOM     14  C   UNL     1      -1.433  11.865  22.756  0.00  0.00    +0.000 A 
ATOM     15  C   UNL     1      -2.051  12.226  21.543  0.00  0.00    +0.000 A 
ATOM     16  C   UNL     1      -1.679  11.631  20.318  0.00  0.00    +0.000 A 
ATOM     17  C   UNL     1       0.916   9.296  21.323  0.00  0.00    +0.000 C 
ATOM     18  O   UNL     1       1.534   8.776  22.243  0.00  0.00    +0.000 OA
BRANCH  16  19
ATOM     19  C   UNL     1      -2.389  12.025  19.049  0.00  0.00    +0.000 C 
ATOM     20  F   UNL     1      -2.893  10.964  18.360  0.00  0.00    +0.000 F 
ATOM     21  F   UNL     1      -3.446  12.849  19.285  0.00  0.00    +0.000 F 
ATOM     22  F   UNL     1      -1.579  12.686  18.179  0.00  0.00    +0.000 F 
ENDBRANCH  16  19
ENDBRANCH   8   9
BRANCH   1  28
ATOM     23  C   UNL     1       2.083   2.341  21.660  0.00  0.00    +0.000 C 
ATOM     24  N   UNL     1       3.103   2.710  20.720  0.00  0.00    +0.000 N 
ATOM     25  C   UNL     1       4.364   2.188  20.709  0.00  0.00    +0.000 A 
ATOM     26  N   UNL     1       5.039   2.680  19.700  0.00  0.00    +0.000 NA
ATOM     27  N   UNL     1       4.227   3.581  19.067  0.00  0.00    +0.000 NA
ATOM     28  C   UNL     1       3.073   3.639  19.710  0.00  0.00    +0.000 A 
ENDBRANCH   1  28
TORSDOF 3
ENDMDL
