MODEL 1
REMARK VINA RESULT:      -8.6      0.000      0.000
REMARK  Name = 
REMARK  2 active torsions:
REMARK  status: ('A' for Active; 'I' for Inactive)
REMARK    1  A    between atoms: C_8  and  N_9
REMARK    2  A    between atoms: C_16  and  C_17
REMARK                            x       y       z     vdW  Elec       q    Type
REMARK                         _______ _______ _______ _____ _____    ______ ____
ROOT
ATOM      1  N   UNL     1       2.004   8.373  18.845  0.00  0.00    +0.000 N 
ATOM      2  C   UNL     1       1.121   9.302  19.355  0.00  0.00    +0.000 C 
ATOM      3  O   UNL     1       0.296   9.048  20.230  0.00  0.00    +0.000 OA
ATOM      4  N   UNL     1       1.235  10.584  18.857  0.00  0.00    +0.000 N 
ATOM      5  C   UNL     1       2.169  11.133  17.889  0.00  0.00    +0.000 C 
ATOM      6  C   UNL     1       2.419  12.541  18.394  0.00  0.00    +0.000 C 
ATOM      7  C   UNL     1       1.081  12.961  18.994  0.00  0.00    +0.000 C 
ATOM      8  C   UNL     1       0.413  11.652  19.450  0.00  0.00    +0.000 C 
ATOM      9  H   UNL     1       2.813   8.733  18.368  0.00  0.00    +0.000 HD
ENDROOT
BRANCH   1  17
ATOM     10  O   UNL     1       1.929   2.290  21.223  0.00  0.00    +0.000 OA
ATOM     11  C   UNL     1       2.005   2.909  20.180  0.00  0.00    +0.000 C 
ATOM     12  N   UNL     1       2.082   2.420  18.913  0.00  0.00    +0.000 N 
ATOM     13  C   UNL     1       2.157   3.409  17.980  0.00  0.00    +0.000 C 
ATOM     14  O   UNL     1       2.248   3.288  16.775  0.00  0.00    +0.000 OA
ATOM     15  C   UNL     1       2.110   4.672  18.717  0.00  0.00    +0.000 A 
ATOM     16  C   UNL     1       2.131   5.973  18.260  0.00  0.00    +0.000 A 
ATOM     17  C   UNL     1       2.045   7.004  19.206  0.00  0.00    +0.000 A 
ATOM     18  C   UNL     1       1.988   6.684  20.587  0.00  0.00    +0.000 A 
ATOM     19  C   UNL     1       1.967   5.351  21.027  0.00  0.00    +0.000 A 
ATOM     20  C   UNL     1       2.022   4.366  20.063  0.00  0.00    +0.000 A 
ATOM     21  H   UNL     1       2.088   1.440  18.682  0.00  0.00    +0.000 HD
ENDBRANCH   1  17
BRANCH   8  22
ATOM     22  C   UNL     1      -1.060  11.634  19.037  0.00  0.00    +0.000 A 
ATOM     23  C   UNL     1      -1.404  11.187  17.744  0.00  0.00    +0.000 A 
ATOM     24  C   UNL     1      -2.719  11.210  17.295  0.00  0.00    +0.000 A 
ATOM     25  C   UNL     1      -3.724  11.683  18.127  0.00  0.00    +0.000 A 
ATOM     26  C   UNL     1      -3.433  12.132  19.420  0.00  0.00    +0.000 A 
ATOM     27  C   UNL     1      -4.478  12.594  20.237  0.00  0.00    +0.000 A 
ATOM     28  C   UNL     1      -4.235  13.045  21.530  0.00  0.00    +0.000 A 
ATOM     29  C   UNL     1      -2.938  13.045  22.021  0.00  0.00    +0.000 A 
ATOM     30  C   UNL     1      -1.884  12.594  21.218  0.00  0.00    +0.000 A 
ATOM     31  C   UNL     1      -2.093  12.119  19.899  0.00  0.00    +0.000 A 
ENDBRANCH   8  22
TORSDOF 2
ENDMDL
MODEL 2
REMARK VINA RESULT:      -8.6      1.716      2.019
REMARK  Name = 
REMARK  2 active torsions:
REMARK  status: ('A' for Active; 'I' for Inactive)
REMARK    1  A    between atoms: C_8  and  N_9
REMARK    2  A    between atoms: C_16  and  C_17
REMARK                            x       y       z     vdW  Elec       q    Type
REMARK                         _______ _______ _______ _____ _____    ______ ____
ROOT
ATOM      1  N   UNL     1       2.641   8.476  18.154  0.00  0.00    +0.000 N 
ATOM      2  C   UNL     1       1.576   9.126  18.742  0.00  0.00    +0.000 C 
ATOM      3  O   UNL     1       0.776   8.576  19.495  0.00  0.00    +0.000 OA
ATOM      4  N   UNL     1       1.469  10.476  18.477  0.00  0.00    +0.000 N 
ATOM      5  C   UNL     1       2.326  11.346  17.691  0.00  0.00    +0.000 C 
ATOM      6  C   UNL     1       2.282  12.663  18.443  0.00  0.00    +0.000 C 
ATOM      7  C   UNL     1       0.863  12.723  18.999  0.00  0.00    +0.000 C 
ATOM      8  C   UNL     1       0.435  11.256  19.175  0.00  0.00    +0.000 C 
ATOM      9  H   UNL     1       3.389   9.053  17.809  0.00  0.00    +0.000 HD
ENDROOT
BRANCH   1  17
ATOM     10  O   UNL     1       3.334   1.981  18.253  0.00  0.00    +0.000 OA
ATOM     11  C   UNL     1       3.913   3.009  18.541  0.00  0.00    +0.000 C 
ATOM     12  N   UNL     1       5.164   3.158  19.054  0.00  0.00    +0.000 N 
ATOM     13  C   UNL     1       5.490   4.464  19.258  0.00  0.00    +0.000 C 
ATOM     14  O   UNL     1       6.523   4.911  19.713  0.00  0.00    +0.000 OA
ATOM     15  C   UNL     1       4.334   5.247  18.818  0.00  0.00    +0.000 A 
ATOM     16  C   UNL     1       4.141   6.613  18.787  0.00  0.00    +0.000 A 
ATOM     17  C   UNL     1       2.925   7.093  18.282  0.00  0.00    +0.000 A 
ATOM     18  C   UNL     1       1.926   6.174  17.871  0.00  0.00    +0.000 A 
ATOM     19  C   UNL     1       2.146   4.789  17.911  0.00  0.00    +0.000 A 
ATOM     20  C   UNL     1       3.368   4.357  18.385  0.00  0.00    +0.000 A 
ATOM     21  H   UNL     1       5.785   2.394  19.267  0.00  0.00    +0.000 HD
ENDBRANCH   1  17
BRANCH   8  22
ATOM     22  C   UNL     1      -0.988  11.051  18.652  0.00  0.00    +0.000 A 
ATOM     23  C   UNL     1      -1.189  10.254  17.505  0.00  0.00    +0.000 A 
ATOM     24  C   UNL     1      -2.452  10.086  16.949  0.00  0.00    +0.000 A 
ATOM     25  C   UNL     1      -3.548  10.714  17.527  0.00  0.00    +0.000 A 
ATOM     26  C   UNL     1      -3.400  11.510  18.669  0.00  0.00    +0.000 A 
ATOM     27  C   UNL     1      -4.534  12.119  19.230  0.00  0.00    +0.000 A 
ATOM     28  C   UNL     1      -4.434  12.914  20.367  0.00  0.00    +0.000 A 
ATOM     29  C   UNL     1      -3.193  13.114  20.954  0.00  0.00    +0.000 A 
ATOM     30  C   UNL     1      -2.053  12.519  20.404  0.00  0.00    +0.000 A 
ATOM     31  C   UNL     1      -2.116  11.696  19.252  0.00  0.00    +0.000 A 
ENDBRANCH   8  22
TORSDOF 2
ENDMDL
MODEL 3
REMARK VINA RESULT:      -8.6      2.961      9.246
REMARK  Name = 
REMARK  2 active torsions:
REMARK  status: ('A' for Active; 'I' for Inactive)
REMARK    1  A    between atoms: C_8  and  N_9
REMARK    2  A    between atoms: C_16  and  C_17
REMARK                            x       y       z     vdW  Elec       q    Type
REMARK                         _______ _______ _______ _____ _____    ______ ____
ROOT
ATOM      1  N   UNL     1       0.893   7.044  20.521  0.00  0.00    +0.000 N 
ATOM      2  C   UNL     1       2.078   6.379  20.281  0.00  0.00    +0.000 C 
ATOM      3  O   UNL     1       3.150   6.948  20.089  0.00  0.00    +0.000 OA
ATOM      4  N   UNL     1       2.015   5.001  20.310  0.00  0.00    +0.000 N 
ATOM      5  C   UNL     1       0.894   4.120  20.587  0.00  0.00    +0.000 C 
ATOM      6  C   UNL     1       1.528   2.958  21.327  0.00  0.00    +0.000 C 
ATOM      7  C   UNL     1       2.905   2.820  20.688  0.00  0.00    +0.000 C 
ATOM      8  C   UNL     1       3.264   4.231  20.190  0.00  0.00    +0.000 C 
ATOM      9  H   UNL     1       0.156   6.513  20.951  0.00  0.00    +0.000 HD
ENDROOT
BRANCH   1  17
ATOM     10  O   UNL     1       0.294  13.501  19.739  0.00  0.00    +0.000 OA
ATOM     11  C   UNL     1       0.072  12.610  20.534  0.00  0.00    +0.000 C 
ATOM     12  N   UNL     1      -0.526  12.694  21.752  0.00  0.00    +0.000 N 
ATOM     13  C   UNL     1      -0.607  11.486  22.376  0.00  0.00    +0.000 C 
ATOM     14  O   UNL     1      -1.073  11.244  23.470  0.00  0.00    +0.000 OA
ATOM     15  C   UNL     1      -0.012  10.513  21.460  0.00  0.00    +0.000 A 
ATOM     16  C   UNL     1       0.143   9.148  21.586  0.00  0.00    +0.000 A 
ATOM     17  C   UNL     1       0.735   8.453  20.522  0.00  0.00    +0.000 A 
ATOM     18  C   UNL     1       1.193   9.168  19.386  0.00  0.00    +0.000 A 
ATOM     19  C   UNL     1       1.022  10.557  19.281  0.00  0.00    +0.000 A 
ATOM     20  C   UNL     1       0.408  11.200  20.336  0.00  0.00    +0.000 A 
ATOM     21  H   UNL     1      -0.869  13.550  22.158  0.00  0.00    +0.000 HD
ENDBRANCH   1  17
BRANCH   8  22
ATOM     22  C   UNL     1       3.846   4.165  18.777  0.00  0.00    +0.000 A 
ATOM     23  C   UNL     1       3.086   3.569  17.749  0.00  0.00    +0.000 A 
ATOM     24  C   UNL     1       3.592   3.425  16.462  0.00  0.00    +0.000 A 
ATOM     25  C   UNL     1       4.873   3.872  16.171  0.00  0.00    +0.000 A 
ATOM     26  C   UNL     1       5.664   4.475  17.156  0.00  0.00    +0.000 A 
ATOM     27  C   UNL     1       6.951   4.925  16.820  0.00  0.00    +0.000 A 
ATOM     28  C   UNL     1       7.770   5.534  17.766  0.00  0.00    +0.000 A 
ATOM     29  C   UNL     1       7.310   5.696  19.064  0.00  0.00    +0.000 A 
ATOM     30  C   UNL     1       6.032   5.249  19.417  0.00  0.00    +0.000 A 
ATOM     31  C   UNL     1       5.166   4.631  18.480  0.00  0.00    +0.000 A 
ENDBRANCH   8  22
TORSDOF 2
ENDMDL
MODEL 4
REMARK VINA RESULT:      -8.6      2.943      8.989
REMARK  Name = 
REMARK  2 active torsions:
REMARK  status: ('A' for Active; 'I' for Inactive)
REMARK    1  A    between atoms: C_8  and  N_9
REMARK    2  A    between atoms: C_16  and  C_17
REMARK                            x       y       z     vdW  Elec       q    Type
REMARK                         _______ _______ _______ _____ _____    ______ ____
ROOT
ATOM      1  N   UNL     1       0.753   6.849  20.838  0.00  0.00    +0.000 N 
ATOM      2  C   UNL     1       1.949   6.246  20.505  0.00  0.00    +0.000 C 
ATOM      3  O   UNL     1       2.997   6.864  20.334  0.00  0.00    +0.000 OA
ATOM      4  N   UNL     1       1.927   4.869  20.414  0.00  0.00    +0.000 N 
ATOM      5  C   UNL     1       0.842   3.932  20.644  0.00  0.00    +0.000 C 
ATOM      6  C   UNL     1       1.533   2.731  21.261  0.00  0.00    +0.000 C 
ATOM      7  C   UNL     1       2.893   2.694  20.572  0.00  0.00    +0.000 C 
ATOM      8  C   UNL     1       3.194   4.154  20.191  0.00  0.00    +0.000 C 
ATOM      9  H   UNL     1       0.046   6.259  21.240  0.00  0.00    +0.000 HD
ENDROOT
BRANCH   1  17
ATOM     10  O   UNL     1      -0.337  13.145  22.197  0.00  0.00    +0.000 OA
ATOM     11  C   UNL     1       0.151  12.419  21.354  0.00  0.00    +0.000 C 
ATOM     12  N   UNL     1       0.782  12.769  20.202  0.00  0.00    +0.000 N 
ATOM     13  C   UNL     1       1.203  11.687  19.490  0.00  0.00    +0.000 C 
ATOM     14  O   UNL     1       1.782  11.678  18.423  0.00  0.00    +0.000 OA
ATOM     15  C   UNL     1       0.815  10.511  20.269  0.00  0.00    +0.000 A 
ATOM     16  C   UNL     1       1.016   9.169  20.018  0.00  0.00    +0.000 A 
ATOM     17  C   UNL     1       0.553   8.247  20.967  0.00  0.00    +0.000 A 
ATOM     18  C   UNL     1      -0.139   8.710  22.115  0.00  0.00    +0.000 A 
ATOM     19  C   UNL     1      -0.330  10.081  22.348  0.00  0.00    +0.000 A 
ATOM     20  C   UNL     1       0.168  10.957  21.406  0.00  0.00    +0.000 A 
ATOM     21  H   UNL     1       0.925  13.719  19.898  0.00  0.00    +0.000 HD
ENDBRANCH   1  17
BRANCH   8  22
ATOM     22  C   UNL     1       3.733   4.230  18.761  0.00  0.00    +0.000 A 
ATOM     23  C   UNL     1       2.941   3.739  17.702  0.00  0.00    +0.000 A 
ATOM     24  C   UNL     1       3.407   3.725  16.393  0.00  0.00    +0.000 A 
ATOM     25  C   UNL     1       4.680   4.201  16.109  0.00  0.00    +0.000 A 
ATOM     26  C   UNL     1       5.502   4.703  17.125  0.00  0.00    +0.000 A 
ATOM     27  C   UNL     1       6.779   5.186  16.797  0.00  0.00    +0.000 A 
ATOM     28  C   UNL     1       7.627   5.698  17.774  0.00  0.00    +0.000 A 
ATOM     29  C   UNL     1       7.207   5.728  19.095  0.00  0.00    +0.000 A 
ATOM     30  C   UNL     1       5.939   5.247  19.440  0.00  0.00    +0.000 A 
ATOM     31  C   UNL     1       5.045   4.725  18.472  0.00  0.00    +0.000 A 
ENDBRANCH   8  22
TORSDOF 2
ENDMDL
MODEL 5
REMARK VINA RESULT:      -8.4      1.457      2.003
REMARK  Name = 
REMARK  2 active torsions:
REMARK  status: ('A' for Active; 'I' for Inactive)
REMARK    1  A    between atoms: C_8  and  N_9
REMARK    2  A    between atoms: C_16  and  C_17
REMARK                            x       y       z     vdW  Elec       q    Type
REMARK                         _______ _______ _______ _____ _____    ______ ____
ROOT
ATOM      1  N   UNL     1       1.514   9.599  19.150  0.00  0.00    +0.000 N 
ATOM      2  C   UNL     1       0.233  10.080  19.329  0.00  0.00    +0.000 C 
ATOM      3  O   UNL     1      -0.703   9.390  19.727  0.00  0.00    +0.000 OA
ATOM      4  N   UNL     1       0.051  11.425  19.079  0.00  0.00    +0.000 N 
ATOM      5  C   UNL     1       1.008  12.441  18.679  0.00  0.00    +0.000 C 
ATOM      6  C   UNL     1       0.526  13.687  19.398  0.00  0.00    +0.000 C 
ATOM      7  C   UNL     1      -0.993  13.545  19.403  0.00  0.00    +0.000 C 
ATOM      8  C   UNL     1      -1.258  12.030  19.374  0.00  0.00    +0.000 C 
ATOM      9  H   UNL     1       2.252  10.281  19.114  0.00  0.00    +0.000 HD
ENDROOT
BRANCH   1  17
ATOM     10  O   UNL     1       2.790   3.352  20.570  0.00  0.00    +0.000 OA
ATOM     11  C   UNL     1       2.998   4.204  19.729  0.00  0.00    +0.000 C 
ATOM     12  N   UNL     1       3.680   4.084  18.559  0.00  0.00    +0.000 N 
ATOM     13  C   UNL     1       3.717   5.252  17.858  0.00  0.00    +0.000 C 
ATOM     14  O   UNL     1       4.257   5.462  16.792  0.00  0.00    +0.000 OA
ATOM     15  C   UNL     1       2.970   6.228  18.652  0.00  0.00    +0.000 A 
ATOM     16  C   UNL     1       2.683   7.553  18.397  0.00  0.00    +0.000 A 
ATOM     17  C   UNL     1       1.913   8.252  19.336  0.00  0.00    +0.000 A 
ATOM     18  C   UNL     1       1.497   7.599  20.525  0.00  0.00    +0.000 A 
ATOM     19  C   UNL     1       1.800   6.249  20.761  0.00  0.00    +0.000 A 
ATOM     20  C   UNL     1       2.534   5.589  19.798  0.00  0.00    +0.000 A 
ATOM     21  H   UNL     1       4.115   3.234  18.238  0.00  0.00    +0.000 HD
ENDBRANCH   1  17
BRANCH   8  22
ATOM     22  C   UNL     1      -2.361  11.702  18.366  0.00  0.00    +0.000 A 
ATOM     23  C   UNL     1      -2.001  11.279  17.069  0.00  0.00    +0.000 A 
ATOM     24  C   UNL     1      -2.960  11.030  16.094  0.00  0.00    +0.000 A 
ATOM     25  C   UNL     1      -4.305  11.200  16.392  0.00  0.00    +0.000 A 
ATOM     26  C   UNL     1      -4.712  11.613  17.666  0.00  0.00    +0.000 A 
ATOM     27  C   UNL     1      -6.083  11.764  17.932  0.00  0.00    +0.000 A 
ATOM     28  C   UNL     1      -6.533  12.167  19.185  0.00  0.00    +0.000 A 
ATOM     29  C   UNL     1      -5.612  12.432  20.188  0.00  0.00    +0.000 A 
ATOM     30  C   UNL     1      -4.242  12.292  19.938  0.00  0.00    +0.000 A 
ATOM     31  C   UNL     1      -3.747  11.875  18.677  0.00  0.00    +0.000 A 
ENDBRANCH   8  22
TORSDOF 2
ENDMDL
MODEL 6
REMARK VINA RESULT:      -8.4      1.291      1.380
REMARK  Name = 
REMARK  2 active torsions:
REMARK  status: ('A' for Active; 'I' for Inactive)
REMARK    1  A    between atoms: C_8  and  N_9
REMARK    2  A    between atoms: C_16  and  C_17
REMARK                            x       y       z     vdW  Elec       q    Type
REMARK                         _______ _______ _______ _____ _____    ______ ____
ROOT
ATOM      1  N   UNL     1       2.566   8.528  18.365  0.00  0.00    +0.000 N 
ATOM      2  C   UNL     1       1.470   9.195  18.872  0.00  0.00    +0.000 C 
ATOM      3  O   UNL     1       0.644   8.676  19.619  0.00  0.00    +0.000 OA
ATOM      4  N   UNL     1       1.359  10.527  18.529  0.00  0.00    +0.000 N 
ATOM      5  C   UNL     1       2.239  11.366  17.734  0.00  0.00    +0.000 C 
ATOM      6  C   UNL     1       2.148  12.720  18.410  0.00  0.00    +0.000 C 
ATOM      7  C   UNL     1       0.706  12.791  18.902  0.00  0.00    +0.000 C 
ATOM      8  C   UNL     1       0.287  11.330  19.139  0.00  0.00    +0.000 C 
ATOM      9  H   UNL     1       3.321   9.096  18.021  0.00  0.00    +0.000 HD
ENDROOT
BRANCH   1  17
ATOM     10  O   UNL     1       3.373   2.240  19.937  0.00  0.00    +0.000 OA
ATOM     11  C   UNL     1       3.620   3.047  19.063  0.00  0.00    +0.000 C 
ATOM     12  N   UNL     1       4.248   2.838  17.876  0.00  0.00    +0.000 N 
ATOM     13  C   UNL     1       4.357   3.978  17.139  0.00  0.00    +0.000 C 
ATOM     14  O   UNL     1       4.875   4.112  16.049  0.00  0.00    +0.000 OA
ATOM     15  C   UNL     1       3.721   5.035  17.925  0.00  0.00    +0.000 A 
ATOM     16  C   UNL     1       3.536   6.372  17.638  0.00  0.00    +0.000 A 
ATOM     17  C   UNL     1       2.859   7.158  18.580  0.00  0.00    +0.000 A 
ATOM     18  C   UNL     1       2.433   6.577  19.801  0.00  0.00    +0.000 A 
ATOM     19  C   UNL     1       2.632   5.214  20.070  0.00  0.00    +0.000 A 
ATOM     20  C   UNL     1       3.275   4.467  19.104  0.00  0.00    +0.000 A 
ATOM     21  H   UNL     1       4.600   1.945  17.568  0.00  0.00    +0.000 HD
ENDBRANCH   1  17
BRANCH   8  22
ATOM     22  C   UNL     1      -1.110  11.078  18.568  0.00  0.00    +0.000 A 
ATOM     23  C   UNL     1      -1.246  10.266  17.422  0.00  0.00    +0.000 A 
ATOM     24  C   UNL     1      -2.483  10.056  16.825  0.00  0.00    +0.000 A 
ATOM     25  C   UNL     1      -3.617  10.655  17.357  0.00  0.00    +0.000 A 
ATOM     26  C   UNL     1      -3.533  11.465  18.497  0.00  0.00    +0.000 A 
ATOM     27  C   UNL     1      -4.704  12.044  19.012  0.00  0.00    +0.000 A 
ATOM     28  C   UNL     1      -4.668  12.852  20.145  0.00  0.00    +0.000 A 
ATOM     29  C   UNL     1      -3.455  13.093  20.773  0.00  0.00    +0.000 A 
ATOM     30  C   UNL     1      -2.279  12.528  20.269  0.00  0.00    +0.000 A 
ATOM     31  C   UNL     1      -2.276  11.694  19.123  0.00  0.00    +0.000 A 
ENDBRANCH   8  22
TORSDOF 2
ENDMDL
MODEL 7
REMARK VINA RESULT:      -8.1      2.595      4.659
REMARK  Name = 
REMARK  2 active torsions:
REMARK  status: ('A' for Active; 'I' for Inactive)
REMARK    1  A    between atoms: C_8  and  N_9
REMARK    2  A    between atoms: C_16  and  C_17
REMARK                            x       y       z     vdW  Elec       q    Type
REMARK                         _______ _______ _______ _____ _____    ______ ____
ROOT
ATOM      1  N   UNL     1       1.195   8.711  18.656  0.00  0.00    +0.000 N 
ATOM      2  C   UNL     1       1.347  10.077  18.530  0.00  0.00    +0.000 C 
ATOM      3  O   UNL     1       2.424  10.623  18.305  0.00  0.00    +0.000 OA
ATOM      4  N   UNL     1       0.192  10.826  18.627  0.00  0.00    +0.000 N 
ATOM      5  C   UNL     1      -1.186  10.404  18.812  0.00  0.00    +0.000 C 
ATOM      6  C   UNL     1      -1.978  11.401  17.988  0.00  0.00    +0.000 C 
ATOM      7  C   UNL     1      -1.196  12.703  18.132  0.00  0.00    +0.000 C 
ATOM      8  C   UNL     1       0.263  12.274  18.372  0.00  0.00    +0.000 C 
ATOM      9  H   UNL     1       0.265   8.348  18.543  0.00  0.00    +0.000 HD
ENDROOT
BRANCH   1  17
ATOM     10  O   UNL     1       5.678   3.974  19.012  0.00  0.00    +0.000 OA
ATOM     11  C   UNL     1       5.299   4.880  18.297  0.00  0.00    +0.000 C 
ATOM     12  N   UNL     1       5.772   5.247  17.076  0.00  0.00    +0.000 N 
ATOM     13  C   UNL     1       5.106   6.317  16.561  0.00  0.00    +0.000 C 
ATOM     14  O   UNL     1       5.306   6.878  15.503  0.00  0.00    +0.000 OA
ATOM     15  C   UNL     1       4.085   6.676  17.546  0.00  0.00    +0.000 A 
ATOM     16  C   UNL     1       3.127   7.668  17.517  0.00  0.00    +0.000 A 
ATOM     17  C   UNL     1       2.249   7.766  18.606  0.00  0.00    +0.000 A 
ATOM     18  C   UNL     1       2.400   6.886  19.708  0.00  0.00    +0.000 A 
ATOM     19  C   UNL     1       3.382   5.883  19.713  0.00  0.00    +0.000 A 
ATOM     20  C   UNL     1       4.206   5.800  18.610  0.00  0.00    +0.000 A 
ATOM     21  H   UNL     1       6.531   4.786  16.600  0.00  0.00    +0.000 HD
ENDBRANCH   1  17
BRANCH   8  22
ATOM     22  C   UNL     1       0.878  13.097  19.505  0.00  0.00    +0.000 A 
ATOM     23  C   UNL     1       0.246  13.109  20.766  0.00  0.00    +0.000 A 
ATOM     24  C   UNL     1       0.726  13.889  21.812  0.00  0.00    +0.000 A 
ATOM     25  C   UNL     1       1.852  14.679  21.622  0.00  0.00    +0.000 A 
ATOM     26  C   UNL     1       2.517  14.696  20.390  0.00  0.00    +0.000 A 
ATOM     27  C   UNL     1       3.659  15.500  20.240  0.00  0.00    +0.000 A 
ATOM     28  C   UNL     1       4.355  15.544  19.036  0.00  0.00    +0.000 A 
ATOM     29  C   UNL     1       3.910  14.786  17.963  0.00  0.00    +0.000 A 
ATOM     30  C   UNL     1       2.771  13.984  18.094  0.00  0.00    +0.000 A 
ATOM     31  C   UNL     1       2.041  13.907  19.307  0.00  0.00    +0.000 A 
ENDBRANCH   8  22
TORSDOF 2
ENDMDL
MODEL 8
REMARK VINA RESULT:      -8.1      1.308      1.450
REMARK  Name = 
REMARK  2 active torsions:
REMARK  status: ('A' for Active; 'I' for Inactive)
REMARK    1  A    between atoms: C_8  and  N_9
REMARK    2  A    between atoms: C_16  and  C_17
REMARK                            x       y       z     vdW  Elec       q    Type
REMARK                         _______ _______ _______ _____ _____    ______ ____
ROOT
ATOM      1  N   UNL     1       2.763   8.235  18.274  0.00  0.00    +0.000 N 
ATOM      2  C   UNL     1       1.699   8.933  18.806  0.00  0.00    +0.000 C 
ATOM      3  O   UNL     1       0.896   8.447  19.600  0.00  0.00    +0.000 OA
ATOM      4  N   UNL     1       1.595  10.257  18.433  0.00  0.00    +0.000 N 
ATOM      5  C   UNL     1       2.454  11.060  17.581  0.00  0.00    +0.000 C 
ATOM      6  C   UNL     1       2.412  12.433  18.224  0.00  0.00    +0.000 C 
ATOM      7  C   UNL     1       0.993  12.541  18.771  0.00  0.00    +0.000 C 
ATOM      8  C   UNL     1       0.561  11.093  19.064  0.00  0.00    +0.000 C 
ATOM      9  H   UNL     1       3.512   8.781  17.885  0.00  0.00    +0.000 HD
ENDROOT
BRANCH   1  17
ATOM     10  O   UNL     1       4.655   2.180  19.832  0.00  0.00    +0.000 OA
ATOM     11  C   UNL     1       3.726   2.798  19.351  0.00  0.00    +0.000 C 
ATOM     12  N   UNL     1       2.526   2.322  18.926  0.00  0.00    +0.000 N 
ATOM     13  C   UNL     1       1.720   3.305  18.437  0.00  0.00    +0.000 C 
ATOM     14  O   UNL     1       0.603   3.190  17.977  0.00  0.00    +0.000 OA
ATOM     15  C   UNL     1       2.472   4.553  18.570  0.00  0.00    +0.000 A 
ATOM     16  C   UNL     1       2.118   5.847  18.249  0.00  0.00    +0.000 A 
ATOM     17  C   UNL     1       3.043   6.866  18.514  0.00  0.00    +0.000 A 
ATOM     18  C   UNL     1       4.313   6.537  19.051  0.00  0.00    +0.000 A 
ATOM     19  C   UNL     1       4.650   5.213  19.372  0.00  0.00    +0.000 A 
ATOM     20  C   UNL     1       3.701   4.243  19.124  0.00  0.00    +0.000 A 
ATOM     21  H   UNL     1       2.254   1.352  18.962  0.00  0.00    +0.000 HD
ENDBRANCH   1  17
BRANCH   8  22
ATOM     22  C   UNL     1      -0.862  10.849  18.557  0.00  0.00    +0.000 A 
ATOM     23  C   UNL     1      -1.060   9.984  17.461  0.00  0.00    +0.000 A 
ATOM     24  C   UNL     1      -2.323   9.776  16.919  0.00  0.00    +0.000 A 
ATOM     25  C   UNL     1      -3.421  10.432  17.459  0.00  0.00    +0.000 A 
ATOM     26  C   UNL     1      -3.276  11.296  18.551  0.00  0.00    +0.000 A 
ATOM     27  C   UNL     1      -4.412  11.933  19.077  0.00  0.00    +0.000 A 
ATOM     28  C   UNL     1      -4.315  12.796  20.164  0.00  0.00    +0.000 A 
ATOM     29  C   UNL     1      -3.074  13.037  20.735  0.00  0.00    +0.000 A 
ATOM     30  C   UNL     1      -1.931  12.415  20.220  0.00  0.00    +0.000 A 
ATOM     31  C   UNL     1      -1.992  11.524  19.119  0.00  0.00    +0.000 A 
ENDBRANCH   8  22
TORSDOF 2
ENDMDL
MODEL 9
REMARK VINA RESULT:      -8.1      6.165      9.977
REMARK  Name = 
REMARK  2 active torsions:
REMARK  status: ('A' for Active; 'I' for Inactive)
REMARK    1  A    between atoms: C_8  and  N_9
REMARK    2  A    between atoms: C_16  and  C_17
REMARK                            x       y       z     vdW  Elec       q    Type
REMARK                         _______ _______ _______ _____ _____    ______ ____
ROOT
ATOM      1  N   UNL     1       8.690   8.445  18.797  0.00  0.00    +0.000 N 
ATOM      2  C   UNL     1       7.621   8.052  18.019  0.00  0.00    +0.000 C 
ATOM      3  O   UNL     1       6.966   8.825  17.323  0.00  0.00    +0.000 OA
ATOM      4  N   UNL     1       7.335   6.702  18.020  0.00  0.00    +0.000 N 
ATOM      5  C   UNL     1       8.005   5.604  18.693  0.00  0.00    +0.000 C 
ATOM      6  C   UNL     1       7.884   4.456  17.709  0.00  0.00    +0.000 C 
ATOM      7  C   UNL     1       6.529   4.679  17.046  0.00  0.00    +0.000 C 
ATOM      8  C   UNL     1       6.291   6.198  17.113  0.00  0.00    +0.000 C 
ATOM      9  H   UNL     1       9.329   7.724  19.084  0.00  0.00    +0.000 HD
ENDROOT
BRANCH   1  17
ATOM     10  O   UNL     1      10.696  14.661  18.710  0.00  0.00    +0.000 OA
ATOM     11  C   UNL     1      10.302  13.794  19.464  0.00  0.00    +0.000 C 
ATOM     12  N   UNL     1      10.080  13.876  20.803  0.00  0.00    +0.000 N 
ATOM     13  C   UNL     1       9.639  12.700  21.330  0.00  0.00    +0.000 C 
ATOM     14  O   UNL     1       9.369  12.459  22.488  0.00  0.00    +0.000 OA
ATOM     15  C   UNL     1       9.554  11.759  20.213  0.00  0.00    +0.000 A 
ATOM     16  C   UNL     1       9.146  10.441  20.185  0.00  0.00    +0.000 A 
ATOM     17  C   UNL     1       9.141   9.780  18.949  0.00  0.00    +0.000 A 
ATOM     18  C   UNL     1       9.593  10.460  17.790  0.00  0.00    +0.000 A 
ATOM     19  C   UNL     1      10.002  11.802  17.843  0.00  0.00    +0.000 A 
ATOM     20  C   UNL     1       9.963  12.426  19.073  0.00  0.00    +0.000 A 
ATOM     21  H   UNL     1      10.225  14.708  21.353  0.00  0.00    +0.000 HD
ENDBRANCH   1  17
BRANCH   8  22
ATOM     22  C   UNL     1       4.856   6.492  17.557  0.00  0.00    +0.000 A 
ATOM     23  C   UNL     1       4.220   7.661  17.090  0.00  0.00    +0.000 A 
ATOM     24  C   UNL     1       2.942   8.009  17.511  0.00  0.00    +0.000 A 
ATOM     25  C   UNL     1       2.268   7.196  18.412  0.00  0.00    +0.000 A 
ATOM     26  C   UNL     1       2.855   6.023  18.899  0.00  0.00    +0.000 A 
ATOM     27  C   UNL     1       2.137   5.221  19.801  0.00  0.00    +0.000 A 
ATOM     28  C   UNL     1       2.680   4.044  20.307  0.00  0.00    +0.000 A 
ATOM     29  C   UNL     1       3.955   3.658  19.919  0.00  0.00    +0.000 A 
ATOM     30  C   UNL     1       4.686   4.448  19.025  0.00  0.00    +0.000 A 
ATOM     31  C   UNL     1       4.163   5.649  18.483  0.00  0.00    +0.000 A 
ENDBRANCH   8  22
TORSDOF 2
ENDMDL
