MODEL 1
REMARK VINA RESULT:      -8.5      0.000      0.000
REMARK  Name = 
REMARK  5 active torsions:
REMARK  status: ('A' for Active; 'I' for Inactive)
REMARK    1  A    between atoms: C_1  and  C_2
REMARK    2  A    between atoms: C_7  and  C_8
REMARK    3  A    between atoms: C_8  and  N_9
REMARK    4  A    between atoms: C_13  and  C_14
REMARK    5  A    between atoms: C_13  and  C_15
REMARK                            x       y       z     vdW  Elec       q    Type
REMARK                         _______ _______ _______ _____ _____    ______ ____
ROOT
ATOM      1  N   UNL     1       3.947   2.550  18.094  0.00  0.00    +0.000 N 
ATOM      2  C   UNL     1       4.047   2.304  19.428  0.00  0.00    +0.000 C 
ATOM      3  O   UNL     1       5.050   2.142  20.100  0.00  0.00    +0.000 OA
ATOM      4  N   UNL     1       2.774   2.319  19.970  0.00  0.00    +0.000 N 
ATOM      5  C   UNL     1       1.826   2.925  19.066  0.00  0.00    +0.000 C 
ATOM      6  C   UNL     1       0.514   2.151  19.023  0.00  0.00    +0.000 C 
ATOM      7  C   UNL     1       2.641   2.776  17.751  0.00  0.00    +0.000 C 
ATOM      8  O   UNL     1       2.216   2.948  16.617  0.00  0.00    +0.000 OA
ATOM      9  H   UNL     1       2.674   2.300  20.976  0.00  0.00    +0.000 HD
ENDROOT
BRANCH   5  10
ATOM     10  C   UNL     1       1.635   4.425  19.338  0.00  0.00    +0.000 A 
ATOM     11  C   UNL     1       1.456   4.948  20.649  0.00  0.00    +0.000 A 
ATOM     12  C   UNL     1       1.494   6.324  20.899  0.00  0.00    +0.000 A 
ATOM     13  C   UNL     1       1.727   7.157  19.831  0.00  0.00    +0.000 A 
ATOM     14  C   UNL     1       1.853   6.672  18.551  0.00  0.00    +0.000 A 
ATOM     15  C   UNL     1       1.794   5.328  18.268  0.00  0.00    +0.000 A 
ATOM     16  O   UNL     1       2.128   7.653  17.649  0.00  0.00    +0.000 OA
ATOM     17  C   UNL     1       2.453   8.724  18.556  0.00  0.00    +0.000 C 
ATOM     18  O   UNL     1       1.936   8.500  19.885  0.00  0.00    +0.000 OA
ENDBRANCH   5  10
BRANCH   1  19
ATOM     19  C   UNL     1       5.055   2.648  17.172  0.00  0.00    +0.000 C 
BRANCH  19  26
ATOM     20  C   UNL     1       8.668   9.595  17.974  0.00  0.00    +0.000 C 
ATOM     21  C   UNL     1       8.035   8.237  17.993  0.00  0.00    +0.000 A 
ATOM     22  C   UNL     1       8.438   7.289  19.005  0.00  0.00    +0.000 A 
ATOM     23  C   UNL     1       7.913   6.057  19.040  0.00  0.00    +0.000 A 
ATOM     24  C   UNL     1       6.908   5.655  18.022  0.00  0.00    +0.000 A 
ATOM     25  N   UNL     1       6.438   4.447  18.061  0.00  0.00    +0.000 NA
ATOM     26  C   UNL     1       5.533   4.078  17.102  0.00  0.00    +0.000 A 
ATOM     27  C   UNL     1       5.069   4.917  16.167  0.00  0.00    +0.000 A 
ATOM     28  C   UNL     1       5.585   6.297  16.127  0.00  0.00    +0.000 A 
ATOM     29  O   UNL     1       5.153   7.061  15.267  0.00  0.00    +0.000 OA
ATOM     30  N   UNL     1       6.537   6.608  17.086  0.00  0.00    +0.000 N 
ATOM     31  C   UNL     1       7.110   7.873  17.089  0.00  0.00    +0.000 A 
ENDBRANCH  19  26
ENDBRANCH   1  19
TORSDOF 3
ENDMDL
MODEL 2
REMARK VINA RESULT:      -8.1      0.946      1.462
REMARK  Name = 
REMARK  5 active torsions:
REMARK  status: ('A' for Active; 'I' for Inactive)
REMARK    1  A    between atoms: C_1  and  C_2
REMARK    2  A    between atoms: C_7  and  C_8
REMARK    3  A    between atoms: C_8  and  N_9
REMARK    4  A    between atoms: C_13  and  C_14
REMARK    5  A    between atoms: C_13  and  C_15
REMARK                            x       y       z     vdW  Elec       q    Type
REMARK                         _______ _______ _______ _____ _____    ______ ____
ROOT
ATOM      1  N   UNL     1       3.731   2.819  18.460  0.00  0.00    +0.000 N 
ATOM      2  C   UNL     1       3.917   2.503  19.770  0.00  0.00    +0.000 C 
ATOM      3  O   UNL     1       4.940   2.160  20.334  0.00  0.00    +0.000 OA
ATOM      4  N   UNL     1       2.719   2.689  20.437  0.00  0.00    +0.000 N 
ATOM      5  C   UNL     1       1.796   3.472  19.649  0.00  0.00    +0.000 C 
ATOM      6  C   UNL     1       0.381   2.911  19.715  0.00  0.00    +0.000 C 
ATOM      7  C   UNL     1       2.451   3.257  18.255  0.00  0.00    +0.000 C 
ATOM      8  O   UNL     1       1.953   3.541  17.175  0.00  0.00    +0.000 OA
ATOM      9  H   UNL     1       2.712   2.642  21.447  0.00  0.00    +0.000 HD
ENDROOT
BRANCH   5  10
ATOM     10  C   UNL     1       1.869   4.970  19.981  0.00  0.00    +0.000 A 
ATOM     11  C   UNL     1       2.746   5.862  19.303  0.00  0.00    +0.000 A 
ATOM     12  C   UNL     1       2.650   7.248  19.469  0.00  0.00    +0.000 A 
ATOM     13  C   UNL     1       1.665   7.722  20.302  0.00  0.00    +0.000 A 
ATOM     14  C   UNL     1       0.842   6.872  21.002  0.00  0.00    +0.000 A 
ATOM     15  C   UNL     1       0.928   5.505  20.882  0.00  0.00    +0.000 A 
ATOM     16  O   UNL     1      -0.094   7.540  21.729  0.00  0.00    +0.000 OA
ATOM     17  C   UNL     1       0.056   8.854  21.160  0.00  0.00    +0.000 C 
ATOM     18  O   UNL     1       1.322   9.025  20.487  0.00  0.00    +0.000 OA
ENDBRANCH   5  10
BRANCH   1  19
ATOM     19  C   UNL     1       4.749   2.786  17.436  0.00  0.00    +0.000 C 
BRANCH  19  26
ATOM     20  C   UNL     1       8.860   9.488  17.806  0.00  0.00    +0.000 C 
ATOM     21  C   UNL     1       8.121   8.189  17.912  0.00  0.00    +0.000 A 
ATOM     22  C   UNL     1       8.399   7.313  19.026  0.00  0.00    +0.000 A 
ATOM     23  C   UNL     1       7.777   6.132  19.142  0.00  0.00    +0.000 A 
ATOM     24  C   UNL     1       6.792   5.712  18.111  0.00  0.00    +0.000 A 
ATOM     25  N   UNL     1       6.227   4.552  18.233  0.00  0.00    +0.000 NA
ATOM     26  C   UNL     1       5.342   4.163  17.263  0.00  0.00    +0.000 A 
ATOM     27  C   UNL     1       4.991   4.943  16.233  0.00  0.00    +0.000 A 
ATOM     28  C   UNL     1       5.616   6.271  16.098  0.00  0.00    +0.000 A 
ATOM     29  O   UNL     1       5.287   6.981  15.150  0.00  0.00    +0.000 OA
ATOM     30  N   UNL     1       6.543   6.599  17.075  0.00  0.00    +0.000 N 
ATOM     31  C   UNL     1       7.214   7.812  16.996  0.00  0.00    +0.000 A 
ENDBRANCH  19  26
ENDBRANCH   1  19
TORSDOF 3
ENDMDL
MODEL 3
REMARK VINA RESULT:      -7.6      7.198     10.233
REMARK  Name = 
REMARK  5 active torsions:
REMARK  status: ('A' for Active; 'I' for Inactive)
REMARK    1  A    between atoms: C_1  and  C_2
REMARK    2  A    between atoms: C_7  and  C_8
REMARK    3  A    between atoms: C_8  and  N_9
REMARK    4  A    between atoms: C_13  and  C_14
REMARK    5  A    between atoms: C_13  and  C_15
REMARK                            x       y       z     vdW  Elec       q    Type
REMARK                         _______ _______ _______ _____ _____    ______ ____
ROOT
ATOM      1  N   UNL     1      -2.350  13.682  21.998  0.00  0.00    +0.000 N 
ATOM      2  C   UNL     1      -2.378  14.734  21.136  0.00  0.00    +0.000 C 
ATOM      3  O   UNL     1      -1.456  15.436  20.761  0.00  0.00    +0.000 OA
ATOM      4  N   UNL     1      -3.671  14.877  20.665  0.00  0.00    +0.000 N 
ATOM      5  C   UNL     1      -4.461  13.700  20.936  0.00  0.00    +0.000 C 
ATOM      6  C   UNL     1      -5.862  14.059  21.417  0.00  0.00    +0.000 C 
ATOM      7  C   UNL     1      -3.585  13.096  22.069  0.00  0.00    +0.000 C 
ATOM      8  O   UNL     1      -3.903  12.179  22.813  0.00  0.00    +0.000 OA
ATOM      9  H   UNL     1      -3.842  15.518  19.902  0.00  0.00    +0.000 HD
ENDROOT
BRANCH   5  10
ATOM     10  C   UNL     1      -4.461  12.711  19.759  0.00  0.00    +0.000 A 
ATOM     11  C   UNL     1      -5.636  12.401  19.021  0.00  0.00    +0.000 A 
ATOM     12  C   UNL     1      -5.580  11.668  17.830  0.00  0.00    +0.000 A 
ATOM     13  C   UNL     1      -4.342  11.269  17.389  0.00  0.00    +0.000 A 
ATOM     14  C   UNL     1      -3.202  11.518  18.115  0.00  0.00    +0.000 A 
ATOM     15  C   UNL     1      -3.226  12.212  19.301  0.00  0.00    +0.000 A 
ATOM     16  O   UNL     1      -2.078  11.085  17.481  0.00  0.00    +0.000 OA
ATOM     17  C   UNL     1      -2.627  10.828  16.174  0.00  0.00    +0.000 C 
ATOM     18  O   UNL     1      -4.063  10.674  16.197  0.00  0.00    +0.000 OA
ENDBRANCH   5  10
BRANCH   1  19
ATOM     19  C   UNL     1      -1.178  13.187  22.682  0.00  0.00    +0.000 C 
BRANCH  19  26
ATOM     20  C   UNL     1       2.461   8.168  17.832  0.00  0.00    +0.000 C 
ATOM     21  C   UNL     1       1.772   9.243  18.617  0.00  0.00    +0.000 A 
ATOM     22  C   UNL     1       1.829  10.605  18.141  0.00  0.00    +0.000 A 
ATOM     23  C   UNL     1       1.247  11.598  18.827  0.00  0.00    +0.000 A 
ATOM     24  C   UNL     1       0.537  11.298  20.097  0.00  0.00    +0.000 A 
ATOM     25  N   UNL     1       0.008  12.281  20.756  0.00  0.00    +0.000 NA
ATOM     26  C   UNL     1      -0.620  11.998  21.939  0.00  0.00    +0.000 A 
ATOM     27  C   UNL     1      -0.764  10.755  22.417  0.00  0.00    +0.000 A 
ATOM     28  C   UNL     1      -0.180   9.630  21.664  0.00  0.00    +0.000 A 
ATOM     29  O   UNL     1      -0.318   8.492  22.107  0.00  0.00    +0.000 OA
ATOM     30  N   UNL     1       0.489   9.972  20.499  0.00  0.00    +0.000 N 
ATOM     31  C   UNL     1       1.110   8.977  19.755  0.00  0.00    +0.000 A 
ENDBRANCH  19  26
ENDBRANCH   1  19
TORSDOF 3
ENDMDL
MODEL 4
REMARK VINA RESULT:      -7.6      7.725     11.227
REMARK  Name = 
REMARK  5 active torsions:
REMARK  status: ('A' for Active; 'I' for Inactive)
REMARK    1  A    between atoms: C_1  and  C_2
REMARK    2  A    between atoms: C_7  and  C_8
REMARK    3  A    between atoms: C_8  and  N_9
REMARK    4  A    between atoms: C_13  and  C_14
REMARK    5  A    between atoms: C_13  and  C_15
REMARK                            x       y       z     vdW  Elec       q    Type
REMARK                         _______ _______ _______ _____ _____    ______ ____
ROOT
ATOM      1  N   UNL     1      -0.064  11.481  21.336  0.00  0.00    +0.000 N 
ATOM      2  C   UNL     1      -0.236  10.147  21.542  0.00  0.00    +0.000 C 
ATOM      3  O   UNL     1      -0.632   9.575  22.541  0.00  0.00    +0.000 OA
ATOM      4  N   UNL     1       0.067   9.482  20.366  0.00  0.00    +0.000 N 
ATOM      5  C   UNL     1       0.109  10.392  19.246  0.00  0.00    +0.000 C 
ATOM      6  C   UNL     1       1.285  10.098  18.324  0.00  0.00    +0.000 C 
ATOM      7  C   UNL     1       0.297  11.717  20.037  0.00  0.00    +0.000 C 
ATOM      8  O   UNL     1       0.599  12.802  19.562  0.00  0.00    +0.000 OA
ATOM      9  H   UNL     1      -0.148   8.497  20.296  0.00  0.00    +0.000 HD
ENDROOT
BRANCH   5  10
ATOM     10  C   UNL     1      -1.235  10.470  18.505  0.00  0.00    +0.000 A 
ATOM     11  C   UNL     1      -2.280  11.349  18.905  0.00  0.00    +0.000 A 
ATOM     12  C   UNL     1      -3.407  11.559  18.102  0.00  0.00    +0.000 A 
ATOM     13  C   UNL     1      -3.463  10.895  16.901  0.00  0.00    +0.000 A 
ATOM     14  C   UNL     1      -2.486  10.005  16.522  0.00  0.00    +0.000 A 
ATOM     15  C   UNL     1      -1.380   9.756  17.299  0.00  0.00    +0.000 A 
ATOM     16  O   UNL     1      -2.704   9.494  15.279  0.00  0.00    +0.000 OA
ATOM     17  C   UNL     1      -3.739  10.390  14.832  0.00  0.00    +0.000 C 
ATOM     18  O   UNL     1      -4.396  11.067  15.926  0.00  0.00    +0.000 OA
ENDBRANCH   5  10
BRANCH   1  19
ATOM     19  C   UNL     1      -0.307  12.519  22.311  0.00  0.00    +0.000 C 
BRANCH  19  26
ATOM     20  C   UNL     1      -7.916  14.370  21.522  0.00  0.00    +0.000 C 
ATOM     21  C   UNL     1      -6.434  14.155  21.555  0.00  0.00    +0.000 A 
ATOM     22  C   UNL     1      -5.617  14.739  20.518  0.00  0.00    +0.000 A 
ATOM     23  C   UNL     1      -4.291  14.548  20.498  0.00  0.00    +0.000 A 
ATOM     24  C   UNL     1      -3.650  13.721  21.554  0.00  0.00    +0.000 A 
ATOM     25  N   UNL     1      -2.370  13.529  21.495  0.00  0.00    +0.000 NA
ATOM     26  C   UNL     1      -1.793  12.742  22.456  0.00  0.00    +0.000 A 
ATOM     27  C   UNL     1      -2.474  12.214  23.481  0.00  0.00    +0.000 A 
ATOM     28  C   UNL     1      -3.928  12.443  23.564  0.00  0.00    +0.000 A 
ATOM     29  O   UNL     1      -4.546  11.957  24.508  0.00  0.00    +0.000 OA
ATOM     30  N   UNL     1      -4.474  13.202  22.541  0.00  0.00    +0.000 N 
ATOM     31  C   UNL     1      -5.844  13.426  22.517  0.00  0.00    +0.000 A 
ENDBRANCH  19  26
ENDBRANCH   1  19
TORSDOF 3
ENDMDL
MODEL 5
REMARK VINA RESULT:      -7.6      2.356      5.691
REMARK  Name = 
REMARK  5 active torsions:
REMARK  status: ('A' for Active; 'I' for Inactive)
REMARK    1  A    between atoms: C_1  and  C_2
REMARK    2  A    between atoms: C_7  and  C_8
REMARK    3  A    between atoms: C_8  and  N_9
REMARK    4  A    between atoms: C_13  and  C_14
REMARK    5  A    between atoms: C_13  and  C_15
REMARK                            x       y       z     vdW  Elec       q    Type
REMARK                         _______ _______ _______ _____ _____    ______ ____
ROOT
ATOM      1  N   UNL     1       2.274   3.565  19.713  0.00  0.00    +0.000 N 
ATOM      2  C   UNL     1       1.603   3.343  18.550  0.00  0.00    +0.000 C 
ATOM      3  O   UNL     1       0.532   3.798  18.189  0.00  0.00    +0.000 OA
ATOM      4  N   UNL     1       2.376   2.519  17.752  0.00  0.00    +0.000 N 
ATOM      5  C   UNL     1       3.739   2.459  18.226  0.00  0.00    +0.000 C 
ATOM      6  C   UNL     1       4.291   1.039  18.177  0.00  0.00    +0.000 C 
ATOM      7  C   UNL     1       3.494   2.947  19.681  0.00  0.00    +0.000 C 
ATOM      8  O   UNL     1       4.296   2.894  20.602  0.00  0.00    +0.000 OA
ATOM      9  H   UNL     1       2.097   2.370  16.792  0.00  0.00    +0.000 HD
ENDROOT
BRANCH   5  10
ATOM     10  C   UNL     1       4.646   3.484  17.528  0.00  0.00    +0.000 A 
ATOM     11  C   UNL     1       5.616   4.252  18.232  0.00  0.00    +0.000 A 
ATOM     12  C   UNL     1       6.570   5.021  17.558  0.00  0.00    +0.000 A 
ATOM     13  C   UNL     1       6.548   4.997  16.184  0.00  0.00    +0.000 A 
ATOM     14  C   UNL     1       5.588   4.301  15.489  0.00  0.00    +0.000 A 
ATOM     15  C   UNL     1       4.621   3.557  16.122  0.00  0.00    +0.000 A 
ATOM     16  O   UNL     1       5.773   4.366  14.142  0.00  0.00    +0.000 OA
ATOM     17  C   UNL     1       7.105   4.914  14.112  0.00  0.00    +0.000 C 
ATOM     18  O   UNL     1       7.467   5.560  15.352  0.00  0.00    +0.000 OA
ENDBRANCH   5  10
BRANCH   1  19
ATOM     19  C   UNL     1       1.817   4.401  20.800  0.00  0.00    +0.000 C 
BRANCH  19  26
ATOM     20  C   UNL     1       0.770  12.152  19.924  0.00  0.00    +0.000 C 
ATOM     21  C   UNL     1       0.821  10.680  20.197  0.00  0.00    +0.000 A 
ATOM     22  C   UNL     1       0.069  10.147  21.309  0.00  0.00    +0.000 A 
ATOM     23  C   UNL     1       0.108   8.840  21.602  0.00  0.00    +0.000 A 
ATOM     24  C   UNL     1       0.940   7.925  20.777  0.00  0.00    +0.000 A 
ATOM     25  N   UNL     1       0.982   6.671  21.099  0.00  0.00    +0.000 NA
ATOM     26  C   UNL     1       1.773   5.841  20.350  0.00  0.00    +0.000 A 
ATOM     27  C   UNL     1       2.453   6.249  19.272  0.00  0.00    +0.000 A 
ATOM     28  C   UNL     1       2.395   7.671  18.888  0.00  0.00    +0.000 A 
ATOM     29  O   UNL     1       3.021   8.038  17.896  0.00  0.00    +0.000 OA
ATOM     30  N   UNL     1       1.623   8.481  19.706  0.00  0.00    +0.000 N 
ATOM     31  C   UNL     1       1.553   9.843  19.444  0.00  0.00    +0.000 A 
ENDBRANCH  19  26
ENDBRANCH   1  19
TORSDOF 3
ENDMDL
MODEL 6
REMARK VINA RESULT:      -7.5      7.935     11.430
REMARK  Name = 
REMARK  5 active torsions:
REMARK  status: ('A' for Active; 'I' for Inactive)
REMARK    1  A    between atoms: C_1  and  C_2
REMARK    2  A    between atoms: C_7  and  C_8
REMARK    3  A    between atoms: C_8  and  N_9
REMARK    4  A    between atoms: C_13  and  C_14
REMARK    5  A    between atoms: C_13  and  C_15
REMARK                            x       y       z     vdW  Elec       q    Type
REMARK                         _______ _______ _______ _____ _____    ______ ____
ROOT
ATOM      1  N   UNL     1      -0.005  12.053  21.363  0.00  0.00    +0.000 N 
ATOM      2  C   UNL     1      -0.153  10.748  21.720  0.00  0.00    +0.000 C 
ATOM      3  O   UNL     1      -0.529  10.287  22.783  0.00  0.00    +0.000 OA
ATOM      4  N   UNL     1       0.148   9.960  20.624  0.00  0.00    +0.000 N 
ATOM      5  C   UNL     1       0.164  10.738  19.407  0.00  0.00    +0.000 C 
ATOM      6  C   UNL     1       1.336  10.358  18.510  0.00  0.00    +0.000 C 
ATOM      7  C   UNL     1       0.339  12.146  20.041  0.00  0.00    +0.000 C 
ATOM      8  O   UNL     1       0.618  13.175  19.443  0.00  0.00    +0.000 OA
ATOM      9  H   UNL     1      -0.050   8.970  20.668  0.00  0.00    +0.000 HD
ENDROOT
BRANCH   5  10
ATOM     10  C   UNL     1      -1.189  10.710  18.678  0.00  0.00    +0.000 A 
ATOM     11  C   UNL     1      -2.287  11.523  19.074  0.00  0.00    +0.000 A 
ATOM     12  C   UNL     1      -3.433  11.642  18.279  0.00  0.00    +0.000 A 
ATOM     13  C   UNL     1      -3.454  10.954  17.090  0.00  0.00    +0.000 A 
ATOM     14  C   UNL     1      -2.422  10.127  16.716  0.00  0.00    +0.000 A 
ATOM     15  C   UNL     1      -1.295   9.968  17.487  0.00  0.00    +0.000 A 
ATOM     16  O   UNL     1      -2.616   9.580  15.485  0.00  0.00    +0.000 OA
ATOM     17  C   UNL     1      -3.713  10.396  15.033  0.00  0.00    +0.000 C 
ATOM     18  O   UNL     1      -4.405  11.046  16.121  0.00  0.00    +0.000 OA
ENDBRANCH   5  10
BRANCH   1  19
ATOM     19  C   UNL     1      -0.255  13.191  22.217  0.00  0.00    +0.000 C 
BRANCH  19  26
ATOM     20  C   UNL     1      -7.900  13.792  23.989  0.00  0.00    +0.000 C 
ATOM     21  C   UNL     1      -6.444  13.526  23.755  0.00  0.00    +0.000 A 
ATOM     22  C   UNL     1      -5.748  12.614  24.631  0.00  0.00    +0.000 A 
ATOM     23  C   UNL     1      -4.441  12.369  24.470  0.00  0.00    +0.000 A 
ATOM     24  C   UNL     1      -3.693  13.048  23.380  0.00  0.00    +0.000 A 
ATOM     25  N   UNL     1      -2.423  12.816  23.265  0.00  0.00    +0.000 NA
ATOM     26  C   UNL     1      -1.738  13.468  22.274  0.00  0.00    +0.000 A 
ATOM     27  C   UNL     1      -2.323  14.284  21.389  0.00  0.00    +0.000 A 
ATOM     28  C   UNL     1      -3.771  14.539  21.503  0.00  0.00    +0.000 A 
ATOM     29  O   UNL     1      -4.301  15.287  20.685  0.00  0.00    +0.000 OA
ATOM     30  N   UNL     1      -4.411  13.897  22.551  0.00  0.00    +0.000 N 
ATOM     31  C   UNL     1      -5.766  14.120  22.759  0.00  0.00    +0.000 A 
ENDBRANCH  19  26
ENDBRANCH   1  19
TORSDOF 3
ENDMDL
MODEL 7
REMARK VINA RESULT:      -7.5      2.869      6.612
REMARK  Name = 
REMARK  5 active torsions:
REMARK  status: ('A' for Active; 'I' for Inactive)
REMARK    1  A    between atoms: C_1  and  C_2
REMARK    2  A    between atoms: C_7  and  C_8
REMARK    3  A    between atoms: C_8  and  N_9
REMARK    4  A    between atoms: C_13  and  C_14
REMARK    5  A    between atoms: C_13  and  C_15
REMARK                            x       y       z     vdW  Elec       q    Type
REMARK                         _______ _______ _______ _____ _____    ______ ____
ROOT
ATOM      1  N   UNL     1       3.728   5.298  18.344  0.00  0.00    +0.000 N 
ATOM      2  C   UNL     1       4.206   4.144  18.885  0.00  0.00    +0.000 C 
ATOM      3  O   UNL     1       3.584   3.181  19.297  0.00  0.00    +0.000 OA
ATOM      4  N   UNL     1       5.588   4.188  18.853  0.00  0.00    +0.000 N 
ATOM      5  C   UNL     1       6.059   5.226  17.966  0.00  0.00    +0.000 C 
ATOM      6  C   UNL     1       7.232   5.992  18.566  0.00  0.00    +0.000 C 
ATOM      7  C   UNL     1       4.763   6.081  17.910  0.00  0.00    +0.000 C 
ATOM      8  O   UNL     1       4.665   7.210  17.451  0.00  0.00    +0.000 OA
ATOM      9  H   UNL     1       6.107   3.351  19.080  0.00  0.00    +0.000 HD
ENDROOT
BRANCH   5  10
ATOM     10  C   UNL     1       6.341   4.701  16.550  0.00  0.00    +0.000 A 
ATOM     11  C   UNL     1       5.537   3.706  15.928  0.00  0.00    +0.000 A 
ATOM     12  C   UNL     1       5.678   3.393  14.572  0.00  0.00    +0.000 A 
ATOM     13  C   UNL     1       6.616   4.094  13.853  0.00  0.00    +0.000 A 
ATOM     14  C   UNL     1       7.435   5.024  14.449  0.00  0.00    +0.000 A 
ATOM     15  C   UNL     1       7.339   5.335  15.784  0.00  0.00    +0.000 A 
ATOM     16  O   UNL     1       8.257   5.639  13.555  0.00  0.00    +0.000 OA
ATOM     17  C   UNL     1       7.640   5.206  12.328  0.00  0.00    +0.000 C 
ATOM     18  O   UNL     1       6.810   4.038  12.508  0.00  0.00    +0.000 OA
ENDBRANCH   5  10
BRANCH   1  19
ATOM     19  C   UNL     1       2.332   5.627  18.167  0.00  0.00    +0.000 C 
BRANCH  19  26
ATOM     20  C   UNL     1       0.543  12.884  20.633  0.00  0.00    +0.000 C 
ATOM     21  C   UNL     1       0.955  11.583  20.015  0.00  0.00    +0.000 A 
ATOM     22  C   UNL     1       1.280  11.546  18.609  0.00  0.00    +0.000 A 
ATOM     23  C   UNL     1       1.629  10.398  18.014  0.00  0.00    +0.000 A 
ATOM     24  C   UNL     1       1.677   9.142  18.808  0.00  0.00    +0.000 A 
ATOM     25  N   UNL     1       1.989   8.040  18.202  0.00  0.00    +0.000 NA
ATOM     26  C   UNL     1       2.005   6.884  18.936  0.00  0.00    +0.000 A 
ATOM     27  C   UNL     1       1.771   6.847  20.254  0.00  0.00    +0.000 A 
ATOM     28  C   UNL     1       1.433   8.099  20.953  0.00  0.00    +0.000 A 
ATOM     29  O   UNL     1       1.222   8.057  22.164  0.00  0.00    +0.000 OA
ATOM     30  N   UNL     1       1.380   9.234  20.159  0.00  0.00    +0.000 N 
ATOM     31  C   UNL     1       1.022  10.448  20.730  0.00  0.00    +0.000 A 
ENDBRANCH  19  26
ENDBRANCH   1  19
TORSDOF 3
ENDMDL
MODEL 8
REMARK VINA RESULT:      -7.5      2.324      5.531
REMARK  Name = 
REMARK  5 active torsions:
REMARK  status: ('A' for Active; 'I' for Inactive)
REMARK    1  A    between atoms: C_1  and  C_2
REMARK    2  A    between atoms: C_7  and  C_8
REMARK    3  A    between atoms: C_8  and  N_9
REMARK    4  A    between atoms: C_13  and  C_14
REMARK    5  A    between atoms: C_13  and  C_15
REMARK                            x       y       z     vdW  Elec       q    Type
REMARK                         _______ _______ _______ _____ _____    ______ ____
ROOT
ATOM      1  N   UNL     1       2.295   3.613  19.585  0.00  0.00    +0.000 N 
ATOM      2  C   UNL     1       1.672   3.456  18.386  0.00  0.00    +0.000 C 
ATOM      3  O   UNL     1       0.629   3.952  17.998  0.00  0.00    +0.000 OA
ATOM      4  N   UNL     1       2.461   2.648  17.588  0.00  0.00    +0.000 N 
ATOM      5  C   UNL     1       3.799   2.534  18.118  0.00  0.00    +0.000 C 
ATOM      6  C   UNL     1       4.321   1.105  18.032  0.00  0.00    +0.000 C 
ATOM      7  C   UNL     1       3.501   2.967  19.580  0.00  0.00    +0.000 C 
ATOM      8  O   UNL     1       4.260   2.855  20.533  0.00  0.00    +0.000 OA
ATOM      9  H   UNL     1       2.221   2.546  16.611  0.00  0.00    +0.000 HD
ENDROOT
BRANCH   5  10
ATOM     10  C   UNL     1       4.760   3.565  17.505  0.00  0.00    +0.000 A 
ATOM     11  C   UNL     1       4.597   4.074  16.186  0.00  0.00    +0.000 A 
ATOM     12  C   UNL     1       5.349   5.159  15.722  0.00  0.00    +0.000 A 
ATOM     13  C   UNL     1       6.245   5.729  16.594  0.00  0.00    +0.000 A 
ATOM     14  C   UNL     1       6.450   5.219  17.854  0.00  0.00    +0.000 A 
ATOM     15  C   UNL     1       5.747   4.139  18.331  0.00  0.00    +0.000 A 
ATOM     16  O   UNL     1       7.340   5.957  18.573  0.00  0.00    +0.000 OA
ATOM     17  C   UNL     1       7.416   7.123  17.732  0.00  0.00    +0.000 C 
ATOM     18  O   UNL     1       6.964   6.865  16.385  0.00  0.00    +0.000 OA
ENDBRANCH   5  10
BRANCH   1  19
ATOM     19  C   UNL     1       1.809   4.413  20.686  0.00  0.00    +0.000 C 
BRANCH  19  26
ATOM     20  C   UNL     1       0.803  12.194  20.051  0.00  0.00    +0.000 C 
ATOM     21  C   UNL     1       0.847  10.714  20.281  0.00  0.00    +0.000 A 
ATOM     22  C   UNL     1       0.110  10.154  21.389  0.00  0.00    +0.000 A 
ATOM     23  C   UNL     1       0.145   8.839  21.643  0.00  0.00    +0.000 A 
ATOM     24  C   UNL     1       0.956   7.943  20.779  0.00  0.00    +0.000 A 
ATOM     25  N   UNL     1       0.996   6.680  21.065  0.00  0.00    +0.000 NA
ATOM     26  C   UNL     1       1.768   5.867  20.279  0.00  0.00    +0.000 A 
ATOM     27  C   UNL     1       2.434   6.301  19.202  0.00  0.00    +0.000 A 
ATOM     28  C   UNL     1       2.379   7.734  18.860  0.00  0.00    +0.000 A 
ATOM     29  O   UNL     1       2.991   8.126  17.869  0.00  0.00    +0.000 OA
ATOM     30  N   UNL     1       1.627   8.525  19.714  0.00  0.00    +0.000 N 
ATOM     31  C   UNL     1       1.561   9.895  19.492  0.00  0.00    +0.000 A 
ENDBRANCH  19  26
ENDBRANCH   1  19
TORSDOF 3
ENDMDL
MODEL 9
REMARK VINA RESULT:      -7.4      8.763     11.612
REMARK  Name = 
REMARK  5 active torsions:
REMARK  status: ('A' for Active; 'I' for Inactive)
REMARK    1  A    between atoms: C_1  and  C_2
REMARK    2  A    between atoms: C_7  and  C_8
REMARK    3  A    between atoms: C_8  and  N_9
REMARK    4  A    between atoms: C_13  and  C_14
REMARK    5  A    between atoms: C_13  and  C_15
REMARK                            x       y       z     vdW  Elec       q    Type
REMARK                         _______ _______ _______ _____ _____    ______ ____
ROOT
ATOM      1  N   UNL     1      -3.326  14.071  23.958  0.00  0.00    +0.000 N 
ATOM      2  C   UNL     1      -3.951  15.229  23.613  0.00  0.00    +0.000 C 
ATOM      3  O   UNL     1      -3.463  16.324  23.400  0.00  0.00    +0.000 OA
ATOM      4  N   UNL     1      -5.303  14.968  23.470  0.00  0.00    +0.000 N 
ATOM      5  C   UNL     1      -5.556  13.550  23.376  0.00  0.00    +0.000 C 
ATOM      6  C   UNL     1      -6.774  13.139  24.195  0.00  0.00    +0.000 C 
ATOM      7  C   UNL     1      -4.227  13.041  23.999  0.00  0.00    +0.000 C 
ATOM      8  O   UNL     1      -3.991  11.894  24.353  0.00  0.00    +0.000 OA
ATOM      9  H   UNL     1      -5.896  15.684  23.073  0.00  0.00    +0.000 HD
ENDROOT
BRANCH   5  10
ATOM     10  C   UNL     1      -5.614  13.062  21.920  0.00  0.00    +0.000 A 
ATOM     11  C   UNL     1      -4.538  13.246  21.008  0.00  0.00    +0.000 A 
ATOM     12  C   UNL     1      -4.522  12.616  19.758  0.00  0.00    +0.000 A 
ATOM     13  C   UNL     1      -5.581  11.796  19.448  0.00  0.00    +0.000 A 
ATOM     14  C   UNL     1      -6.651  11.646  20.297  0.00  0.00    +0.000 A 
ATOM     15  C   UNL     1      -6.710  12.272  21.519  0.00  0.00    +0.000 A 
ATOM     16  O   UNL     1      -7.566  10.755  19.825  0.00  0.00    +0.000 OA
ATOM     17  C   UNL     1      -6.795  10.164  18.762  0.00  0.00    +0.000 C 
ATOM     18  O   UNL     1      -5.686  10.994  18.354  0.00  0.00    +0.000 OA
ENDBRANCH   5  10
BRANCH   1  19
ATOM     19  C   UNL     1      -1.906  13.914  24.171  0.00  0.00    +0.000 C 
BRANCH  19  26
ATOM     20  C   UNL     1       1.301   9.410  18.569  0.00  0.00    +0.000 C 
ATOM     21  C   UNL     1       0.749  10.141  19.755  0.00  0.00    +0.000 A 
ATOM     22  C   UNL     1       0.590   9.433  21.003  0.00  0.00    +0.000 A 
ATOM     23  C   UNL     1       0.076  10.045  22.079  0.00  0.00    +0.000 A 
ATOM     24  C   UNL     1      -0.341  11.469  21.988  0.00  0.00    +0.000 A 
ATOM     25  N   UNL     1      -0.861  12.027  23.035  0.00  0.00    +0.000 NA
ATOM     26  C   UNL     1      -1.268  13.331  22.933  0.00  0.00    +0.000 A 
ATOM     27  C   UNL     1      -1.101  14.069  21.829  0.00  0.00    +0.000 A 
ATOM     28  C   UNL     1      -0.494  13.445  20.640  0.00  0.00    +0.000 A 
ATOM     29  O   UNL     1      -0.342  14.130  19.630  0.00  0.00    +0.000 OA
ATOM     30  N   UNL     1      -0.145  12.111  20.775  0.00  0.00    +0.000 N 
ATOM     31  C   UNL     1       0.390  11.433  19.687  0.00  0.00    +0.000 A 
ENDBRANCH  19  26
ENDBRANCH   1  19
TORSDOF 3
ENDMDL
