MODEL 1
REMARK VINA RESULT:      -8.0      0.000      0.000
REMARK  Name = 
REMARK  6 active torsions:
REMARK  status: ('A' for Active; 'I' for Inactive)
REMARK    1  A    between atoms: C_2  and  O_3
REMARK    2  A    between atoms: C_2  and  C_4
REMARK    3  A    between atoms: C_7  and  C_8
REMARK    4  A    between atoms: C_8  and  N_9
REMARK    5  A    between atoms: C_10  and  C_12
REMARK    6  A    between atoms: N_14  and  C_15
REMARK                            x       y       z     vdW  Elec       q    Type
REMARK                         _______ _______ _______ _____ _____    ______ ____
ROOT
ATOM      1  C   UNL     1       4.453   5.038  18.462  0.00  0.00    +0.000 A 
ATOM      2  N   UNL     1       3.888   6.192  18.682  0.00  0.00    +0.000 NA
ATOM      3  N   UNL     1       2.588   6.236  19.170  0.00  0.00    +0.000 N 
ATOM      4  C   UNL     1       1.813   5.086  19.388  0.00  0.00    +0.000 A 
ATOM      5  O   UNL     1       0.647   5.046  19.776  0.00  0.00    +0.000 OA
ATOM      6  C   UNL     1       2.452   3.792  19.096  0.00  0.00    +0.000 A 
ATOM      7  C   UNL     1       1.701   2.611  19.225  0.00  0.00    +0.000 A 
ATOM      8  C   UNL     1       2.286   1.376  18.975  0.00  0.00    +0.000 A 
ATOM      9  C   UNL     1       3.631   1.315  18.630  0.00  0.00    +0.000 A 
ATOM     10  C   UNL     1       4.380   2.491  18.501  0.00  0.00    +0.000 A 
ATOM     11  C   UNL     1       3.780   3.742  18.695  0.00  0.00    +0.000 A 
ENDROOT
BRANCH   3  12
ATOM     12  C   UNL     1       2.065   7.563  19.371  0.00  0.00    +0.000 A 
ATOM     13  C   UNL     1       1.597   8.003  20.621  0.00  0.00    +0.000 A 
ATOM     14  C   UNL     1       1.042   9.276  20.791  0.00  0.00    +0.000 A 
ATOM     15  C   UNL     1       0.941  10.140  19.709  0.00  0.00    +0.000 A 
ATOM     16  C   UNL     1       1.413   9.738  18.463  0.00  0.00    +0.000 A 
ATOM     17  C   UNL     1       1.982   8.468  18.299  0.00  0.00    +0.000 A 
ENDBRANCH   3  12
BRANCH   1  19
ATOM     18  N   UNL     1       6.009   4.732  16.585  0.00  0.00    +0.000 N 
ATOM     19  C   UNL     1       5.892   5.078  17.912  0.00  0.00    +0.000 C 
ATOM     20  O   UNL     1       6.835   5.387  18.623  0.00  0.00    +0.000 OA
ATOM     21  H   UNL     1       5.202   4.308  16.139  0.00  0.00    +0.000 HD
BRANCH  18  22
ATOM     22  C   UNL     1       7.290   4.736  15.913  0.00  0.00    +0.000 C 
BRANCH  22  26
ATOM     23  C   UNL     1       6.179   3.704  12.646  0.00  0.00    +0.000 A 
ATOM     24  C   UNL     1       7.108   4.625  12.208  0.00  0.00    +0.000 A 
ATOM     25  C   UNL     1       7.696   5.191  13.362  0.00  0.00    +0.000 A 
ATOM     26  C   UNL     1       7.105   4.577  14.447  0.00  0.00    +0.000 A 
ATOM     27  O   UNL     1       6.165   3.678  14.020  0.00  0.00    +0.000 OA
BRANCH  23  29
ATOM     28  O   UNL     1       4.173   3.115  11.508  0.00  0.00    +0.000 OA
ATOM     29  C   UNL     1       5.292   2.829  11.912  0.00  0.00    +0.000 C 
BRANCH  29  30
ATOM     30  O   UNL     1       5.853   1.608  11.727  0.00  0.00    +0.000 OA
ATOM     31  H   UNL     1       5.439   1.163  10.959  0.00  0.00    +0.000 HD
ENDBRANCH  29  30
ENDBRANCH  23  29
ENDBRANCH  22  26
ENDBRANCH  18  22
ENDBRANCH   1  19
TORSDOF 6
ENDMDL
MODEL 2
REMARK VINA RESULT:      -7.9      2.776      7.458
REMARK  Name = 
REMARK  6 active torsions:
REMARK  status: ('A' for Active; 'I' for Inactive)
REMARK    1  A    between atoms: C_2  and  O_3
REMARK    2  A    between atoms: C_2  and  C_4
REMARK    3  A    between atoms: C_7  and  C_8
REMARK    4  A    between atoms: C_8  and  N_9
REMARK    5  A    between atoms: C_10  and  C_12
REMARK    6  A    between atoms: N_14  and  C_15
REMARK                            x       y       z     vdW  Elec       q    Type
REMARK                         _______ _______ _______ _____ _____    ______ ____
ROOT
ATOM      1  C   UNL     1       2.903   6.019  18.467  0.00  0.00    +0.000 A 
ATOM      2  N   UNL     1       3.793   5.893  17.522  0.00  0.00    +0.000 NA
ATOM      3  N   UNL     1       4.174   4.624  17.105  0.00  0.00    +0.000 N 
ATOM      4  C   UNL     1       3.689   3.446  17.696  0.00  0.00    +0.000 A 
ATOM      5  O   UNL     1       4.010   2.293  17.412  0.00  0.00    +0.000 OA
ATOM      6  C   UNL     1       2.716   3.607  18.789  0.00  0.00    +0.000 A 
ATOM      7  C   UNL     1       2.252   2.466  19.467  0.00  0.00    +0.000 A 
ATOM      8  C   UNL     1       1.318   2.589  20.490  0.00  0.00    +0.000 A 
ATOM      9  C   UNL     1       0.820   3.846  20.812  0.00  0.00    +0.000 A 
ATOM     10  C   UNL     1       1.281   4.982  20.137  0.00  0.00    +0.000 A 
ATOM     11  C   UNL     1       2.266   4.871  19.146  0.00  0.00    +0.000 A 
ENDROOT
BRANCH   3  12
ATOM     12  C   UNL     1       5.165   4.606  16.061  0.00  0.00    +0.000 A 
ATOM     13  C   UNL     1       6.473   5.084  16.260  0.00  0.00    +0.000 A 
ATOM     14  C   UNL     1       7.411   5.112  15.223  0.00  0.00    +0.000 A 
ATOM     15  C   UNL     1       7.059   4.663  13.956  0.00  0.00    +0.000 A 
ATOM     16  C   UNL     1       5.778   4.167  13.735  0.00  0.00    +0.000 A 
ATOM     17  C   UNL     1       4.845   4.127  14.779  0.00  0.00    +0.000 A 
ENDBRANCH   3  12
BRANCH   1  19
ATOM     18  N   UNL     1       2.481   8.356  17.833  0.00  0.00    +0.000 N 
ATOM     19  C   UNL     1       2.544   7.460  18.877  0.00  0.00    +0.000 C 
ATOM     20  O   UNL     1       2.345   7.758  20.044  0.00  0.00    +0.000 OA
ATOM     21  H   UNL     1       2.848   8.055  16.936  0.00  0.00    +0.000 HD
BRANCH  18  22
ATOM     22  C   UNL     1       2.139   9.745  18.048  0.00  0.00    +0.000 C 
BRANCH  22  26
ATOM     23  C   UNL     1      -1.455   9.896  17.855  0.00  0.00    +0.000 A 
ATOM     24  C   UNL     1      -1.364  10.135  19.211  0.00  0.00    +0.000 A 
ATOM     25  C   UNL     1       0.012  10.114  19.537  0.00  0.00    +0.000 A 
ATOM     26  C   UNL     1       0.693   9.878  18.360  0.00  0.00    +0.000 A 
ATOM     27  O   UNL     1      -0.195   9.727  17.329  0.00  0.00    +0.000 OA
BRANCH  23  29
ATOM     28  O   UNL     1      -2.582   9.849  15.760  0.00  0.00    +0.000 OA
ATOM     29  C   UNL     1      -2.604   9.811  16.982  0.00  0.00    +0.000 C 
BRANCH  29  30
ATOM     30  O   UNL     1      -3.752   9.696  17.696  0.00  0.00    +0.000 OA
ATOM     31  H   UNL     1      -3.694  10.238  18.509  0.00  0.00    +0.000 HD
ENDBRANCH  29  30
ENDBRANCH  23  29
ENDBRANCH  22  26
ENDBRANCH  18  22
ENDBRANCH   1  19
TORSDOF 6
ENDMDL
MODEL 3
REMARK VINA RESULT:      -7.8      4.115      6.867
REMARK  Name = 
REMARK  6 active torsions:
REMARK  status: ('A' for Active; 'I' for Inactive)
REMARK    1  A    between atoms: C_2  and  O_3
REMARK    2  A    between atoms: C_2  and  C_4
REMARK    3  A    between atoms: C_7  and  C_8
REMARK    4  A    between atoms: C_8  and  N_9
REMARK    5  A    between atoms: C_10  and  C_12
REMARK    6  A    between atoms: N_14  and  C_15
REMARK                            x       y       z     vdW  Elec       q    Type
REMARK                         _______ _______ _______ _____ _____    ______ ____
ROOT
ATOM      1  C   UNL     1       6.363   5.006  18.276  0.00  0.00    +0.000 A 
ATOM      2  N   UNL     1       5.394   4.693  19.092  0.00  0.00    +0.000 NA
ATOM      3  N   UNL     1       4.262   4.057  18.598  0.00  0.00    +0.000 N 
ATOM      4  C   UNL     1       4.072   3.781  17.235  0.00  0.00    +0.000 A 
ATOM      5  O   UNL     1       3.083   3.262  16.719  0.00  0.00    +0.000 OA
ATOM      6  C   UNL     1       5.157   4.177  16.322  0.00  0.00    +0.000 A 
ATOM      7  C   UNL     1       4.991   3.993  14.939  0.00  0.00    +0.000 A 
ATOM      8  C   UNL     1       6.008   4.341  14.057  0.00  0.00    +0.000 A 
ATOM      9  C   UNL     1       7.205   4.840  14.558  0.00  0.00    +0.000 A 
ATOM     10  C   UNL     1       7.370   5.024  15.936  0.00  0.00    +0.000 A 
ATOM     11  C   UNL     1       6.327   4.730  16.824  0.00  0.00    +0.000 A 
ENDROOT
BRANCH   3  12
ATOM     12  C   UNL     1       3.257   3.764  19.588  0.00  0.00    +0.000 A 
ATOM     13  C   UNL     1       3.407   2.723  20.522  0.00  0.00    +0.000 A 
ATOM     14  C   UNL     1       2.401   2.413  21.443  0.00  0.00    +0.000 A 
ATOM     15  C   UNL     1       1.217   3.139  21.450  0.00  0.00    +0.000 A 
ATOM     16  C   UNL     1       1.050   4.187  20.549  0.00  0.00    +0.000 A 
ATOM     17  C   UNL     1       2.064   4.504  19.637  0.00  0.00    +0.000 A 
ENDBRANCH   3  12
BRANCH   1  19
ATOM     18  N   UNL     1       7.723   7.036  18.537  0.00  0.00    +0.000 N 
ATOM     19  C   UNL     1       7.577   5.717  18.903  0.00  0.00    +0.000 C 
ATOM     20  O   UNL     1       8.340   5.129  19.654  0.00  0.00    +0.000 OA
ATOM     21  H   UNL     1       7.155   7.372  17.766  0.00  0.00    +0.000 HD
BRANCH  18  22
ATOM     22  C   UNL     1       8.803   7.849  19.052  0.00  0.00    +0.000 C 
BRANCH  22  26
ATOM     23  C   UNL     1       9.175  11.396  18.550  0.00  0.00    +0.000 A 
ATOM     24  C   UNL     1       8.172  11.214  17.620  0.00  0.00    +0.000 A 
ATOM     25  C   UNL     1       7.851   9.837  17.631  0.00  0.00    +0.000 A 
ATOM     26  C   UNL     1       8.664   9.250  18.579  0.00  0.00    +0.000 A 
ATOM     27  O   UNL     1       9.488  10.191  19.134  0.00  0.00    +0.000 OA
BRANCH  23  29
ATOM     28  O   UNL     1      11.069  12.817  18.785  0.00  0.00    +0.000 OA
ATOM     29  C   UNL     1       9.881  12.588  18.962  0.00  0.00    +0.000 C 
BRANCH  29  30
ATOM     30  O   UNL     1       9.052  13.449  19.604  0.00  0.00    +0.000 OA
ATOM     31  H   UNL     1       8.904  13.147  20.524  0.00  0.00    +0.000 HD
ENDBRANCH  29  30
ENDBRANCH  23  29
ENDBRANCH  22  26
ENDBRANCH  18  22
ENDBRANCH   1  19
TORSDOF 6
ENDMDL
MODEL 4
REMARK VINA RESULT:      -7.8      2.797      7.513
REMARK  Name = 
REMARK  6 active torsions:
REMARK  status: ('A' for Active; 'I' for Inactive)
REMARK    1  A    between atoms: C_2  and  O_3
REMARK    2  A    between atoms: C_2  and  C_4
REMARK    3  A    between atoms: C_7  and  C_8
REMARK    4  A    between atoms: C_8  and  N_9
REMARK    5  A    between atoms: C_10  and  C_12
REMARK    6  A    between atoms: N_14  and  C_15
REMARK                            x       y       z     vdW  Elec       q    Type
REMARK                         _______ _______ _______ _____ _____    ______ ____
ROOT
ATOM      1  C   UNL     1       2.930   6.058  18.452  0.00  0.00    +0.000 A 
ATOM      2  N   UNL     1       3.806   5.946  17.492  0.00  0.00    +0.000 NA
ATOM      3  N   UNL     1       4.184   4.683  17.054  0.00  0.00    +0.000 N 
ATOM      4  C   UNL     1       3.712   3.497  17.639  0.00  0.00    +0.000 A 
ATOM      5  O   UNL     1       4.032   2.349  17.337  0.00  0.00    +0.000 OA
ATOM      6  C   UNL     1       2.755   3.642  18.748  0.00  0.00    +0.000 A 
ATOM      7  C   UNL     1       2.306   2.492  19.421  0.00  0.00    +0.000 A 
ATOM      8  C   UNL     1       1.387   2.600  20.459  0.00  0.00    +0.000 A 
ATOM      9  C   UNL     1       0.890   3.851  20.803  0.00  0.00    +0.000 A 
ATOM     10  C   UNL     1       1.338   4.997  20.134  0.00  0.00    +0.000 A 
ATOM     11  C   UNL     1       2.307   4.900  19.127  0.00  0.00    +0.000 A 
ENDROOT
BRANCH   3  12
ATOM     12  C   UNL     1       5.159   4.681  15.994  0.00  0.00    +0.000 A 
ATOM     13  C   UNL     1       4.872   4.177  14.713  0.00  0.00    +0.000 A 
ATOM     14  C   UNL     1       5.843   4.131  13.708  0.00  0.00    +0.000 A 
ATOM     15  C   UNL     1       7.130   4.588  13.963  0.00  0.00    +0.000 A 
ATOM     16  C   UNL     1       7.437   5.109  15.216  0.00  0.00    +0.000 A 
ATOM     17  C   UNL     1       6.459   5.167  16.217  0.00  0.00    +0.000 A 
ENDBRANCH   3  12
BRANCH   1  19
ATOM     18  N   UNL     1       2.512   8.405  17.854  0.00  0.00    +0.000 N 
ATOM     19  C   UNL     1       2.573   7.493  18.883  0.00  0.00    +0.000 C 
ATOM     20  O   UNL     1       2.374   7.773  20.055  0.00  0.00    +0.000 OA
ATOM     21  H   UNL     1       2.880   8.118  16.953  0.00  0.00    +0.000 HD
BRANCH  18  22
ATOM     22  C   UNL     1       2.172   9.791  18.090  0.00  0.00    +0.000 C 
BRANCH  22  26
ATOM     23  C   UNL     1      -1.421  10.022  17.987  0.00  0.00    +0.000 A 
ATOM     24  C   UNL     1      -1.300  10.122  19.358  0.00  0.00    +0.000 A 
ATOM     25  C   UNL     1       0.081  10.045  19.652  0.00  0.00    +0.000 A 
ATOM     26  C   UNL     1       0.734   9.917  18.443  0.00  0.00    +0.000 A 
ATOM     27  O   UNL     1      -0.175   9.886  17.421  0.00  0.00    +0.000 OA
BRANCH  23  29
ATOM     28  O   UNL     1      -3.731   9.776  17.473  0.00  0.00    +0.000 OA
ATOM     29  C   UNL     1      -2.588  10.045  17.134  0.00  0.00    +0.000 C 
BRANCH  29  30
ATOM     30  O   UNL     1      -2.259  10.397  15.865  0.00  0.00    +0.000 OA
ATOM     31  H   UNL     1      -1.648   9.734  15.483  0.00  0.00    +0.000 HD
ENDBRANCH  29  30
ENDBRANCH  23  29
ENDBRANCH  22  26
ENDBRANCH  18  22
ENDBRANCH   1  19
TORSDOF 6
ENDMDL
MODEL 5
REMARK VINA RESULT:      -7.8      4.096      6.868
REMARK  Name = 
REMARK  6 active torsions:
REMARK  status: ('A' for Active; 'I' for Inactive)
REMARK    1  A    between atoms: C_2  and  O_3
REMARK    2  A    between atoms: C_2  and  C_4
REMARK    3  A    between atoms: C_7  and  C_8
REMARK    4  A    between atoms: C_8  and  N_9
REMARK    5  A    between atoms: C_10  and  C_12
REMARK    6  A    between atoms: N_14  and  C_15
REMARK                            x       y       z     vdW  Elec       q    Type
REMARK                         _______ _______ _______ _____ _____    ______ ____
ROOT
ATOM      1  C   UNL     1       6.326   4.992  18.268  0.00  0.00    +0.000 A 
ATOM      2  N   UNL     1       5.347   4.668  19.066  0.00  0.00    +0.000 NA
ATOM      3  N   UNL     1       4.224   4.033  18.551  0.00  0.00    +0.000 N 
ATOM      4  C   UNL     1       4.055   3.769  17.182  0.00  0.00    +0.000 A 
ATOM      5  O   UNL     1       3.076   3.251  16.647  0.00  0.00    +0.000 OA
ATOM      6  C   UNL     1       5.151   4.178  16.289  0.00  0.00    +0.000 A 
ATOM      7  C   UNL     1       5.006   4.006  14.901  0.00  0.00    +0.000 A 
ATOM      8  C   UNL     1       6.035   4.367  14.038  0.00  0.00    +0.000 A 
ATOM      9  C   UNL     1       7.222   4.865  14.561  0.00  0.00    +0.000 A 
ATOM     10  C   UNL     1       7.367   5.037  15.942  0.00  0.00    +0.000 A 
ATOM     11  C   UNL     1       6.312   4.731  16.813  0.00  0.00    +0.000 A 
ENDROOT
BRANCH   3  12
ATOM     12  C   UNL     1       3.207   3.726  19.523  0.00  0.00    +0.000 A 
ATOM     13  C   UNL     1       1.982   4.415  19.567  0.00  0.00    +0.000 A 
ATOM     14  C   UNL     1       1.024   4.145  20.550  0.00  0.00    +0.000 A 
ATOM     15  C   UNL     1       1.271   3.178  21.515  0.00  0.00    +0.000 A 
ATOM     16  C   UNL     1       2.468   2.467  21.484  0.00  0.00    +0.000 A 
ATOM     17  C   UNL     1       3.420   2.730  20.490  0.00  0.00    +0.000 A 
ENDBRANCH   3  12
BRANCH   1  19
ATOM     18  N   UNL     1       7.709   7.008  18.522  0.00  0.00    +0.000 N 
ATOM     19  C   UNL     1       7.529   5.702  18.918  0.00  0.00    +0.000 C 
ATOM     20  O   UNL     1       8.254   5.123  19.713  0.00  0.00    +0.000 OA
ATOM     21  H   UNL     1       7.175   7.331  17.722  0.00  0.00    +0.000 HD
BRANCH  18  22
ATOM     22  C   UNL     1       8.783   7.818  19.054  0.00  0.00    +0.000 C 
BRANCH  22  26
ATOM     23  C   UNL     1       9.125  11.376  18.608  0.00  0.00    +0.000 A 
ATOM     24  C   UNL     1       8.187  11.186  17.614  0.00  0.00    +0.000 A 
ATOM     25  C   UNL     1       7.889   9.804  17.592  0.00  0.00    +0.000 A 
ATOM     26  C   UNL     1       8.650   9.222  18.585  0.00  0.00    +0.000 A 
ATOM     27  O   UNL     1       9.420  10.171  19.201  0.00  0.00    +0.000 OA
BRANCH  23  29
ATOM     28  O   UNL     1       9.226  13.594  19.463  0.00  0.00    +0.000 OA
ATOM     29  C   UNL     1       9.781  12.576  19.076  0.00  0.00    +0.000 C 
BRANCH  29  30
ATOM     30  O   UNL     1      11.131  12.447  19.020  0.00  0.00    +0.000 OA
ATOM     31  H   UNL     1      11.533  12.791  19.843  0.00  0.00    +0.000 HD
ENDBRANCH  29  30
ENDBRANCH  23  29
ENDBRANCH  22  26
ENDBRANCH  18  22
ENDBRANCH   1  19
TORSDOF 6
ENDMDL
MODEL 6
REMARK VINA RESULT:      -7.7      3.077      7.872
REMARK  Name = 
REMARK  6 active torsions:
REMARK  status: ('A' for Active; 'I' for Inactive)
REMARK    1  A    between atoms: C_2  and  O_3
REMARK    2  A    between atoms: C_2  and  C_4
REMARK    3  A    between atoms: C_7  and  C_8
REMARK    4  A    between atoms: C_8  and  N_9
REMARK    5  A    between atoms: C_10  and  C_12
REMARK    6  A    between atoms: N_14  and  C_15
REMARK                            x       y       z     vdW  Elec       q    Type
REMARK                         _______ _______ _______ _____ _____    ______ ____
ROOT
ATOM      1  C   UNL     1       2.866   6.026  18.538  0.00  0.00    +0.000 A 
ATOM      2  N   UNL     1       3.746   5.944  17.579  0.00  0.00    +0.000 NA
ATOM      3  N   UNL     1       4.162   4.695  17.136  0.00  0.00    +0.000 N 
ATOM      4  C   UNL     1       3.724   3.493  17.713  0.00  0.00    +0.000 A 
ATOM      5  O   UNL     1       4.077   2.356  17.406  0.00  0.00    +0.000 OA
ATOM      6  C   UNL     1       2.761   3.603  18.822  0.00  0.00    +0.000 A 
ATOM      7  C   UNL     1       2.344   2.438  19.487  0.00  0.00    +0.000 A 
ATOM      8  C   UNL     1       1.421   2.513  20.524  0.00  0.00    +0.000 A 
ATOM      9  C   UNL     1       0.887   3.748  20.874  0.00  0.00    +0.000 A 
ATOM     10  C   UNL     1       1.302   4.909  20.212  0.00  0.00    +0.000 A 
ATOM     11  C   UNL     1       2.276   4.846  19.206  0.00  0.00    +0.000 A 
ENDROOT
BRANCH   3  12
ATOM     12  C   UNL     1       5.139   4.727  16.077  0.00  0.00    +0.000 A 
ATOM     13  C   UNL     1       4.869   4.221  14.794  0.00  0.00    +0.000 A 
ATOM     14  C   UNL     1       5.843   4.208  13.790  0.00  0.00    +0.000 A 
ATOM     15  C   UNL     1       7.115   4.702  14.050  0.00  0.00    +0.000 A 
ATOM     16  C   UNL     1       7.404   5.227  15.305  0.00  0.00    +0.000 A 
ATOM     17  C   UNL     1       6.422   5.251  16.305  0.00  0.00    +0.000 A 
ENDBRANCH   3  12
BRANCH   1  19
ATOM     18  N   UNL     1       2.437   8.376  17.960  0.00  0.00    +0.000 N 
ATOM     19  C   UNL     1       2.466   7.447  18.976  0.00  0.00    +0.000 C 
ATOM     20  O   UNL     1       2.210   7.704  20.143  0.00  0.00    +0.000 OA
ATOM     21  H   UNL     1       2.850   8.109  17.072  0.00  0.00    +0.000 HD
BRANCH  18  22
ATOM     22  C   UNL     1       2.065   9.752  18.204  0.00  0.00    +0.000 C 
BRANCH  22  26
ATOM     23  C   UNL     1      -1.321  10.976  18.306  0.00  0.00    +0.000 A 
ATOM     24  C   UNL     1      -1.586   9.856  17.545  0.00  0.00    +0.000 A 
ATOM     25  C   UNL     1      -0.354   9.189  17.358  0.00  0.00    +0.000 A 
ATOM     26  C   UNL     1       0.600   9.929  18.028  0.00  0.00    +0.000 A 
ATOM     27  O   UNL     1       0.022  11.031  18.596  0.00  0.00    +0.000 OA
BRANCH  23  29
ATOM     28  O   UNL     1      -3.378  11.880  19.090  0.00  0.00    +0.000 OA
ATOM     29  C   UNL     1      -2.197  12.014  18.802  0.00  0.00    +0.000 C 
BRANCH  29  30
ATOM     30  O   UNL     1      -1.542  13.198  18.903  0.00  0.00    +0.000 OA
ATOM     31  H   UNL     1      -1.245  13.491  18.017  0.00  0.00    +0.000 HD
ENDBRANCH  29  30
ENDBRANCH  23  29
ENDBRANCH  22  26
ENDBRANCH  18  22
ENDBRANCH   1  19
TORSDOF 6
ENDMDL
MODEL 7
REMARK VINA RESULT:      -7.7      2.976      7.868
REMARK  Name = 
REMARK  6 active torsions:
REMARK  status: ('A' for Active; 'I' for Inactive)
REMARK    1  A    between atoms: C_2  and  O_3
REMARK    2  A    between atoms: C_2  and  C_4
REMARK    3  A    between atoms: C_7  and  C_8
REMARK    4  A    between atoms: C_8  and  N_9
REMARK    5  A    between atoms: C_10  and  C_12
REMARK    6  A    between atoms: N_14  and  C_15
REMARK                            x       y       z     vdW  Elec       q    Type
REMARK                         _______ _______ _______ _____ _____    ______ ____
ROOT
ATOM      1  C   UNL     1       2.900   6.003  18.504  0.00  0.00    +0.000 A 
ATOM      2  N   UNL     1       3.788   5.891  17.556  0.00  0.00    +0.000 NA
ATOM      3  N   UNL     1       4.196   4.628  17.144  0.00  0.00    +0.000 N 
ATOM      4  C   UNL     1       3.740   3.444  17.744  0.00  0.00    +0.000 A 
ATOM      5  O   UNL     1       4.085   2.297  17.464  0.00  0.00    +0.000 OA
ATOM      6  C   UNL     1       2.769   3.588  18.840  0.00  0.00    +0.000 A 
ATOM      7  C   UNL     1       2.333   2.442  19.527  0.00  0.00    +0.000 A 
ATOM      8  C   UNL     1       1.402   2.549  20.553  0.00  0.00    +0.000 A 
ATOM      9  C   UNL     1       0.877   3.796  20.871  0.00  0.00    +0.000 A 
ATOM     10  C   UNL     1       1.310   4.939  20.188  0.00  0.00    +0.000 A 
ATOM     11  C   UNL     1       2.292   4.844  19.192  0.00  0.00    +0.000 A 
ENDROOT
BRANCH   3  12
ATOM     12  C   UNL     1       5.182   4.627  16.094  0.00  0.00    +0.000 A 
ATOM     13  C   UNL     1       6.482   5.127  16.288  0.00  0.00    +0.000 A 
ATOM     14  C   UNL     1       7.414   5.170  15.246  0.00  0.00    +0.000 A 
ATOM     15  C   UNL     1       7.065   4.715  13.981  0.00  0.00    +0.000 A 
ATOM     16  C   UNL     1       5.791   4.197  13.766  0.00  0.00    +0.000 A 
ATOM     17  C   UNL     1       4.864   4.142  14.815  0.00  0.00    +0.000 A 
ENDBRANCH   3  12
BRANCH   1  19
ATOM     18  N   UNL     1       2.518   8.347  17.874  0.00  0.00    +0.000 N 
ATOM     19  C   UNL     1       2.511   7.437  18.908  0.00  0.00    +0.000 C 
ATOM     20  O   UNL     1       2.231   7.719  20.063  0.00  0.00    +0.000 OA
ATOM     21  H   UNL     1       2.948   8.059  17.001  0.00  0.00    +0.000 HD
BRANCH  18  22
ATOM     22  C   UNL     1       2.160   9.733  18.084  0.00  0.00    +0.000 C 
BRANCH  22  26
ATOM     23  C   UNL     1      -1.223  10.835  18.648  0.00  0.00    +0.000 A 
ATOM     24  C   UNL     1      -1.535   9.833  17.751  0.00  0.00    +0.000 A 
ATOM     25  C   UNL     1      -0.313   9.235  17.366  0.00  0.00    +0.000 A 
ATOM     26  C   UNL     1       0.683   9.894  18.058  0.00  0.00    +0.000 A 
ATOM     27  O   UNL     1       0.139  10.883  18.831  0.00  0.00    +0.000 OA
BRANCH  23  29
ATOM     28  O   UNL     1      -1.975  12.050  20.550  0.00  0.00    +0.000 OA
ATOM     29  C   UNL     1      -2.068  11.762  19.365  0.00  0.00    +0.000 C 
BRANCH  29  30
ATOM     30  O   UNL     1      -3.019  12.286  18.551  0.00  0.00    +0.000 OA
ATOM     31  H   UNL     1      -3.635  11.582  18.261  0.00  0.00    +0.000 HD
ENDBRANCH  29  30
ENDBRANCH  23  29
ENDBRANCH  22  26
ENDBRANCH  18  22
ENDBRANCH   1  19
TORSDOF 6
ENDMDL
MODEL 8
REMARK VINA RESULT:      -7.6      1.574      2.063
REMARK  Name = 
REMARK  6 active torsions:
REMARK  status: ('A' for Active; 'I' for Inactive)
REMARK    1  A    between atoms: C_2  and  O_3
REMARK    2  A    between atoms: C_2  and  C_4
REMARK    3  A    between atoms: C_7  and  C_8
REMARK    4  A    between atoms: C_8  and  N_9
REMARK    5  A    between atoms: C_10  and  C_12
REMARK    6  A    between atoms: N_14  and  C_15
REMARK                            x       y       z     vdW  Elec       q    Type
REMARK                         _______ _______ _______ _____ _____    ______ ____
ROOT
ATOM      1  C   UNL     1       3.623   5.875  18.688  0.00  0.00    +0.000 A 
ATOM      2  N   UNL     1       3.109   6.973  19.167  0.00  0.00    +0.000 NA
ATOM      3  N   UNL     1       1.977   6.907  19.970  0.00  0.00    +0.000 N 
ATOM      4  C   UNL     1       1.309   5.705  20.252  0.00  0.00    +0.000 A 
ATOM      5  O   UNL     1       0.282   5.571  20.915  0.00  0.00    +0.000 OA
ATOM      6  C   UNL     1       1.878   4.478  19.670  0.00  0.00    +0.000 A 
ATOM      7  C   UNL     1       1.210   3.256  19.856  0.00  0.00    +0.000 A 
ATOM      8  C   UNL     1       1.737   2.081  19.334  0.00  0.00    +0.000 A 
ATOM      9  C   UNL     1       2.949   2.119  18.655  0.00  0.00    +0.000 A 
ATOM     10  C   UNL     1       3.615   3.336  18.469  0.00  0.00    +0.000 A 
ATOM     11  C   UNL     1       3.059   4.532  18.942  0.00  0.00    +0.000 A 
ENDROOT
BRANCH   3  12
ATOM     12  C   UNL     1       1.497   8.181  20.438  0.00  0.00    +0.000 A 
ATOM     13  C   UNL     1       1.304   8.453  21.804  0.00  0.00    +0.000 A 
ATOM     14  C   UNL     1       0.785   9.676  22.243  0.00  0.00    +0.000 A 
ATOM     15  C   UNL     1       0.444  10.657  21.321  0.00  0.00    +0.000 A 
ATOM     16  C   UNL     1       0.642  10.422  19.964  0.00  0.00    +0.000 A 
ATOM     17  C   UNL     1       1.174   9.202  19.528  0.00  0.00    +0.000 A 
ENDBRANCH   3  12
BRANCH   1  19
ATOM     18  N   UNL     1       5.920   5.207  18.123  0.00  0.00    +0.000 N 
ATOM     19  C   UNL     1       4.871   6.037  17.799  0.00  0.00    +0.000 C 
ATOM     20  O   UNL     1       4.902   6.854  16.891  0.00  0.00    +0.000 OA
ATOM     21  H   UNL     1       5.865   4.708  19.005  0.00  0.00    +0.000 HD
BRANCH  18  22
ATOM     22  C   UNL     1       7.157   5.223  17.374  0.00  0.00    +0.000 C 
BRANCH  22  26
ATOM     23  C   UNL     1       7.232   4.795  13.799  0.00  0.00    +0.000 A 
ATOM     24  C   UNL     1       6.326   3.786  14.055  0.00  0.00    +0.000 A 
ATOM     25  C   UNL     1       6.136   3.756  15.456  0.00  0.00    +0.000 A 
ATOM     26  C   UNL     1       6.925   4.758  15.983  0.00  0.00    +0.000 A 
ATOM     27  O   UNL     1       7.611   5.388  14.980  0.00  0.00    +0.000 OA
BRANCH  23  29
ATOM     28  O   UNL     1       8.493   6.266  12.417  0.00  0.00    +0.000 OA
ATOM     29  C   UNL     1       7.788   5.276  12.554  0.00  0.00    +0.000 C 
BRANCH  29  30
ATOM     30  O   UNL     1       7.414   4.488  11.515  0.00  0.00    +0.000 OA
ATOM     31  H   UNL     1       7.282   3.568  11.825  0.00  0.00    +0.000 HD
ENDBRANCH  29  30
ENDBRANCH  23  29
ENDBRANCH  22  26
ENDBRANCH  18  22
ENDBRANCH   1  19
TORSDOF 6
ENDMDL
MODEL 9
REMARK VINA RESULT:      -7.6      3.133      8.849
REMARK  Name = 
REMARK  6 active torsions:
REMARK  status: ('A' for Active; 'I' for Inactive)
REMARK    1  A    between atoms: C_2  and  O_3
REMARK    2  A    between atoms: C_2  and  C_4
REMARK    3  A    between atoms: C_7  and  C_8
REMARK    4  A    between atoms: C_8  and  N_9
REMARK    5  A    between atoms: C_10  and  C_12
REMARK    6  A    between atoms: N_14  and  C_15
REMARK                            x       y       z     vdW  Elec       q    Type
REMARK                         _______ _______ _______ _____ _____    ______ ____
ROOT
ATOM      1  C   UNL     1       2.989   6.598  18.155  0.00  0.00    +0.000 A 
ATOM      2  N   UNL     1       3.831   6.367  17.187  0.00  0.00    +0.000 NA
ATOM      3  N   UNL     1       4.425   5.115  17.081  0.00  0.00    +0.000 N 
ATOM      4  C   UNL     1       4.210   4.084  18.010  0.00  0.00    +0.000 A 
ATOM      5  O   UNL     1       4.729   2.970  18.007  0.00  0.00    +0.000 OA
ATOM      6  C   UNL     1       3.287   4.376  19.119  0.00  0.00    +0.000 A 
ATOM      7  C   UNL     1       3.090   3.408  20.120  0.00  0.00    +0.000 A 
ATOM      8  C   UNL     1       2.209   3.651  21.167  0.00  0.00    +0.000 A 
ATOM      9  C   UNL     1       1.498   4.845  21.198  0.00  0.00    +0.000 A 
ATOM     10  C   UNL     1       1.694   5.809  20.203  0.00  0.00    +0.000 A 
ATOM     11  C   UNL     1       2.624   5.594  19.177  0.00  0.00    +0.000 A 
ENDROOT
BRANCH   3  12
ATOM     12  C   UNL     1       5.340   4.975  15.978  0.00  0.00    +0.000 A 
ATOM     13  C   UNL     1       4.999   4.278  14.805  0.00  0.00    +0.000 A 
ATOM     14  C   UNL     1       5.915   4.103  13.763  0.00  0.00    +0.000 A 
ATOM     15  C   UNL     1       7.199   4.622  13.871  0.00  0.00    +0.000 A 
ATOM     16  C   UNL     1       7.558   5.332  15.012  0.00  0.00    +0.000 A 
ATOM     17  C   UNL     1       6.634   5.519  16.049  0.00  0.00    +0.000 A 
ENDBRANCH   3  12
BRANCH   1  19
ATOM     18  N   UNL     1       1.779   8.338  19.401  0.00  0.00    +0.000 N 
ATOM     19  C   UNL     1       2.383   8.014  18.206  0.00  0.00    +0.000 C 
ATOM     20  O   UNL     1       2.441   8.765  17.245  0.00  0.00    +0.000 OA
ATOM     21  H   UNL     1       1.615   7.585  20.060  0.00  0.00    +0.000 HD
BRANCH  18  22
ATOM     22  C   UNL     1       1.178   9.636  19.616  0.00  0.00    +0.000 C 
BRANCH  22  26
ATOM     23  C   UNL     1      -0.658  10.622  22.554  0.00  0.00    +0.000 A 
ATOM     24  C   UNL     1      -0.112   9.475  23.093  0.00  0.00    +0.000 A 
ATOM     25  C   UNL     1       0.678   8.885  22.079  0.00  0.00    +0.000 A 
ATOM     26  C   UNL     1       0.585   9.710  20.977  0.00  0.00    +0.000 A 
ATOM     27  O   UNL     1      -0.242  10.765  21.251  0.00  0.00    +0.000 OA
BRANCH  23  29
ATOM     28  O   UNL     1      -2.693  11.434  23.482  0.00  0.00    +0.000 OA
ATOM     29  C   UNL     1      -1.536  11.615  23.131  0.00  0.00    +0.000 C 
BRANCH  29  30
ATOM     30  O   UNL     1      -0.915  12.818  23.228  0.00  0.00    +0.000 OA
ATOM     31  H   UNL     1       0.032  12.724  22.996  0.00  0.00    +0.000 HD
ENDBRANCH  29  30
ENDBRANCH  23  29
ENDBRANCH  22  26
ENDBRANCH  18  22
ENDBRANCH   1  19
TORSDOF 6
ENDMDL
