MODEL 1
REMARK VINA RESULT:      -8.8      0.000      0.000
REMARK  Name = 
REMARK  5 active torsions:
REMARK  status: ('A' for Active; 'I' for Inactive)
REMARK    1  A    between atoms: C_3  and  C_4
REMARK    2  A    between atoms: C_4  and  N_5
REMARK    3  A    between atoms: C_12  and  C_13
REMARK    4  A    between atoms: C_16  and  C_17
REMARK    5  A    between atoms: C_19  and  C_20
REMARK                            x       y       z     vdW  Elec       q    Type
REMARK                         _______ _______ _______ _____ _____    ______ ____
ROOT
ATOM      1  C   UNL     1       7.405   6.840  17.557  0.00  0.00    +0.000 A 
ATOM      2  N   UNL     1       8.137   6.526  18.639  0.00  0.00    +0.000 NA
ATOM      3  O   UNL     1       8.649   7.755  19.060  0.00  0.00    +0.000 OA
ATOM      4  C   UNL     1       8.175   8.693  18.189  0.00  0.00    +0.000 A 
ATOM      5  N   UNL     1       7.410   8.182  17.254  0.00  0.00    +0.000 NA
ENDROOT
BRANCH   1  10
ATOM      6  C   UNL     1       6.337   4.493  14.808  0.00  0.00    +0.000 A 
ATOM      7  C   UNL     1       5.164   3.963  15.349  0.00  0.00    +0.000 A 
ATOM      8  C   UNL     1       4.697   4.398  16.596  0.00  0.00    +0.000 A 
ATOM      9  C   UNL     1       5.435   5.367  17.294  0.00  0.00    +0.000 A 
ATOM     10  C   UNL     1       6.628   5.890  16.770  0.00  0.00    +0.000 A 
ATOM     11  C   UNL     1       7.066   5.451  15.515  0.00  0.00    +0.000 A 
BRANCH   8  12
ATOM     12  C   UNL     1       3.460   3.790  17.220  0.00  0.00    +0.000 C 
BRANCH  12  13
ATOM     13  N   UNL     1       3.317   4.035  18.673  0.00  0.00    +0.000 NA
ATOM     14  C   UNL     1       2.146   4.889  18.941  0.00  0.00    +0.000 C 
ATOM     15  C   UNL     1       1.810   5.017  20.429  0.00  0.00    +0.000 C 
ATOM     16  C   UNL     1       1.647   3.649  21.073  0.00  0.00    +0.000 C 
ATOM     17  C   UNL     1       2.916   2.840  20.850  0.00  0.00    +0.000 C 
ATOM     18  C   UNL     1       3.233   2.733  19.359  0.00  0.00    +0.000 C 
ENDBRANCH  12  13
ENDBRANCH   8  12
ENDBRANCH   1  10
BRANCH   4  19
ATOM     19  C   UNL     1       8.506  10.176  18.266  0.00  0.00    +0.000 C 
ATOM     20  C   UNL     1       9.904  10.626  17.897  0.00  0.00    +0.000 C 
ATOM     21  C   UNL     1       9.506  10.589  19.340  0.00  0.00    +0.000 C 
BRANCH  21  22
ATOM     22  C   UNL     1       9.349  11.872  20.110  0.00  0.00    +0.000 A 
ATOM     23  C   UNL     1       9.100  11.906  21.488  0.00  0.00    +0.000 A 
ATOM     24  C   UNL     1       9.030  13.121  22.167  0.00  0.00    +0.000 A 
ATOM     25  C   UNL     1       9.217  14.287  21.447  0.00  0.00    +0.000 A 
ATOM     26  N   UNL     1       9.452  14.314  20.121  0.00  0.00    +0.000 NA
ATOM     27  C   UNL     1       9.520  13.115  19.496  0.00  0.00    +0.000 A 
ENDBRANCH  21  22
ENDBRANCH   4  19
TORSDOF 5
ENDMDL
MODEL 2
REMARK VINA RESULT:      -8.6      5.258      7.771
REMARK  Name = 
REMARK  5 active torsions:
REMARK  status: ('A' for Active; 'I' for Inactive)
REMARK    1  A    between atoms: C_3  and  C_4
REMARK    2  A    between atoms: C_4  and  N_5
REMARK    3  A    between atoms: C_12  and  C_13
REMARK    4  A    between atoms: C_16  and  C_17
REMARK    5  A    between atoms: C_19  and  C_20
REMARK                            x       y       z     vdW  Elec       q    Type
REMARK                         _______ _______ _______ _____ _____    ______ ____
ROOT
ATOM      1  C   UNL     1       2.643   7.390  18.430  0.00  0.00    +0.000 A 
ATOM      2  N   UNL     1       2.423   7.471  19.754  0.00  0.00    +0.000 NA
ATOM      3  O   UNL     1       1.516   8.525  19.875  0.00  0.00    +0.000 OA
ATOM      4  C   UNL     1       1.275   8.979  18.610  0.00  0.00    +0.000 A 
ATOM      5  N   UNL     1       1.940   8.316  17.695  0.00  0.00    +0.000 NA
ENDROOT
BRANCH   1  10
ATOM      6  C   UNL     1       5.493   5.823  16.525  0.00  0.00    +0.000 A 
ATOM      7  C   UNL     1       5.196   4.466  16.668  0.00  0.00    +0.000 A 
ATOM      8  C   UNL     1       4.046   4.059  17.355  0.00  0.00    +0.000 A 
ATOM      9  C   UNL     1       3.203   5.039  17.903  0.00  0.00    +0.000 A 
ATOM     10  C   UNL     1       3.503   6.405  17.785  0.00  0.00    +0.000 A 
ATOM     11  C   UNL     1       4.651   6.788  17.080  0.00  0.00    +0.000 A 
BRANCH   8  12
ATOM     12  C   UNL     1       3.744   2.592  17.569  0.00  0.00    +0.000 C 
BRANCH  12  13
ATOM     13  N   UNL     1       2.923   2.298  18.765  0.00  0.00    +0.000 NA
ATOM     14  C   UNL     1       3.543   2.872  19.972  0.00  0.00    +0.000 C 
ATOM     15  C   UNL     1       2.652   2.790  21.215  0.00  0.00    +0.000 C 
ATOM     16  C   UNL     1       1.288   3.409  20.953  0.00  0.00    +0.000 C 
ATOM     17  C   UNL     1       0.650   2.720  19.757  0.00  0.00    +0.000 C 
ATOM     18  C   UNL     1       1.560   2.810  18.533  0.00  0.00    +0.000 C 
ENDBRANCH  12  13
ENDBRANCH   8  12
ENDBRANCH   1  10
BRANCH   4  19
ATOM     19  C   UNL     1       0.352  10.142  18.280  0.00  0.00    +0.000 C 
ATOM     20  C   UNL     1      -0.224  10.954  19.422  0.00  0.00    +0.000 C 
ATOM     21  C   UNL     1      -1.106   9.986  18.697  0.00  0.00    +0.000 C 
BRANCH  21  22
ATOM     22  C   UNL     1      -2.230  10.490  17.833  0.00  0.00    +0.000 A 
ATOM     23  C   UNL     1      -2.425  10.064  16.513  0.00  0.00    +0.000 A 
ATOM     24  C   UNL     1      -3.521  10.512  15.778  0.00  0.00    +0.000 A 
ATOM     25  C   UNL     1      -4.410  11.379  16.386  0.00  0.00    +0.000 A 
ATOM     26  N   UNL     1      -4.268  11.826  17.649  0.00  0.00    +0.000 NA
ATOM     27  C   UNL     1      -3.196  11.366  18.335  0.00  0.00    +0.000 A 
ENDBRANCH  21  22
ENDBRANCH   4  19
TORSDOF 5
ENDMDL
MODEL 3
REMARK VINA RESULT:      -8.6      0.904      1.028
REMARK  Name = 
REMARK  5 active torsions:
REMARK  status: ('A' for Active; 'I' for Inactive)
REMARK    1  A    between atoms: C_3  and  C_4
REMARK    2  A    between atoms: C_4  and  N_5
REMARK    3  A    between atoms: C_12  and  C_13
REMARK    4  A    between atoms: C_16  and  C_17
REMARK    5  A    between atoms: C_19  and  C_20
REMARK                            x       y       z     vdW  Elec       q    Type
REMARK                         _______ _______ _______ _____ _____    ______ ____
ROOT
ATOM      1  C   UNL     1       7.418   7.320  17.760  0.00  0.00    +0.000 A 
ATOM      2  N   UNL     1       8.288   7.025  18.741  0.00  0.00    +0.000 NA
ATOM      3  O   UNL     1       8.905   8.248  19.014  0.00  0.00    +0.000 OA
ATOM      4  C   UNL     1       8.347   9.163  18.169  0.00  0.00    +0.000 A 
ATOM      5  N   UNL     1       7.433   8.643  17.386  0.00  0.00    +0.000 NA
ENDROOT
BRANCH   1  10
ATOM      6  C   UNL     1       6.025   4.566  15.597  0.00  0.00    +0.000 A 
ATOM      7  C   UNL     1       4.722   4.471  16.091  0.00  0.00    +0.000 A 
ATOM      8  C   UNL     1       4.283   5.329  17.106  0.00  0.00    +0.000 A 
ATOM      9  C   UNL     1       5.177   6.280  17.622  0.00  0.00    +0.000 A 
ATOM     10  C   UNL     1       6.496   6.370  17.149  0.00  0.00    +0.000 A 
ATOM     11  C   UNL     1       6.908   5.511  16.123  0.00  0.00    +0.000 A 
BRANCH   8  12
ATOM     12  C   UNL     1       2.894   5.198  17.691  0.00  0.00    +0.000 C 
BRANCH  12  13
ATOM     13  N   UNL     1       2.751   4.137  18.713  0.00  0.00    +0.000 NA
ATOM     14  C   UNL     1       2.762   4.719  20.068  0.00  0.00    +0.000 C 
ATOM     15  C   UNL     1       2.412   3.713  21.168  0.00  0.00    +0.000 C 
ATOM     16  C   UNL     1       1.087   3.024  20.878  0.00  0.00    +0.000 C 
ATOM     17  C   UNL     1       1.160   2.360  19.512  0.00  0.00    +0.000 C 
ATOM     18  C   UNL     1       1.516   3.382  18.433  0.00  0.00    +0.000 C 
ENDBRANCH  12  13
ENDBRANCH   8  12
ENDBRANCH   1  10
BRANCH   4  19
ATOM     19  C   UNL     1       8.744  10.630  18.114  0.00  0.00    +0.000 C 
ATOM     20  C   UNL     1      10.194  10.978  17.849  0.00  0.00    +0.000 C 
ATOM     21  C   UNL     1       9.651  11.126  19.236  0.00  0.00    +0.000 C 
BRANCH  21  22
ATOM     22  C   UNL     1       9.482  12.495  19.836  0.00  0.00    +0.000 A 
ATOM     23  C   UNL     1       9.117  12.700  21.173  0.00  0.00    +0.000 A 
ATOM     24  C   UNL     1       9.040  13.989  21.698  0.00  0.00    +0.000 A 
ATOM     25  C   UNL     1       9.339  15.055  20.869  0.00  0.00    +0.000 A 
ATOM     26  N   UNL     1       9.689  14.917  19.576  0.00  0.00    +0.000 NA
ATOM     27  C   UNL     1       9.759  13.651  19.101  0.00  0.00    +0.000 A 
ENDBRANCH  21  22
ENDBRANCH   4  19
TORSDOF 5
ENDMDL
MODEL 4
REMARK VINA RESULT:      -8.4      0.887      1.457
REMARK  Name = 
REMARK  5 active torsions:
REMARK  status: ('A' for Active; 'I' for Inactive)
REMARK    1  A    between atoms: C_3  and  C_4
REMARK    2  A    between atoms: C_4  and  N_5
REMARK    3  A    between atoms: C_12  and  C_13
REMARK    4  A    between atoms: C_16  and  C_17
REMARK    5  A    between atoms: C_19  and  C_20
REMARK                            x       y       z     vdW  Elec       q    Type
REMARK                         _______ _______ _______ _____ _____    ______ ____
ROOT
ATOM      1  C   UNL     1       7.393   7.143  17.762  0.00  0.00    +0.000 A 
ATOM      2  N   UNL     1       8.275   6.872  18.740  0.00  0.00    +0.000 NA
ATOM      3  O   UNL     1       8.872   8.107  18.998  0.00  0.00    +0.000 OA
ATOM      4  C   UNL     1       8.293   9.005  18.149  0.00  0.00    +0.000 A 
ATOM      5  N   UNL     1       7.383   8.462  17.376  0.00  0.00    +0.000 NA
ENDROOT
BRANCH   1  10
ATOM      6  C   UNL     1       6.038   4.331  15.650  0.00  0.00    +0.000 A 
ATOM      7  C   UNL     1       4.733   4.235  16.137  0.00  0.00    +0.000 A 
ATOM      8  C   UNL     1       4.279   5.111  17.130  0.00  0.00    +0.000 A 
ATOM      9  C   UNL     1       5.162   6.081  17.631  0.00  0.00    +0.000 A 
ATOM     10  C   UNL     1       6.484   6.172  17.165  0.00  0.00    +0.000 A 
ATOM     11  C   UNL     1       6.909   5.294  16.161  0.00  0.00    +0.000 A 
BRANCH   8  12
ATOM     12  C   UNL     1       2.888   4.981  17.709  0.00  0.00    +0.000 C 
BRANCH  12  13
ATOM     13  N   UNL     1       2.686   3.797  18.575  0.00  0.00    +0.000 NA
ATOM     14  C   UNL     1       3.818   3.639  19.506  0.00  0.00    +0.000 C 
ATOM     15  C   UNL     1       3.588   2.563  20.570  0.00  0.00    +0.000 C 
ATOM     16  C   UNL     1       2.290   2.809  21.325  0.00  0.00    +0.000 C 
ATOM     17  C   UNL     1       1.141   2.870  20.330  0.00  0.00    +0.000 C 
ATOM     18  C   UNL     1       1.397   3.945  19.274  0.00  0.00    +0.000 C 
ENDBRANCH  12  13
ENDBRANCH   8  12
ENDBRANCH   1  10
BRANCH   4  19
ATOM     19  C   UNL     1       8.665  10.478  18.079  0.00  0.00    +0.000 C 
ATOM     20  C   UNL     1      10.116  10.848  17.852  0.00  0.00    +0.000 C 
ATOM     21  C   UNL     1       9.526  11.012  19.218  0.00  0.00    +0.000 C 
BRANCH  21  22
ATOM     22  C   UNL     1       9.314  12.388  19.787  0.00  0.00    +0.000 A 
ATOM     23  C   UNL     1       9.449  13.555  19.025  0.00  0.00    +0.000 A 
ATOM     24  C   UNL     1       9.174  14.803  19.584  0.00  0.00    +0.000 A 
ATOM     25  C   UNL     1       8.762  14.855  20.903  0.00  0.00    +0.000 A 
ATOM     26  N   UNL     1       8.621  13.767  21.683  0.00  0.00    +0.000 NA
ATOM     27  C   UNL     1       8.891  12.572  21.106  0.00  0.00    +0.000 A 
ENDBRANCH  21  22
ENDBRANCH   4  19
TORSDOF 5
ENDMDL
MODEL 5
REMARK VINA RESULT:      -8.3      5.296      6.713
REMARK  Name = 
REMARK  5 active torsions:
REMARK  status: ('A' for Active; 'I' for Inactive)
REMARK    1  A    between atoms: C_3  and  C_4
REMARK    2  A    between atoms: C_4  and  N_5
REMARK    3  A    between atoms: C_12  and  C_13
REMARK    4  A    between atoms: C_16  and  C_17
REMARK    5  A    between atoms: C_19  and  C_20
REMARK                            x       y       z     vdW  Elec       q    Type
REMARK                         _______ _______ _______ _____ _____    ______ ____
ROOT
ATOM      1  C   UNL     1       2.414   7.786  18.263  0.00  0.00    +0.000 A 
ATOM      2  N   UNL     1       2.055   8.863  17.542  0.00  0.00    +0.000 NA
ATOM      3  O   UNL     1       1.450   9.701  18.480  0.00  0.00    +0.000 OA
ATOM      4  C   UNL     1       1.502   9.048  19.678  0.00  0.00    +0.000 A 
ATOM      5  N   UNL     1       2.083   7.876  19.594  0.00  0.00    +0.000 NA
ENDROOT
BRANCH   1  10
ATOM      6  C   UNL     1       5.105   5.610  16.770  0.00  0.00    +0.000 A 
ATOM      7  C   UNL     1       4.505   4.351  16.849  0.00  0.00    +0.000 A 
ATOM      8  C   UNL     1       3.207   4.213  17.355  0.00  0.00    +0.000 A 
ATOM      9  C   UNL     1       2.525   5.360  17.789  0.00  0.00    +0.000 A 
ATOM     10  C   UNL     1       3.125   6.628  17.735  0.00  0.00    +0.000 A 
ATOM     11  C   UNL     1       4.419   6.743  17.211  0.00  0.00    +0.000 A 
BRANCH   8  12
ATOM     12  C   UNL     1       2.568   2.849  17.501  0.00  0.00    +0.000 C 
BRANCH  12  13
ATOM     13  N   UNL     1       2.330   2.424  18.899  0.00  0.00    +0.000 NA
ATOM     14  C   UNL     1       3.534   2.646  19.720  0.00  0.00    +0.000 C 
ATOM     15  C   UNL     1       3.303   2.426  21.217  0.00  0.00    +0.000 C 
ATOM     16  C   UNL     1       2.137   3.264  21.719  0.00  0.00    +0.000 C 
ATOM     17  C   UNL     1       0.897   2.931  20.904  0.00  0.00    +0.000 C 
ATOM     18  C   UNL     1       1.155   3.151  19.414  0.00  0.00    +0.000 C 
ENDBRANCH  12  13
ENDBRANCH   8  12
ENDBRANCH   1  10
BRANCH   4  19
ATOM     19  C   UNL     1       0.934   9.598  20.977  0.00  0.00    +0.000 C 
ATOM     20  C   UNL     1      -0.318   8.963  21.545  0.00  0.00    +0.000 C 
ATOM     21  C   UNL     1      -0.416  10.301  20.880  0.00  0.00    +0.000 C 
BRANCH  21  22
ATOM     22  C   UNL     1      -0.726  11.527  21.694  0.00  0.00    +0.000 A 
ATOM     23  C   UNL     1      -1.664  11.533  22.734  0.00  0.00    +0.000 A 
ATOM     24  C   UNL     1      -1.864  12.679  23.502  0.00  0.00    +0.000 A 
ATOM     25  C   UNL     1      -1.111  13.802  23.214  0.00  0.00    +0.000 A 
ATOM     26  N   UNL     1      -0.200  13.855  22.223  0.00  0.00    +0.000 NA
ATOM     27  C   UNL     1      -0.028  12.723  21.501  0.00  0.00    +0.000 A 
ENDBRANCH  21  22
ENDBRANCH   4  19
TORSDOF 5
ENDMDL
MODEL 6
REMARK VINA RESULT:      -8.3      1.011      1.405
REMARK  Name = 
REMARK  5 active torsions:
REMARK  status: ('A' for Active; 'I' for Inactive)
REMARK    1  A    between atoms: C_3  and  C_4
REMARK    2  A    between atoms: C_4  and  N_5
REMARK    3  A    between atoms: C_12  and  C_13
REMARK    4  A    between atoms: C_16  and  C_17
REMARK    5  A    between atoms: C_19  and  C_20
REMARK                            x       y       z     vdW  Elec       q    Type
REMARK                         _______ _______ _______ _____ _____    ______ ____
ROOT
ATOM      1  C   UNL     1       7.425   7.053  17.717  0.00  0.00    +0.000 A 
ATOM      2  N   UNL     1       8.235   6.704  18.731  0.00  0.00    +0.000 NA
ATOM      3  O   UNL     1       8.813   7.913  19.123  0.00  0.00    +0.000 OA
ATOM      4  C   UNL     1       8.295   8.876  18.306  0.00  0.00    +0.000 A 
ATOM      5  N   UNL     1       7.441   8.398  17.433  0.00  0.00    +0.000 NA
ENDROOT
BRANCH   1  10
ATOM      6  C   UNL     1       5.701   5.226  14.907  0.00  0.00    +0.000 A 
ATOM      7  C   UNL     1       4.978   4.265  15.617  0.00  0.00    +0.000 A 
ATOM      8  C   UNL     1       5.021   4.233  17.016  0.00  0.00    +0.000 A 
ATOM      9  C   UNL     1       5.810   5.178  17.690  0.00  0.00    +0.000 A 
ATOM     10  C   UNL     1       6.560   6.135  16.986  0.00  0.00    +0.000 A 
ATOM     11  C   UNL     1       6.488   6.156  15.588  0.00  0.00    +0.000 A 
BRANCH   8  12
ATOM     12  C   UNL     1       4.290   3.161  17.795  0.00  0.00    +0.000 C 
BRANCH  12  13
ATOM     13  N   UNL     1       2.932   3.541  18.245  0.00  0.00    +0.000 NA
ATOM     14  C   UNL     1       2.046   2.363  18.266  0.00  0.00    +0.000 C 
ATOM     15  C   UNL     1       0.686   2.633  18.916  0.00  0.00    +0.000 C 
ATOM     16  C   UNL     1       0.853   3.217  20.311  0.00  0.00    +0.000 C 
ATOM     17  C   UNL     1       1.695   4.480  20.223  0.00  0.00    +0.000 C 
ATOM     18  C   UNL     1       3.043   4.187  19.565  0.00  0.00    +0.000 C 
ENDBRANCH  12  13
ENDBRANCH   8  12
ENDBRANCH   1  10
BRANCH   4  19
ATOM     19  C   UNL     1       8.671  10.348  18.374  0.00  0.00    +0.000 C 
ATOM     20  C   UNL     1       9.989  10.787  17.771  0.00  0.00    +0.000 C 
ATOM     21  C   UNL     1       9.861  10.701  19.260  0.00  0.00    +0.000 C 
BRANCH  21  22
ATOM     22  C   UNL     1       9.879  11.954  20.092  0.00  0.00    +0.000 A 
ATOM     23  C   UNL     1      10.473  13.146  19.659  0.00  0.00    +0.000 A 
ATOM     24  C   UNL     1      10.402  14.298  20.440  0.00  0.00    +0.000 A 
ATOM     25  C   UNL     1       9.728  14.234  21.646  0.00  0.00    +0.000 A 
ATOM     26  N   UNL     1       9.143  13.115  22.113  0.00  0.00    +0.000 NA
ATOM     27  C   UNL     1       9.227  12.016  21.327  0.00  0.00    +0.000 A 
ENDBRANCH  21  22
ENDBRANCH   4  19
TORSDOF 5
ENDMDL
MODEL 7
REMARK VINA RESULT:      -8.3      7.541      9.146
REMARK  Name = 
REMARK  5 active torsions:
REMARK  status: ('A' for Active; 'I' for Inactive)
REMARK    1  A    between atoms: C_3  and  C_4
REMARK    2  A    between atoms: C_4  and  N_5
REMARK    3  A    between atoms: C_12  and  C_13
REMARK    4  A    between atoms: C_16  and  C_17
REMARK    5  A    between atoms: C_19  and  C_20
REMARK                            x       y       z     vdW  Elec       q    Type
REMARK                         _______ _______ _______ _____ _____    ______ ____
ROOT
ATOM      1  C   UNL     1       0.362   9.824  21.566  0.00  0.00    +0.000 A 
ATOM      2  N   UNL     1       0.782   9.570  22.818  0.00  0.00    +0.000 NA
ATOM      3  O   UNL     1      -0.090  10.313  23.616  0.00  0.00    +0.000 OA
ATOM      4  C   UNL     1      -0.953  10.944  22.767  0.00  0.00    +0.000 A 
ATOM      5  N   UNL     1      -0.716  10.675  21.506  0.00  0.00    +0.000 NA
ENDROOT
BRANCH   1  10
ATOM      6  C   UNL     1       1.472   9.353  17.995  0.00  0.00    +0.000 A 
ATOM      7  C   UNL     1       2.169   8.147  18.088  0.00  0.00    +0.000 A 
ATOM      8  C   UNL     1       2.247   7.464  19.308  0.00  0.00    +0.000 A 
ATOM      9  C   UNL     1       1.621   8.019  20.435  0.00  0.00    +0.000 A 
ATOM     10  C   UNL     1       0.937   9.243  20.359  0.00  0.00    +0.000 A 
ATOM     11  C   UNL     1       0.860   9.899  19.124  0.00  0.00    +0.000 A 
BRANCH   8  12
ATOM     12  C   UNL     1       3.048   6.187  19.437  0.00  0.00    +0.000 C 
BRANCH  12  13
ATOM     13  N   UNL     1       2.657   5.114  18.495  0.00  0.00    +0.000 NA
ATOM     14  C   UNL     1       3.842   4.361  18.047  0.00  0.00    +0.000 C 
ATOM     15  C   UNL     1       3.500   3.108  17.236  0.00  0.00    +0.000 C 
ATOM     16  C   UNL     1       2.536   2.210  17.997  0.00  0.00    +0.000 C 
ATOM     17  C   UNL     1       1.291   3.006  18.354  0.00  0.00    +0.000 C 
ATOM     18  C   UNL     1       1.659   4.254  19.156  0.00  0.00    +0.000 C 
ENDBRANCH  12  13
ENDBRANCH   8  12
ENDBRANCH   1  10
BRANCH   4  19
ATOM     19  C   UNL     1      -2.064  11.880  23.218  0.00  0.00    +0.000 C 
ATOM     20  C   UNL     1      -2.990  12.461  22.170  0.00  0.00    +0.000 C 
ATOM     21  C   UNL     1      -1.939  13.336  22.780  0.00  0.00    +0.000 C 
BRANCH  21  22
ATOM     22  C   UNL     1      -2.335  14.467  23.689  0.00  0.00    +0.000 A 
ATOM     23  C   UNL     1      -1.504  14.953  24.705  0.00  0.00    +0.000 A 
ATOM     24  C   UNL     1      -1.890  16.049  25.476  0.00  0.00    +0.000 A 
ATOM     25  C   UNL     1      -3.110  16.643  25.206  0.00  0.00    +0.000 A 
ATOM     26  N   UNL     1      -3.951  16.214  24.246  0.00  0.00    +0.000 NA
ATOM     27  C   UNL     1      -3.541  15.152  23.514  0.00  0.00    +0.000 A 
ENDBRANCH  21  22
ENDBRANCH   4  19
TORSDOF 5
ENDMDL
MODEL 8
REMARK VINA RESULT:      -8.2      7.477      9.792
REMARK  Name = 
REMARK  5 active torsions:
REMARK  status: ('A' for Active; 'I' for Inactive)
REMARK    1  A    between atoms: C_3  and  C_4
REMARK    2  A    between atoms: C_4  and  N_5
REMARK    3  A    between atoms: C_12  and  C_13
REMARK    4  A    between atoms: C_16  and  C_17
REMARK    5  A    between atoms: C_19  and  C_20
REMARK                            x       y       z     vdW  Elec       q    Type
REMARK                         _______ _______ _______ _____ _____    ______ ____
ROOT
ATOM      1  C   UNL     1       0.466  10.154  21.140  0.00  0.00    +0.000 A 
ATOM      2  N   UNL     1       0.672   9.947  22.452  0.00  0.00    +0.000 NA
ATOM      3  O   UNL     1      -0.165  10.879  23.068  0.00  0.00    +0.000 OA
ATOM      4  C   UNL     1      -0.795  11.559  22.067  0.00  0.00    +0.000 A 
ATOM      5  N   UNL     1      -0.443  11.150  20.872  0.00  0.00    +0.000 NA
ENDROOT
BRANCH   1  10
ATOM      6  C   UNL     1       1.904   9.204  17.788  0.00  0.00    +0.000 A 
ATOM      7  C   UNL     1       2.416   7.935  18.066  0.00  0.00    +0.000 A 
ATOM      8  C   UNL     1       2.262   7.370  19.337  0.00  0.00    +0.000 A 
ATOM      9  C   UNL     1       1.591   8.105  20.327  0.00  0.00    +0.000 A 
ATOM     10  C   UNL     1       1.092   9.391  20.066  0.00  0.00    +0.000 A 
ATOM     11  C   UNL     1       1.246   9.929  18.782  0.00  0.00    +0.000 A 
BRANCH   8  12
ATOM     12  C   UNL     1       2.863   6.022  19.670  0.00  0.00    +0.000 C 
BRANCH  12  13
ATOM     13  N   UNL     1       2.239   4.877  18.969  0.00  0.00    +0.000 NA
ATOM     14  C   UNL     1       3.270   4.029  18.343  0.00  0.00    +0.000 C 
ATOM     15  C   UNL     1       2.722   2.717  17.777  0.00  0.00    +0.000 C 
ATOM     16  C   UNL     1       1.948   1.945  18.835  0.00  0.00    +0.000 C 
ATOM     17  C   UNL     1       0.838   2.829  19.383  0.00  0.00    +0.000 C 
ATOM     18  C   UNL     1       1.409   4.134  19.935  0.00  0.00    +0.000 C 
ENDBRANCH  12  13
ENDBRANCH   8  12
ENDBRANCH   1  10
BRANCH   4  19
ATOM     19  C   UNL     1      -1.789  12.688  22.294  0.00  0.00    +0.000 C 
ATOM     20  C   UNL     1      -2.083  13.118  23.717  0.00  0.00    +0.000 C 
ATOM     21  C   UNL     1      -3.099  12.307  22.974  0.00  0.00    +0.000 C 
BRANCH  21  22
ATOM     22  C   UNL     1      -4.407  12.929  22.566  0.00  0.00    +0.000 A 
ATOM     23  C   UNL     1      -5.050  13.916  23.324  0.00  0.00    +0.000 A 
ATOM     24  C   UNL     1      -6.226  14.508  22.867  0.00  0.00    +0.000 A 
ATOM     25  C   UNL     1      -6.735  14.101  21.647  0.00  0.00    +0.000 A 
ATOM     26  N   UNL     1      -6.163  13.154  20.880  0.00  0.00    +0.000 NA
ATOM     27  C   UNL     1      -5.019  12.604  21.352  0.00  0.00    +0.000 A 
ENDBRANCH  21  22
ENDBRANCH   4  19
TORSDOF 5
ENDMDL
MODEL 9
REMARK VINA RESULT:      -8.2      6.473      9.748
REMARK  Name = 
REMARK  5 active torsions:
REMARK  status: ('A' for Active; 'I' for Inactive)
REMARK    1  A    between atoms: C_3  and  C_4
REMARK    2  A    between atoms: C_4  and  N_5
REMARK    3  A    between atoms: C_12  and  C_13
REMARK    4  A    between atoms: C_16  and  C_17
REMARK    5  A    between atoms: C_19  and  C_20
REMARK                            x       y       z     vdW  Elec       q    Type
REMARK                         _______ _______ _______ _____ _____    ______ ____
ROOT
ATOM      1  C   UNL     1       1.207   9.298  19.550  0.00  0.00    +0.000 A 
ATOM      2  N   UNL     1       1.483  10.124  18.526  0.00  0.00    +0.000 NA
ATOM      3  O   UNL     1       2.093   9.292  17.585  0.00  0.00    +0.000 OA
ATOM      4  C   UNL     1       2.126   8.043  18.133  0.00  0.00    +0.000 A 
ATOM      5  N   UNL     1       1.595   7.997  19.332  0.00  0.00    +0.000 NA
ENDROOT
BRANCH   1  10
ATOM      6  C   UNL     1       0.116   9.433  23.155  0.00  0.00    +0.000 A 
ATOM      7  C   UNL     1      -0.713  10.556  23.142  0.00  0.00    +0.000 A 
ATOM      8  C   UNL     1      -0.949  11.251  21.950  0.00  0.00    +0.000 A 
ATOM      9  C   UNL     1      -0.330  10.803  20.772  0.00  0.00    +0.000 A 
ATOM     10  C   UNL     1       0.524   9.689  20.777  0.00  0.00    +0.000 A 
ATOM     11  C   UNL     1       0.732   9.001  21.979  0.00  0.00    +0.000 A 
BRANCH   8  12
ATOM     12  C   UNL     1      -1.797  12.504  21.932  0.00  0.00    +0.000 C 
BRANCH  12  13
ATOM     13  N   UNL     1      -3.187  12.316  22.406  0.00  0.00    +0.000 NA
ATOM     14  C   UNL     1      -3.389  12.995  23.699  0.00  0.00    +0.000 C 
ATOM     15  C   UNL     1      -4.850  13.022  24.153  0.00  0.00    +0.000 C 
ATOM     16  C   UNL     1      -5.747  13.617  23.078  0.00  0.00    +0.000 C 
ATOM     17  C   UNL     1      -5.573  12.825  21.791  0.00  0.00    +0.000 C 
ATOM     18  C   UNL     1      -4.106  12.806  21.363  0.00  0.00    +0.000 C 
ENDBRANCH  12  13
ENDBRANCH   8  12
ENDBRANCH   1  10
BRANCH   4  19
ATOM     19  C   UNL     1       2.729   6.825  17.450  0.00  0.00    +0.000 C 
ATOM     20  C   UNL     1       2.779   5.518  18.213  0.00  0.00    +0.000 C 
ATOM     21  C   UNL     1       4.040   6.305  18.031  0.00  0.00    +0.000 C 
BRANCH  21  22
ATOM     22  C   UNL     1       5.137   5.776  17.148  0.00  0.00    +0.000 A 
ATOM     23  C   UNL     1       5.001   4.614  16.379  0.00  0.00    +0.000 A 
ATOM     24  C   UNL     1       6.024   4.205  15.525  0.00  0.00    +0.000 A 
ATOM     25  C   UNL     1       7.170   4.977  15.455  0.00  0.00    +0.000 A 
ATOM     26  N   UNL     1       7.356   6.099  16.176  0.00  0.00    +0.000 NA
ATOM     27  C   UNL     1       6.340   6.470  16.990  0.00  0.00    +0.000 A 
ENDBRANCH  21  22
ENDBRANCH   4  19
TORSDOF 5
ENDMDL
