MODEL 1
REMARK VINA RESULT:      -9.3      0.000      0.000
REMARK  Name = 
REMARK  4 active torsions:
REMARK  status: ('A' for Active; 'I' for Inactive)
REMARK    1  A    between atoms: C_2  and  C_15
REMARK    2  A    between atoms: N_3  and  C_4
REMARK    3  A    between atoms: C_4  and  C_5
REMARK    4  A    between atoms: C_9  and  C_10
REMARK                            x       y       z     vdW  Elec       q    Type
REMARK                         _______ _______ _______ _____ _____    ______ ____
ROOT
ATOM      1  O   UNL     1       4.553   5.552  18.400  0.00  0.00    +0.000 OA
ATOM      2  C   UNL     1       5.179   4.592  17.958  0.00  0.00    +0.000 C 
ATOM      3  N   UNL     1       5.364   3.409  18.666  0.00  0.00    +0.000 N 
ATOM      4  H   UNL     1       5.925   2.661  18.281  0.00  0.00    +0.000 HD
ENDROOT
BRANCH   2   5
ATOM      5  C   UNL     1       5.807   4.703  16.619  0.00  0.00    +0.000 A 
ATOM      6  C   UNL     1       6.885   5.561  16.447  0.00  0.00    +0.000 A 
ATOM      7  N   UNL     1       7.557   5.723  15.279  0.00  0.00    +0.000 NA
ATOM      8  C   UNL     1       7.142   5.025  14.205  0.00  0.00    +0.000 A 
ATOM      9  C   UNL     1       7.824   5.138  12.996  0.00  0.00    +0.000 A 
ATOM     10  C   UNL     1       7.425   4.434  11.860  0.00  0.00    +0.000 A 
ATOM     11  C   UNL     1       6.306   3.605  11.916  0.00  0.00    +0.000 A 
ATOM     12  C   UNL     1       5.605   3.476  13.111  0.00  0.00    +0.000 A 
ATOM     13  C   UNL     1       6.020   4.163  14.264  0.00  0.00    +0.000 A 
ATOM     14  C   UNL     1       5.353   4.018  15.495  0.00  0.00    +0.000 A 
ENDBRANCH   2   5
BRANCH   3  15
ATOM     15  C   UNL     1       4.704   3.183  19.939  0.00  0.00    +0.000 C 
BRANCH  15  16
ATOM     16  C   UNL     1       3.299   2.645  19.831  0.00  0.00    +0.000 C 
ATOM     17  C   UNL     1       3.070   1.500  18.874  0.00  0.00    +0.000 C 
ATOM     18  N   UNL     1       1.819   1.889  18.208  0.00  0.00    +0.000 NA
ATOM     19  C   UNL     1       0.949   2.546  19.191  0.00  0.00    +0.000 C 
ATOM     20  C   UNL     1       1.933   3.308  20.033  0.00  0.00    +0.000 C 
ATOM     21  C   UNL     1       2.597   2.575  21.176  0.00  0.00    +0.000 C 
ATOM     22  H   UNL     1       1.360   1.080  17.797  0.00  0.00    +0.000 HD
BRANCH  20  23
ATOM     23  C   UNL     1       1.553   4.721  20.303  0.00  0.00    +0.000 C 
ATOM     24  F   UNL     1       2.225   5.247  21.350  0.00  0.00    +0.000 F 
ATOM     25  F   UNL     1       1.757   5.525  19.232  0.00  0.00    +0.000 F 
ATOM     26  F   UNL     1       0.228   4.780  20.596  0.00  0.00    +0.000 F 
ENDBRANCH  20  23
ENDBRANCH  15  16
ENDBRANCH   3  15
TORSDOF 4
ENDMDL
MODEL 2
REMARK VINA RESULT:      -9.2      1.572      1.881
REMARK  Name = 
REMARK  4 active torsions:
REMARK  status: ('A' for Active; 'I' for Inactive)
REMARK    1  A    between atoms: C_2  and  C_15
REMARK    2  A    between atoms: N_3  and  C_4
REMARK    3  A    between atoms: C_4  and  C_5
REMARK    4  A    between atoms: C_9  and  C_10
REMARK                            x       y       z     vdW  Elec       q    Type
REMARK                         _______ _______ _______ _____ _____    ______ ____
ROOT
ATOM      1  O   UNL     1       6.272   5.047  19.281  0.00  0.00    +0.000 OA
ATOM      2  C   UNL     1       5.832   4.288  18.423  0.00  0.00    +0.000 C 
ATOM      3  N   UNL     1       4.996   3.213  18.709  0.00  0.00    +0.000 N 
ATOM      4  H   UNL     1       4.694   2.586  17.976  0.00  0.00    +0.000 HD
ENDROOT
BRANCH   2   5
ATOM      5  C   UNL     1       6.235   4.494  17.011  0.00  0.00    +0.000 A 
ATOM      6  C   UNL     1       7.152   5.492  16.707  0.00  0.00    +0.000 A 
ATOM      7  N   UNL     1       7.616   5.752  15.459  0.00  0.00    +0.000 NA
ATOM      8  C   UNL     1       7.144   5.012  14.438  0.00  0.00    +0.000 A 
ATOM      9  C   UNL     1       7.619   5.226  13.147  0.00  0.00    +0.000 A 
ATOM     10  C   UNL     1       7.155   4.484  12.061  0.00  0.00    +0.000 A 
ATOM     11  C   UNL     1       6.176   3.510  12.256  0.00  0.00    +0.000 A 
ATOM     12  C   UNL     1       5.683   3.277  13.536  0.00  0.00    +0.000 A 
ATOM     13  C   UNL     1       6.168   4.006  14.635  0.00  0.00    +0.000 A 
ATOM     14  C   UNL     1       5.716   3.761  15.945  0.00  0.00    +0.000 A 
ENDBRANCH   2   5
BRANCH   3  15
ATOM     15  C   UNL     1       4.479   2.998  20.048  0.00  0.00    +0.000 C 
BRANCH  15  16
ATOM     16  C   UNL     1       3.081   3.517  20.271  0.00  0.00    +0.000 C 
ATOM     17  C   UNL     1       2.307   2.939  21.431  0.00  0.00    +0.000 C 
ATOM     18  N   UNL     1       0.975   2.723  20.847  0.00  0.00    +0.000 NA
ATOM     19  C   UNL     1       0.689   3.821  19.916  0.00  0.00    +0.000 C 
ATOM     20  C   UNL     1       2.036   4.086  19.306  0.00  0.00    +0.000 C 
ATOM     21  C   UNL     1       2.972   5.015  20.044  0.00  0.00    +0.000 C 
ATOM     22  H   UNL     1       0.265   2.667  21.574  0.00  0.00    +0.000 HD
BRANCH  20  23
ATOM     23  C   UNL     1       2.030   4.214  17.823  0.00  0.00    +0.000 C 
ATOM     24  F   UNL     1       0.818   4.563  17.339  0.00  0.00    +0.000 F 
ATOM     25  F   UNL     1       2.932   5.120  17.379  0.00  0.00    +0.000 F 
ATOM     26  F   UNL     1       2.362   3.019  17.269  0.00  0.00    +0.000 F 
ENDBRANCH  20  23
ENDBRANCH  15  16
ENDBRANCH   3  15
TORSDOF 4
ENDMDL
MODEL 3
REMARK VINA RESULT:      -8.8      1.982      2.434
REMARK  Name = 
REMARK  4 active torsions:
REMARK  status: ('A' for Active; 'I' for Inactive)
REMARK    1  A    between atoms: C_2  and  C_15
REMARK    2  A    between atoms: N_3  and  C_4
REMARK    3  A    between atoms: C_4  and  C_5
REMARK    4  A    between atoms: C_9  and  C_10
REMARK                            x       y       z     vdW  Elec       q    Type
REMARK                         _______ _______ _______ _____ _____    ______ ____
ROOT
ATOM      1  O   UNL     1       6.159   4.105  18.817  0.00  0.00    +0.000 OA
ATOM      2  C   UNL     1       5.519   4.717  17.967  0.00  0.00    +0.000 C 
ATOM      3  N   UNL     1       4.314   5.360  18.232  0.00  0.00    +0.000 N 
ATOM      4  H   UNL     1       3.798   5.814  17.491  0.00  0.00    +0.000 HD
ENDROOT
BRANCH   2   5
ATOM      5  C   UNL     1       6.026   4.745  16.573  0.00  0.00    +0.000 A 
ATOM      6  C   UNL     1       7.108   5.558  16.263  0.00  0.00    +0.000 A 
ATOM      7  N   UNL     1       7.676   5.643  15.033  0.00  0.00    +0.000 NA
ATOM      8  C   UNL     1       7.144   4.910  14.036  0.00  0.00    +0.000 A 
ATOM      9  C   UNL     1       7.717   4.944  12.767  0.00  0.00    +0.000 A 
ATOM     10  C   UNL     1       7.196   4.202  11.707  0.00  0.00    +0.000 A 
ATOM     11  C   UNL     1       6.063   3.415  11.903  0.00  0.00    +0.000 A 
ATOM     12  C   UNL     1       5.470   3.364  13.161  0.00  0.00    +0.000 A 
ATOM     13  C   UNL     1       6.008   4.090  14.237  0.00  0.00    +0.000 A 
ATOM     14  C   UNL     1       5.452   4.023  15.528  0.00  0.00    +0.000 A 
ENDBRANCH   2   5
BRANCH   3  15
ATOM     15  C   UNL     1       3.798   5.461  19.585  0.00  0.00    +0.000 C 
BRANCH  15  16
ATOM     16  C   UNL     1       2.579   4.617  19.856  0.00  0.00    +0.000 C 
ATOM     17  C   UNL     1       1.833   4.874  21.143  0.00  0.00    +0.000 C 
ATOM     18  N   UNL     1       1.554   3.514  21.626  0.00  0.00    +0.000 NA
ATOM     19  C   UNL     1       1.264   2.657  20.469  0.00  0.00    +0.000 C 
ATOM     20  C   UNL     1       2.205   3.194  19.428  0.00  0.00    +0.000 C 
ATOM     21  C   UNL     1       1.746   4.378  18.609  0.00  0.00    +0.000 C 
ATOM     22  H   UNL     1       0.777   3.515  22.283  0.00  0.00    +0.000 HD
BRANCH  20  23
ATOM     23  C   UNL     1       2.971   2.153  18.690  0.00  0.00    +0.000 C 
ATOM     24  F   UNL     1       4.196   1.940  19.219  0.00  0.00    +0.000 F 
ATOM     25  F   UNL     1       2.323   0.966  18.650  0.00  0.00    +0.000 F 
ATOM     26  F   UNL     1       3.146   2.554  17.403  0.00  0.00    +0.000 F 
ENDBRANCH  20  23
ENDBRANCH  15  16
ENDBRANCH   3  15
TORSDOF 4
ENDMDL
MODEL 4
REMARK VINA RESULT:      -8.8      3.871      7.175
REMARK  Name = 
REMARK  4 active torsions:
REMARK  status: ('A' for Active; 'I' for Inactive)
REMARK    1  A    between atoms: C_2  and  C_15
REMARK    2  A    between atoms: N_3  and  C_4
REMARK    3  A    between atoms: C_4  and  C_5
REMARK    4  A    between atoms: C_9  and  C_10
REMARK                            x       y       z     vdW  Elec       q    Type
REMARK                         _______ _______ _______ _____ _____    ______ ____
ROOT
ATOM      1  O   UNL     1       2.320   6.231  17.915  0.00  0.00    +0.000 OA
ATOM      2  C   UNL     1       2.588   6.593  19.056  0.00  0.00    +0.000 C 
ATOM      3  N   UNL     1       3.502   5.934  19.873  0.00  0.00    +0.000 N 
ATOM      4  H   UNL     1       3.658   6.240  20.824  0.00  0.00    +0.000 HD
ENDROOT
BRANCH   2   5
ATOM      5  C   UNL     1       1.880   7.768  19.619  0.00  0.00    +0.000 A 
ATOM      6  C   UNL     1       1.732   8.907  18.838  0.00  0.00    +0.000 A 
ATOM      7  N   UNL     1       1.078  10.028  19.234  0.00  0.00    +0.000 NA
ATOM      8  C   UNL     1       0.556  10.055  20.475  0.00  0.00    +0.000 A 
ATOM      9  C   UNL     1      -0.150  11.174  20.908  0.00  0.00    +0.000 A 
ATOM     10  C   UNL     1      -0.704  11.243  22.186  0.00  0.00    +0.000 A 
ATOM     11  C   UNL     1      -0.541  10.178  23.070  0.00  0.00    +0.000 A 
ATOM     12  C   UNL     1       0.161   9.048  22.663  0.00  0.00    +0.000 A 
ATOM     13  C   UNL     1       0.698   8.965  21.368  0.00  0.00    +0.000 A 
ATOM     14  C   UNL     1       1.377   7.817  20.917  0.00  0.00    +0.000 A 
ENDBRANCH   2   5
BRANCH   3  15
ATOM     15  C   UNL     1       4.306   4.836  19.368  0.00  0.00    +0.000 C 
BRANCH  15  16
ATOM     16  C   UNL     1       3.554   3.542  19.178  0.00  0.00    +0.000 C 
ATOM     17  C   UNL     1       3.456   3.000  17.773  0.00  0.00    +0.000 C 
ATOM     18  N   UNL     1       2.051   2.577  17.694  0.00  0.00    +0.000 NA
ATOM     19  C   UNL     1       1.653   2.027  18.996  0.00  0.00    +0.000 C 
ATOM     20  C   UNL     1       2.397   2.910  19.958  0.00  0.00    +0.000 C 
ATOM     21  C   UNL     1       3.825   2.543  20.289  0.00  0.00    +0.000 C 
ATOM     22  H   UNL     1       1.920   1.891  16.953  0.00  0.00    +0.000 HD
BRANCH  20  23
ATOM     23  C   UNL     1       1.578   3.418  21.092  0.00  0.00    +0.000 C 
ATOM     24  F   UNL     1       0.860   2.441  21.689  0.00  0.00    +0.000 F 
ATOM     25  F   UNL     1       2.328   4.023  22.042  0.00  0.00    +0.000 F 
ATOM     26  F   UNL     1       0.699   4.345  20.629  0.00  0.00    +0.000 F 
ENDBRANCH  20  23
ENDBRANCH  15  16
ENDBRANCH   3  15
TORSDOF 4
ENDMDL
MODEL 5
REMARK VINA RESULT:      -8.4      1.789      2.168
REMARK  Name = 
REMARK  4 active torsions:
REMARK  status: ('A' for Active; 'I' for Inactive)
REMARK    1  A    between atoms: C_2  and  C_15
REMARK    2  A    between atoms: N_3  and  C_4
REMARK    3  A    between atoms: C_4  and  C_5
REMARK    4  A    between atoms: C_9  and  C_10
REMARK                            x       y       z     vdW  Elec       q    Type
REMARK                         _______ _______ _______ _____ _____    ______ ____
ROOT
ATOM      1  O   UNL     1       5.538   4.378  19.336  0.00  0.00    +0.000 OA
ATOM      2  C   UNL     1       4.981   4.970  18.416  0.00  0.00    +0.000 C 
ATOM      3  N   UNL     1       3.782   5.660  18.566  0.00  0.00    +0.000 N 
ATOM      4  H   UNL     1       3.335   6.095  17.770  0.00  0.00    +0.000 HD
ENDROOT
BRANCH   2   5
ATOM      5  C   UNL     1       5.586   4.920  17.062  0.00  0.00    +0.000 A 
ATOM      6  C   UNL     1       6.764   5.613  16.822  0.00  0.00    +0.000 A 
ATOM      7  N   UNL     1       7.423   5.617  15.636  0.00  0.00    +0.000 NA
ATOM      8  C   UNL     1       6.892   4.923  14.611  0.00  0.00    +0.000 A 
ATOM      9  C   UNL     1       7.554   4.875  13.387  0.00  0.00    +0.000 A 
ATOM     10  C   UNL     1       7.037   4.169  12.301  0.00  0.00    +0.000 A 
ATOM     11  C   UNL     1       5.818   3.504  12.423  0.00  0.00    +0.000 A 
ATOM     12  C   UNL     1       5.135   3.538  13.635  0.00  0.00    +0.000 A 
ATOM     13  C   UNL     1       5.666   4.226  14.739  0.00  0.00    +0.000 A 
ATOM     14  C   UNL     1       5.017   4.241  15.987  0.00  0.00    +0.000 A 
ENDBRANCH   2   5
BRANCH   3  15
ATOM     15  C   UNL     1       3.175   5.837  19.873  0.00  0.00    +0.000 C 
BRANCH  15  16
ATOM     16  C   UNL     1       2.389   4.649  20.366  0.00  0.00    +0.000 C 
ATOM     17  C   UNL     1       2.834   4.016  21.662  0.00  0.00    +0.000 C 
ATOM     18  N   UNL     1       2.753   2.580  21.357  0.00  0.00    +0.000 NA
ATOM     19  C   UNL     1       1.589   2.350  20.492  0.00  0.00    +0.000 C 
ATOM     20  C   UNL     1       1.586   3.576  19.623  0.00  0.00    +0.000 C 
ATOM     21  C   UNL     1       0.894   4.811  20.152  0.00  0.00    +0.000 C 
ATOM     22  H   UNL     1       2.687   2.032  22.211  0.00  0.00    +0.000 HD
BRANCH  20  23
ATOM     23  C   UNL     1       1.411   3.305  18.171  0.00  0.00    +0.000 C 
ATOM     24  F   UNL     1       1.042   4.406  17.480  0.00  0.00    +0.000 F 
ATOM     25  F   UNL     1       2.533   2.810  17.598  0.00  0.00    +0.000 F 
ATOM     26  F   UNL     1       0.436   2.373  18.004  0.00  0.00    +0.000 F 
ENDBRANCH  20  23
ENDBRANCH  15  16
ENDBRANCH   3  15
TORSDOF 4
ENDMDL
MODEL 6
REMARK VINA RESULT:      -8.3      4.206      7.450
REMARK  Name = 
REMARK  4 active torsions:
REMARK  status: ('A' for Active; 'I' for Inactive)
REMARK    1  A    between atoms: C_2  and  C_15
REMARK    2  A    between atoms: N_3  and  C_4
REMARK    3  A    between atoms: C_4  and  C_5
REMARK    4  A    between atoms: C_9  and  C_10
REMARK                            x       y       z     vdW  Elec       q    Type
REMARK                         _______ _______ _______ _____ _____    ______ ____
ROOT
ATOM      1  O   UNL     1       2.643   7.032  17.872  0.00  0.00    +0.000 OA
ATOM      2  C   UNL     1       2.555   7.101  19.095  0.00  0.00    +0.000 C 
ATOM      3  N   UNL     1       3.175   6.203  19.957  0.00  0.00    +0.000 N 
ATOM      4  H   UNL     1       3.038   6.271  20.957  0.00  0.00    +0.000 HD
ENDROOT
BRANCH   2   5
ATOM      5  C   UNL     1       1.716   8.169  19.693  0.00  0.00    +0.000 A 
ATOM      6  C   UNL     1       1.356   9.262  18.915  0.00  0.00    +0.000 A 
ATOM      7  N   UNL     1       0.570  10.281  19.344  0.00  0.00    +0.000 NA
ATOM      8  C   UNL     1       0.124  10.250  20.614  0.00  0.00    +0.000 A 
ATOM      9  C   UNL     1      -0.711  11.260  21.083  0.00  0.00    +0.000 A 
ATOM     10  C   UNL     1      -1.192  11.266  22.392  0.00  0.00    +0.000 A 
ATOM     11  C   UNL     1      -0.822  10.249  23.271  0.00  0.00    +0.000 A 
ATOM     12  C   UNL     1       0.014   9.229  22.829  0.00  0.00    +0.000 A 
ATOM     13  C   UNL     1       0.479   9.206  21.503  0.00  0.00    +0.000 A 
ATOM     14  C   UNL     1       1.291   8.163  21.019  0.00  0.00    +0.000 A 
ENDBRANCH   2   5
BRANCH   3  15
ATOM     15  C   UNL     1       4.088   5.190  19.459  0.00  0.00    +0.000 C 
BRANCH  15  16
ATOM     16  C   UNL     1       3.653   3.770  19.721  0.00  0.00    +0.000 C 
ATOM     17  C   UNL     1       4.687   2.687  19.534  0.00  0.00    +0.000 C 
ATOM     18  N   UNL     1       3.931   1.646  18.822  0.00  0.00    +0.000 NA
ATOM     19  C   UNL     1       2.559   1.625  19.344  0.00  0.00    +0.000 C 
ATOM     20  C   UNL     1       2.290   3.081  19.602  0.00  0.00    +0.000 C 
ATOM     21  C   UNL     1       2.738   3.654  20.927  0.00  0.00    +0.000 C 
ATOM     22  H   UNL     1       4.376   0.738  18.929  0.00  0.00    +0.000 HD
BRANCH  20  23
ATOM     23  C   UNL     1       0.980   3.569  19.094  0.00  0.00    +0.000 C 
ATOM     24  F   UNL     1       0.329   4.338  19.994  0.00  0.00    +0.000 F 
ATOM     25  F   UNL     1       1.101   4.281  17.949  0.00  0.00    +0.000 F 
ATOM     26  F   UNL     1       0.183   2.503  18.815  0.00  0.00    +0.000 F 
ENDBRANCH  20  23
ENDBRANCH  15  16
ENDBRANCH   3  15
TORSDOF 4
ENDMDL
MODEL 7
REMARK VINA RESULT:      -8.3      4.722      7.975
REMARK  Name = 
REMARK  4 active torsions:
REMARK  status: ('A' for Active; 'I' for Inactive)
REMARK    1  A    between atoms: C_2  and  C_15
REMARK    2  A    between atoms: N_3  and  C_4
REMARK    3  A    between atoms: C_4  and  C_5
REMARK    4  A    between atoms: C_9  and  C_10
REMARK                            x       y       z     vdW  Elec       q    Type
REMARK                         _______ _______ _______ _____ _____    ______ ____
ROOT
ATOM      1  O   UNL     1       2.525   8.572  17.276  0.00  0.00    +0.000 OA
ATOM      2  C   UNL     1       2.151   8.209  18.388  0.00  0.00    +0.000 C 
ATOM      3  N   UNL     1       2.396   6.939  18.900  0.00  0.00    +0.000 N 
ATOM      4  H   UNL     1       2.030   6.668  19.803  0.00  0.00    +0.000 HD
ENDROOT
BRANCH   2   5
ATOM      5  C   UNL     1       1.363   9.151  19.220  0.00  0.00    +0.000 A 
ATOM      6  C   UNL     1       1.025  10.393  18.701  0.00  0.00    +0.000 A 
ATOM      7  N   UNL     1       0.284  11.322  19.356  0.00  0.00    +0.000 NA
ATOM      8  C   UNL     1      -0.135  11.037  20.604  0.00  0.00    +0.000 A 
ATOM      9  C   UNL     1      -0.924  11.950  21.298  0.00  0.00    +0.000 A 
ATOM     10  C   UNL     1      -1.377  11.693  22.592  0.00  0.00    +0.000 A 
ATOM     11  C   UNL     1      -1.024  10.504  23.227  0.00  0.00    +0.000 A 
ATOM     12  C   UNL     1      -0.234   9.575  22.556  0.00  0.00    +0.000 A 
ATOM     13  C   UNL     1       0.201   9.818  21.243  0.00  0.00    +0.000 A 
ATOM     14  C   UNL     1       0.966   8.878  20.527  0.00  0.00    +0.000 A 
ENDBRANCH   2   5
BRANCH   3  15
ATOM     15  C   UNL     1       3.239   5.992  18.192  0.00  0.00    +0.000 C 
BRANCH  15  16
ATOM     16  C   UNL     1       3.730   4.840  19.030  0.00  0.00    +0.000 C 
ATOM     17  C   UNL     1       5.221   4.716  19.228  0.00  0.00    +0.000 C 
ATOM     18  N   UNL     1       5.446   3.275  19.046  0.00  0.00    +0.000 NA
ATOM     19  C   UNL     1       4.308   2.546  19.621  0.00  0.00    +0.000 C 
ATOM     20  C   UNL     1       3.151   3.445  19.289  0.00  0.00    +0.000 C 
ATOM     21  C   UNL     1       2.847   4.580  20.239  0.00  0.00    +0.000 C 
ATOM     22  H   UNL     1       6.320   2.986  19.479  0.00  0.00    +0.000 HD
BRANCH  20  23
ATOM     23  C   UNL     1       1.969   2.746  18.715  0.00  0.00    +0.000 C 
ATOM     24  F   UNL     1       2.138   2.430  17.412  0.00  0.00    +0.000 F 
ATOM     25  F   UNL     1       1.666   1.608  19.383  0.00  0.00    +0.000 F 
ATOM     26  F   UNL     1       0.883   3.558  18.801  0.00  0.00    +0.000 F 
ENDBRANCH  20  23
ENDBRANCH  15  16
ENDBRANCH   3  15
TORSDOF 4
ENDMDL
MODEL 8
REMARK VINA RESULT:      -8.3      1.467      1.839
REMARK  Name = 
REMARK  4 active torsions:
REMARK  status: ('A' for Active; 'I' for Inactive)
REMARK    1  A    between atoms: C_2  and  C_15
REMARK    2  A    between atoms: N_3  and  C_4
REMARK    3  A    between atoms: C_4  and  C_5
REMARK    4  A    between atoms: C_9  and  C_10
REMARK                            x       y       z     vdW  Elec       q    Type
REMARK                         _______ _______ _______ _____ _____    ______ ____
ROOT
ATOM      1  O   UNL     1       5.040   6.609  18.203  0.00  0.00    +0.000 OA
ATOM      2  C   UNL     1       5.233   5.449  17.850  0.00  0.00    +0.000 C 
ATOM      3  N   UNL     1       4.994   4.351  18.671  0.00  0.00    +0.000 N 
ATOM      4  H   UNL     1       5.210   3.415  18.355  0.00  0.00    +0.000 HD
ENDROOT
BRANCH   2   5
ATOM      5  C   UNL     1       5.784   5.195  16.497  0.00  0.00    +0.000 A 
ATOM      6  C   UNL     1       7.020   5.730  16.158  0.00  0.00    +0.000 A 
ATOM      7  N   UNL     1       7.636   5.540  14.965  0.00  0.00    +0.000 NA
ATOM      8  C   UNL     1       7.003   4.803  14.032  0.00  0.00    +0.000 A 
ATOM      9  C   UNL     1       7.615   4.558  12.806  0.00  0.00    +0.000 A 
ATOM     10  C   UNL     1       6.993   3.802  11.813  0.00  0.00    +0.000 A 
ATOM     11  C   UNL     1       5.717   3.285  12.033  0.00  0.00    +0.000 A 
ATOM     12  C   UNL     1       5.082   3.517  13.249  0.00  0.00    +0.000 A 
ATOM     13  C   UNL     1       5.717   4.257  14.261  0.00  0.00    +0.000 A 
ATOM     14  C   UNL     1       5.114   4.470  15.514  0.00  0.00    +0.000 A 
ENDBRANCH   2   5
BRANCH   3  15
ATOM     15  C   UNL     1       4.366   4.507  19.971  0.00  0.00    +0.000 C 
BRANCH  15  16
ATOM     16  C   UNL     1       2.953   3.987  20.051  0.00  0.00    +0.000 C 
ATOM     17  C   UNL     1       2.703   2.807  20.959  0.00  0.00    +0.000 C 
ATOM     18  N   UNL     1       1.822   1.960  20.142  0.00  0.00    +0.000 NA
ATOM     19  C   UNL     1       0.919   2.827  19.374  0.00  0.00    +0.000 C 
ATOM     20  C   UNL     1       1.802   3.996  19.041  0.00  0.00    +0.000 C 
ATOM     21  C   UNL     1       1.922   5.101  20.064  0.00  0.00    +0.000 C 
ATOM     22  H   UNL     1       1.297   1.313  20.726  0.00  0.00    +0.000 HD
BRANCH  20  23
ATOM     23  C   UNL     1       1.742   4.432  17.619  0.00  0.00    +0.000 C 
ATOM     24  F   UNL     1       2.535   3.689  16.816  0.00  0.00    +0.000 F 
ATOM     25  F   UNL     1       0.485   4.388  17.118  0.00  0.00    +0.000 F 
ATOM     26  F   UNL     1       2.160   5.721  17.528  0.00  0.00    +0.000 F 
ENDBRANCH  20  23
ENDBRANCH  15  16
ENDBRANCH   3  15
TORSDOF 4
ENDMDL
MODEL 9
REMARK VINA RESULT:      -8.2      4.187      7.405
REMARK  Name = 
REMARK  4 active torsions:
REMARK  status: ('A' for Active; 'I' for Inactive)
REMARK    1  A    between atoms: C_2  and  C_15
REMARK    2  A    between atoms: N_3  and  C_4
REMARK    3  A    between atoms: C_4  and  C_5
REMARK    4  A    between atoms: C_9  and  C_10
REMARK                            x       y       z     vdW  Elec       q    Type
REMARK                         _______ _______ _______ _____ _____    ______ ____
ROOT
ATOM      1  O   UNL     1       3.258   7.995  17.571  0.00  0.00    +0.000 OA
ATOM      2  C   UNL     1       2.532   7.570  18.464  0.00  0.00    +0.000 C 
ATOM      3  N   UNL     1       2.407   6.219  18.770  0.00  0.00    +0.000 N 
ATOM      4  H   UNL     1       1.763   5.909  19.484  0.00  0.00    +0.000 HD
ENDROOT
BRANCH   2   5
ATOM      5  C   UNL     1       1.711   8.533  19.238  0.00  0.00    +0.000 A 
ATOM      6  C   UNL     1       1.294   9.709  18.630  0.00  0.00    +0.000 A 
ATOM      7  N   UNL     1       0.517  10.647  19.227  0.00  0.00    +0.000 NA
ATOM      8  C   UNL     1       0.141  10.443  20.504  0.00  0.00    +0.000 A 
ATOM      9  C   UNL     1      -0.683  11.366  21.142  0.00  0.00    +0.000 A 
ATOM     10  C   UNL     1      -1.093  11.193  22.464  0.00  0.00    +0.000 A 
ATOM     11  C   UNL     1      -0.660  10.079  23.183  0.00  0.00    +0.000 A 
ATOM     12  C   UNL     1       0.165   9.142  22.569  0.00  0.00    +0.000 A 
ATOM     13  C   UNL     1       0.558   9.301  21.230  0.00  0.00    +0.000 A 
ATOM     14  C   UNL     1       1.358   8.347  20.573  0.00  0.00    +0.000 A 
ENDBRANCH   2   5
BRANCH   3  15
ATOM     15  C   UNL     1       3.244   5.222  18.126  0.00  0.00    +0.000 C 
BRANCH  15  16
ATOM     16  C   UNL     1       2.963   3.801  18.545  0.00  0.00    +0.000 C 
ATOM     17  C   UNL     1       2.758   2.786  17.447  0.00  0.00    +0.000 C 
ATOM     18  N   UNL     1       1.604   2.019  17.937  0.00  0.00    +0.000 NA
ATOM     19  C   UNL     1       1.711   1.891  19.395  0.00  0.00    +0.000 C 
ATOM     20  C   UNL     1       2.293   3.218  19.793  0.00  0.00    +0.000 C 
ATOM     21  C   UNL     1       3.795   3.371  19.740  0.00  0.00    +0.000 C 
ATOM     22  H   UNL     1       1.561   1.104  17.492  0.00  0.00    +0.000 HD
BRANCH  20  23
ATOM     23  C   UNL     1       1.614   3.872  20.944  0.00  0.00    +0.000 C 
ATOM     24  F   UNL     1       2.422   4.733  21.600  0.00  0.00    +0.000 F 
ATOM     25  F   UNL     1       0.500   4.546  20.573  0.00  0.00    +0.000 F 
ATOM     26  F   UNL     1       1.224   2.920  21.833  0.00  0.00    +0.000 F 
ENDBRANCH  20  23
ENDBRANCH  15  16
ENDBRANCH   3  15
TORSDOF 4
ENDMDL
