MODEL 1
REMARK VINA RESULT:      -9.9      0.000      0.000
REMARK  Name = 
REMARK  2 active torsions:
REMARK  status: ('A' for Active; 'I' for Inactive)
REMARK    1  A    between atoms: C_7  and  C_9
REMARK    2  A    between atoms: C_22  and  C_23
REMARK                            x       y       z     vdW  Elec       q    Type
REMARK                         _______ _______ _______ _____ _____    ______ ____
ROOT
ATOM      1  O   UNL     1       4.322   1.634  17.649  0.00  0.00    +0.000 OA
ATOM      2  C   UNL     1       3.616   2.617  17.851  0.00  0.00    +0.000 C 
ATOM      3  N   UNL     1       2.251   2.432  17.933  0.00  0.00    +0.000 N 
ATOM      4  C   UNL     1       1.338   3.525  18.174  0.00  0.00    +0.000 C 
ATOM      5  C   UNL     1       2.007   4.584  19.030  0.00  0.00    +0.000 C 
ATOM      6  N   UNL     1       3.134   5.132  18.273  0.00  0.00    +0.000 N 
ATOM      7  C   UNL     1       3.424   6.514  18.203  0.00  0.00    +0.000 C 
ATOM      8  O   UNL     1       4.521   6.902  17.805  0.00  0.00    +0.000 OA
ATOM      9  C   UNL     1       4.193   4.089  18.036  0.00  0.00    +0.000 C 
ATOM     10  H   UNL     1       1.918   1.509  17.727  0.00  0.00    +0.000 HD
ENDROOT
BRANCH   7  11
ATOM     11  C   UNL     1       2.450   7.513  18.686  0.00  0.00    +0.000 A 
ATOM     12  C   UNL     1       1.908   8.563  17.951  0.00  0.00    +0.000 A 
ATOM     13  C   UNL     1       1.196   9.494  18.776  0.00  0.00    +0.000 A 
ATOM     14  C   UNL     1       1.035   9.006  20.050  0.00  0.00    +0.000 A 
ATOM     15  S   UNL     1       1.650   7.430  20.210  0.00  0.00    +0.000 S 
ATOM     16  C   UNL     1       0.339   9.773  21.075  0.00  0.00    +0.000 A 
ATOM     17  C   UNL     1       0.212   9.367  22.408  0.00  0.00    +0.000 A 
ATOM     18  C   UNL     1      -0.518  10.141  23.317  0.00  0.00    +0.000 A 
ATOM     19  C   UNL     1      -1.097  11.340  22.908  0.00  0.00    +0.000 A 
ATOM     20  C   UNL     1      -0.957  11.766  21.586  0.00  0.00    +0.000 A 
ATOM     21  C   UNL     1      -0.249  10.985  20.669  0.00  0.00    +0.000 A 
ATOM     22  O   UNL     1      -0.232  11.457  19.378  0.00  0.00    +0.000 OA
ATOM     23  C   UNL     1       0.674  10.850  18.423  0.00  0.00    +0.000 C 
ENDBRANCH   7  11
BRANCH   9  24
ATOM     24  C   UNL     1       5.157   4.329  16.896  0.00  0.00    +0.000 A 
ATOM     25  C   UNL     1       4.749   4.259  15.557  0.00  0.00    +0.000 A 
ATOM     26  C   UNL     1       5.682   4.413  14.529  0.00  0.00    +0.000 A 
ATOM     27  C   UNL     1       7.029   4.634  14.824  0.00  0.00    +0.000 A 
ATOM     28  C   UNL     1       7.448   4.691  16.151  0.00  0.00    +0.000 A 
ATOM     29  C   UNL     1       6.516   4.533  17.171  0.00  0.00    +0.000 A 
ATOM     30  F   UNL     1       6.948   4.561  18.442  0.00  0.00    +0.000 F 
ENDBRANCH   9  24
TORSDOF 2
ENDMDL
MODEL 2
REMARK VINA RESULT:      -9.7      1.277      1.591
REMARK  Name = 
REMARK  2 active torsions:
REMARK  status: ('A' for Active; 'I' for Inactive)
REMARK    1  A    between atoms: C_7  and  C_9
REMARK    2  A    between atoms: C_22  and  C_23
REMARK                            x       y       z     vdW  Elec       q    Type
REMARK                         _______ _______ _______ _____ _____    ______ ____
ROOT
ATOM      1  O   UNL     1       4.844   1.959  19.733  0.00  0.00    +0.000 OA
ATOM      2  C   UNL     1       4.034   2.882  19.723  0.00  0.00    +0.000 C 
ATOM      3  N   UNL     1       2.724   2.601  20.053  0.00  0.00    +0.000 N 
ATOM      4  C   UNL     1       1.700   3.619  20.075  0.00  0.00    +0.000 C 
ATOM      5  C   UNL     1       2.302   4.958  20.457  0.00  0.00    +0.000 C 
ATOM      6  N   UNL     1       3.256   5.338  19.414  0.00  0.00    +0.000 N 
ATOM      7  C   UNL     1       3.343   6.645  18.880  0.00  0.00    +0.000 C 
ATOM      8  O   UNL     1       4.329   6.988  18.228  0.00  0.00    +0.000 OA
ATOM      9  C   UNL     1       4.418   4.384  19.360  0.00  0.00    +0.000 C 
ATOM     10  H   UNL     1       2.502   1.634  20.192  0.00  0.00    +0.000 HD
ENDROOT
BRANCH   7  11
ATOM     11  C   UNL     1       2.297   7.647  19.167  0.00  0.00    +0.000 A 
ATOM     12  C   UNL     1       1.748   8.552  18.264  0.00  0.00    +0.000 A 
ATOM     13  C   UNL     1       0.947   9.549  18.912  0.00  0.00    +0.000 A 
ATOM     14  C   UNL     1       0.738   9.236  20.233  0.00  0.00    +0.000 A 
ATOM     15  S   UNL     1       1.417   7.734  20.646  0.00  0.00    +0.000 S 
ATOM     16  C   UNL     1      -0.050  10.098  21.102  0.00  0.00    +0.000 A 
ATOM     17  C   UNL     1      -0.234   9.876  22.471  0.00  0.00    +0.000 A 
ATOM     18  C   UNL     1      -1.050  10.728  23.224  0.00  0.00    +0.000 A 
ATOM     19  C   UNL     1      -1.661  11.825  22.620  0.00  0.00    +0.000 A 
ATOM     20  C   UNL     1      -1.466  12.069  21.259  0.00  0.00    +0.000 A 
ATOM     21  C   UNL     1      -0.671  11.208  20.499  0.00  0.00    +0.000 A 
ATOM     22  O   UNL     1      -0.604  11.495  19.156  0.00  0.00    +0.000 OA
ATOM     23  C   UNL     1       0.383  10.811  18.344  0.00  0.00    +0.000 C 
ENDBRANCH   7  11
BRANCH   9  24
ATOM     24  C   UNL     1       5.214   4.334  18.075  0.00  0.00    +0.000 A 
ATOM     25  C   UNL     1       6.580   4.645  18.039  0.00  0.00    +0.000 A 
ATOM     26  C   UNL     1       7.266   4.660  16.822  0.00  0.00    +0.000 A 
ATOM     27  C   UNL     1       6.599   4.371  15.631  0.00  0.00    +0.000 A 
ATOM     28  C   UNL     1       5.238   4.074  15.653  0.00  0.00    +0.000 A 
ATOM     29  C   UNL     1       4.559   4.064  16.866  0.00  0.00    +0.000 A 
ATOM     30  F   UNL     1       3.241   3.806  16.859  0.00  0.00    +0.000 F 
ENDBRANCH   9  24
TORSDOF 2
ENDMDL
MODEL 3
REMARK VINA RESULT:      -9.7      1.076      1.139
REMARK  Name = 
REMARK  2 active torsions:
REMARK  status: ('A' for Active; 'I' for Inactive)
REMARK    1  A    between atoms: C_7  and  C_9
REMARK    2  A    between atoms: C_22  and  C_23
REMARK                            x       y       z     vdW  Elec       q    Type
REMARK                         _______ _______ _______ _____ _____    ______ ____
ROOT
ATOM      1  O   UNL     1       4.844   2.121  19.731  0.00  0.00    +0.000 OA
ATOM      2  C   UNL     1       4.022   3.033  19.721  0.00  0.00    +0.000 C 
ATOM      3  N   UNL     1       2.722   2.740  20.078  0.00  0.00    +0.000 N 
ATOM      4  C   UNL     1       1.685   3.745  20.104  0.00  0.00    +0.000 C 
ATOM      5  C   UNL     1       2.277   5.097  20.456  0.00  0.00    +0.000 C 
ATOM      6  N   UNL     1       3.208   5.475  19.392  0.00  0.00    +0.000 N 
ATOM      7  C   UNL     1       3.269   6.775  18.839  0.00  0.00    +0.000 C 
ATOM      8  O   UNL     1       4.238   7.121  18.164  0.00  0.00    +0.000 OA
ATOM      9  C   UNL     1       4.381   4.534  19.331  0.00  0.00    +0.000 C 
ATOM     10  H   UNL     1       2.515   1.773  20.235  0.00  0.00    +0.000 HD
ENDROOT
BRANCH   7  11
ATOM     11  C   UNL     1       2.216   7.767  19.129  0.00  0.00    +0.000 A 
ATOM     12  C   UNL     1       1.640   8.653  18.223  0.00  0.00    +0.000 A 
ATOM     13  C   UNL     1       0.837   9.648  18.871  0.00  0.00    +0.000 A 
ATOM     14  C   UNL     1       0.655   9.351  20.200  0.00  0.00    +0.000 A 
ATOM     15  S   UNL     1       1.360   7.864  20.622  0.00  0.00    +0.000 S 
ATOM     16  C   UNL     1      -0.130  10.216  21.070  0.00  0.00    +0.000 A 
ATOM     17  C   UNL     1      -0.287  10.012  22.445  0.00  0.00    +0.000 A 
ATOM     18  C   UNL     1      -1.100  10.864  23.200  0.00  0.00    +0.000 A 
ATOM     19  C   UNL     1      -1.736  11.945  22.591  0.00  0.00    +0.000 A 
ATOM     20  C   UNL     1      -1.568  12.171  21.225  0.00  0.00    +0.000 A 
ATOM     21  C   UNL     1      -0.775  11.310  20.462  0.00  0.00    +0.000 A 
ATOM     22  O   UNL     1      -0.735  11.579  19.115  0.00  0.00    +0.000 OA
ATOM     23  C   UNL     1       0.247  10.895  18.295  0.00  0.00    +0.000 C 
ENDBRANCH   7  11
BRANCH   9  24
ATOM     24  C   UNL     1       5.155   4.476  18.033  0.00  0.00    +0.000 A 
ATOM     25  C   UNL     1       4.560   4.055  16.836  0.00  0.00    +0.000 A 
ATOM     26  C   UNL     1       5.324   3.944  15.671  0.00  0.00    +0.000 A 
ATOM     27  C   UNL     1       6.686   4.246  15.689  0.00  0.00    +0.000 A 
ATOM     28  C   UNL     1       7.291   4.652  16.876  0.00  0.00    +0.000 A 
ATOM     29  C   UNL     1       6.527   4.758  18.033  0.00  0.00    +0.000 A 
ATOM     30  F   UNL     1       7.139   5.122  19.172  0.00  0.00    +0.000 F 
ENDBRANCH   9  24
TORSDOF 2
ENDMDL
MODEL 4
REMARK VINA RESULT:      -9.2      1.928      2.682
REMARK  Name = 
REMARK  2 active torsions:
REMARK  status: ('A' for Active; 'I' for Inactive)
REMARK    1  A    between atoms: C_7  and  C_9
REMARK    2  A    between atoms: C_22  and  C_23
REMARK                            x       y       z     vdW  Elec       q    Type
REMARK                         _______ _______ _______ _____ _____    ______ ____
ROOT
ATOM      1  O   UNL     1       4.408   2.488  19.952  0.00  0.00    +0.000 OA
ATOM      2  C   UNL     1       3.625   3.425  19.833  0.00  0.00    +0.000 C 
ATOM      3  N   UNL     1       2.295   3.203  20.126  0.00  0.00    +0.000 N 
ATOM      4  C   UNL     1       1.299   4.243  20.023  0.00  0.00    +0.000 C 
ATOM      5  C   UNL     1       1.921   5.594  20.325  0.00  0.00    +0.000 C 
ATOM      6  N   UNL     1       2.928   5.867  19.299  0.00  0.00    +0.000 N 
ATOM      7  C   UNL     1       3.073   7.125  18.669  0.00  0.00    +0.000 C 
ATOM      8  O   UNL     1       4.093   7.392  18.036  0.00  0.00    +0.000 OA
ATOM      9  C   UNL     1       4.065   4.884  19.371  0.00  0.00    +0.000 C 
ATOM     10  H   UNL     1       2.041   2.255  20.331  0.00  0.00    +0.000 HD
ENDROOT
BRANCH   7  11
ATOM     11  C   UNL     1       2.043   8.171  18.830  0.00  0.00    +0.000 A 
ATOM     12  C   UNL     1       1.801   8.926  19.974  0.00  0.00    +0.000 A 
ATOM     13  C   UNL     1       0.578   9.668  19.887  0.00  0.00    +0.000 A 
ATOM     14  C   UNL     1       0.061   9.626  18.615  0.00  0.00    +0.000 A 
ATOM     15  S   UNL     1       1.078   8.788  17.543  0.00  0.00    +0.000 S 
ATOM     16  C   UNL     1      -1.180  10.309  18.278  0.00  0.00    +0.000 A 
ATOM     17  C   UNL     1      -1.798  10.240  17.024  0.00  0.00    +0.000 A 
ATOM     18  C   UNL     1      -2.965  10.969  16.768  0.00  0.00    +0.000 A 
ATOM     19  C   UNL     1      -3.538  11.746  17.773  0.00  0.00    +0.000 A 
ATOM     20  C   UNL     1      -2.942  11.804  19.033  0.00  0.00    +0.000 A 
ATOM     21  C   UNL     1      -1.765  11.097  19.287  0.00  0.00    +0.000 A 
ATOM     22  O   UNL     1      -1.221  11.280  20.536  0.00  0.00    +0.000 OA
ATOM     23  C   UNL     1      -0.149  10.404  20.967  0.00  0.00    +0.000 C 
ENDBRANCH   7  11
BRANCH   9  24
ATOM     24  C   UNL     1       4.912   4.714  18.130  0.00  0.00    +0.000 A 
ATOM     25  C   UNL     1       4.365   4.274  16.916  0.00  0.00    +0.000 A 
ATOM     26  C   UNL     1       5.191   4.058  15.811  0.00  0.00    +0.000 A 
ATOM     27  C   UNL     1       6.567   4.272  15.904  0.00  0.00    +0.000 A 
ATOM     28  C   UNL     1       7.123   4.696  17.109  0.00  0.00    +0.000 A 
ATOM     29  C   UNL     1       6.298   4.906  18.208  0.00  0.00    +0.000 A 
ATOM     30  F   UNL     1       6.860   5.284  19.367  0.00  0.00    +0.000 F 
ENDBRANCH   9  24
TORSDOF 2
ENDMDL
MODEL 5
REMARK VINA RESULT:      -9.1      1.152      2.006
REMARK  Name = 
REMARK  2 active torsions:
REMARK  status: ('A' for Active; 'I' for Inactive)
REMARK    1  A    between atoms: C_7  and  C_9
REMARK    2  A    between atoms: C_22  and  C_23
REMARK                            x       y       z     vdW  Elec       q    Type
REMARK                         _______ _______ _______ _____ _____    ______ ____
ROOT
ATOM      1  O   UNL     1       4.001   1.629  17.654  0.00  0.00    +0.000 OA
ATOM      2  C   UNL     1       3.365   2.645  17.918  0.00  0.00    +0.000 C 
ATOM      3  N   UNL     1       1.995   2.540  18.046  0.00  0.00    +0.000 N 
ATOM      4  C   UNL     1       1.161   3.677  18.360  0.00  0.00    +0.000 C 
ATOM      5  C   UNL     1       1.925   4.661  19.226  0.00  0.00    +0.000 C 
ATOM      6  N   UNL     1       3.055   5.167  18.445  0.00  0.00    +0.000 N 
ATOM      7  C   UNL     1       3.428   6.531  18.412  0.00  0.00    +0.000 C 
ATOM      8  O   UNL     1       4.532   6.866  17.985  0.00  0.00    +0.000 OA
ATOM      9  C   UNL     1       4.039   4.072  18.131  0.00  0.00    +0.000 C 
ATOM     10  H   UNL     1       1.598   1.648  17.822  0.00  0.00    +0.000 HD
ENDROOT
BRANCH   7  11
ATOM     11  C   UNL     1       2.536   7.569  18.967  0.00  0.00    +0.000 A 
ATOM     12  C   UNL     1       2.160   7.711  20.300  0.00  0.00    +0.000 A 
ATOM     13  C   UNL     1       1.093   8.653  20.466  0.00  0.00    +0.000 A 
ATOM     14  C   UNL     1       0.856   9.345  19.303  0.00  0.00    +0.000 A 
ATOM     15  S   UNL     1       1.957   8.927  18.078  0.00  0.00    +0.000 S 
ATOM     16  C   UNL     1      -0.183  10.363  19.223  0.00  0.00    +0.000 A 
ATOM     17  C   UNL     1      -0.525  11.046  18.050  0.00  0.00    +0.000 A 
ATOM     18  C   UNL     1      -1.503  12.046  18.072  0.00  0.00    +0.000 A 
ATOM     19  C   UNL     1      -2.168  12.348  19.259  0.00  0.00    +0.000 A 
ATOM     20  C   UNL     1      -1.850  11.658  20.430  0.00  0.00    +0.000 A 
ATOM     21  C   UNL     1      -0.858  10.674  20.418  0.00  0.00    +0.000 A 
ATOM     22  O   UNL     1      -0.572  10.107  21.637  0.00  0.00    +0.000 OA
ATOM     23  C   UNL     1       0.258   8.919  21.677  0.00  0.00    +0.000 C 
ENDBRANCH   7  11
BRANCH   9  24
ATOM     24  C   UNL     1       4.973   4.295  16.963  0.00  0.00    +0.000 A 
ATOM     25  C   UNL     1       4.518   4.269  15.637  0.00  0.00    +0.000 A 
ATOM     26  C   UNL     1       5.421   4.406  14.581  0.00  0.00    +0.000 A 
ATOM     27  C   UNL     1       6.785   4.564  14.834  0.00  0.00    +0.000 A 
ATOM     28  C   UNL     1       7.250   4.576  16.147  0.00  0.00    +0.000 A 
ATOM     29  C   UNL     1       6.347   4.437  17.195  0.00  0.00    +0.000 A 
ATOM     30  F   UNL     1       6.822   4.421  18.450  0.00  0.00    +0.000 F 
ENDBRANCH   9  24
TORSDOF 2
ENDMDL
MODEL 6
REMARK VINA RESULT:      -9.0      1.981      2.853
REMARK  Name = 
REMARK  2 active torsions:
REMARK  status: ('A' for Active; 'I' for Inactive)
REMARK    1  A    between atoms: C_7  and  C_9
REMARK    2  A    between atoms: C_22  and  C_23
REMARK                            x       y       z     vdW  Elec       q    Type
REMARK                         _______ _______ _______ _____ _____    ______ ____
ROOT
ATOM      1  O   UNL     1       4.532   2.317  19.910  0.00  0.00    +0.000 OA
ATOM      2  C   UNL     1       3.753   3.260  19.805  0.00  0.00    +0.000 C 
ATOM      3  N   UNL     1       2.423   3.041  20.098  0.00  0.00    +0.000 N 
ATOM      4  C   UNL     1       1.432   4.087  20.010  0.00  0.00    +0.000 C 
ATOM      5  C   UNL     1       2.062   5.431  20.327  0.00  0.00    +0.000 C 
ATOM      6  N   UNL     1       3.068   5.712  19.302  0.00  0.00    +0.000 N 
ATOM      7  C   UNL     1       3.218   6.977  18.687  0.00  0.00    +0.000 C 
ATOM      8  O   UNL     1       4.238   7.246  18.055  0.00  0.00    +0.000 OA
ATOM      9  C   UNL     1       4.200   4.722  19.359  0.00  0.00    +0.000 C 
ATOM     10  H   UNL     1       2.165   2.092  20.292  0.00  0.00    +0.000 HD
ENDROOT
BRANCH   7  11
ATOM     11  C   UNL     1       2.194   8.025  18.863  0.00  0.00    +0.000 A 
ATOM     12  C   UNL     1       1.932   8.740  20.029  0.00  0.00    +0.000 A 
ATOM     13  C   UNL     1       0.718   9.496  19.942  0.00  0.00    +0.000 A 
ATOM     14  C   UNL     1       0.230   9.506  18.658  0.00  0.00    +0.000 A 
ATOM     15  S   UNL     1       1.264   8.699  17.578  0.00  0.00    +0.000 S 
ATOM     16  C   UNL     1      -0.997  10.213  18.317  0.00  0.00    +0.000 A 
ATOM     17  C   UNL     1      -1.587  10.196  17.048  0.00  0.00    +0.000 A 
ATOM     18  C   UNL     1      -2.741  10.945  16.793  0.00  0.00    +0.000 A 
ATOM     19  C   UNL     1      -3.331  11.690  17.813  0.00  0.00    +0.000 A 
ATOM     20  C   UNL     1      -2.764  11.696  19.088  0.00  0.00    +0.000 A 
ATOM     21  C   UNL     1      -1.598  10.968  19.342  0.00  0.00    +0.000 A 
ATOM     22  O   UNL     1      -1.081  11.101  20.609  0.00  0.00    +0.000 OA
ATOM     23  C   UNL     1      -0.027  10.200  21.031  0.00  0.00    +0.000 C 
ENDBRANCH   7  11
BRANCH   9  24
ATOM     24  C   UNL     1       5.043   4.563  18.114  0.00  0.00    +0.000 A 
ATOM     25  C   UNL     1       6.414   4.855  18.108  0.00  0.00    +0.000 A 
ATOM     26  C   UNL     1       7.147   4.767  16.922  0.00  0.00    +0.000 A 
ATOM     27  C   UNL     1       6.521   4.391  15.732  0.00  0.00    +0.000 A 
ATOM     28  C   UNL     1       5.156   4.112  15.723  0.00  0.00    +0.000 A 
ATOM     29  C   UNL     1       4.431   4.204  16.906  0.00  0.00    +0.000 A 
ATOM     30  F   UNL     1       3.112   3.960  16.867  0.00  0.00    +0.000 F 
ENDBRANCH   9  24
TORSDOF 2
ENDMDL
MODEL 7
REMARK VINA RESULT:      -8.1      3.621      8.722
REMARK  Name = 
REMARK  2 active torsions:
REMARK  status: ('A' for Active; 'I' for Inactive)
REMARK    1  A    between atoms: C_7  and  C_9
REMARK    2  A    between atoms: C_22  and  C_23
REMARK                            x       y       z     vdW  Elec       q    Type
REMARK                         _______ _______ _______ _____ _____    ______ ____
ROOT
ATOM      1  O   UNL     1      -2.204  12.597  22.254  0.00  0.00    +0.000 OA
ATOM      2  C   UNL     1      -1.438  11.657  22.064  0.00  0.00    +0.000 C 
ATOM      3  N   UNL     1      -1.156  10.823  23.126  0.00  0.00    +0.000 N 
ATOM      4  C   UNL     1      -0.273   9.687  23.002  0.00  0.00    +0.000 C 
ATOM      5  C   UNL     1      -0.351   9.117  21.597  0.00  0.00    +0.000 C 
ATOM      6  N   UNL     1       0.136  10.138  20.668  0.00  0.00    +0.000 N 
ATOM      7  C   UNL     1       1.013   9.856  19.594  0.00  0.00    +0.000 C 
ATOM      8  O   UNL     1       1.166  10.668  18.684  0.00  0.00    +0.000 OA
ATOM      9  C   UNL     1      -0.766  11.343  20.655  0.00  0.00    +0.000 C 
ATOM     10  H   UNL     1      -1.528  11.100  24.015  0.00  0.00    +0.000 HD
ENDROOT
BRANCH   7  11
ATOM     11  C   UNL     1       1.694   8.549  19.503  0.00  0.00    +0.000 A 
ATOM     12  C   UNL     1       2.492   8.103  18.453  0.00  0.00    +0.000 A 
ATOM     13  C   UNL     1       2.793   6.706  18.554  0.00  0.00    +0.000 A 
ATOM     14  C   UNL     1       2.407   6.202  19.772  0.00  0.00    +0.000 A 
ATOM     15  S   UNL     1       1.785   7.410  20.792  0.00  0.00    +0.000 S 
ATOM     16  C   UNL     1       2.610   4.800  20.112  0.00  0.00    +0.000 A 
ATOM     17  C   UNL     1       2.170   4.210  21.302  0.00  0.00    +0.000 A 
ATOM     18  C   UNL     1       2.451   2.866  21.573  0.00  0.00    +0.000 A 
ATOM     19  C   UNL     1       3.146   2.096  20.642  0.00  0.00    +0.000 A 
ATOM     20  C   UNL     1       3.570   2.669  19.442  0.00  0.00    +0.000 A 
ATOM     21  C   UNL     1       3.312   4.016  19.178  0.00  0.00    +0.000 A 
ATOM     22  O   UNL     1       3.835   4.500  18.002  0.00  0.00    +0.000 OA
ATOM     23  C   UNL     1       3.412   5.805  17.534  0.00  0.00    +0.000 C 
ENDBRANCH   7  11
BRANCH   9  24
ATOM     24  C   UNL     1      -0.178  12.641  20.151  0.00  0.00    +0.000 A 
ATOM     25  C   UNL     1       0.832  13.316  20.850  0.00  0.00    +0.000 A 
ATOM     26  C   UNL     1       1.300  14.551  20.392  0.00  0.00    +0.000 A 
ATOM     27  C   UNL     1       0.763  15.126  19.239  0.00  0.00    +0.000 A 
ATOM     28  C   UNL     1      -0.251  14.471  18.544  0.00  0.00    +0.000 A 
ATOM     29  C   UNL     1      -0.715  13.244  19.006  0.00  0.00    +0.000 A 
ATOM     30  F   UNL     1      -1.715  12.646  18.337  0.00  0.00    +0.000 F 
ENDBRANCH   9  24
TORSDOF 2
ENDMDL
MODEL 8
REMARK VINA RESULT:      -8.1      1.893      3.504
REMARK  Name = 
REMARK  2 active torsions:
REMARK  status: ('A' for Active; 'I' for Inactive)
REMARK    1  A    between atoms: C_7  and  C_9
REMARK    2  A    between atoms: C_22  and  C_23
REMARK                            x       y       z     vdW  Elec       q    Type
REMARK                         _______ _______ _______ _____ _____    ______ ____
ROOT
ATOM      1  O   UNL     1       5.818   4.173  15.732  0.00  0.00    +0.000 OA
ATOM      2  C   UNL     1       5.355   5.085  16.411  0.00  0.00    +0.000 C 
ATOM      3  N   UNL     1       6.093   6.244  16.533  0.00  0.00    +0.000 N 
ATOM      4  C   UNL     1       5.631   7.374  17.304  0.00  0.00    +0.000 C 
ATOM      5  C   UNL     1       4.116   7.446  17.270  0.00  0.00    +0.000 C 
ATOM      6  N   UNL     1       3.591   6.245  17.921  0.00  0.00    +0.000 N 
ATOM      7  C   UNL     1       2.516   6.266  18.839  0.00  0.00    +0.000 C 
ATOM      8  O   UNL     1       1.930   5.227  19.137  0.00  0.00    +0.000 OA
ATOM      9  C   UNL     1       3.945   5.004  17.148  0.00  0.00    +0.000 C 
ATOM     10  H   UNL     1       7.009   6.228  16.128  0.00  0.00    +0.000 HD
ENDROOT
BRANCH   7  11
ATOM     11  C   UNL     1       2.023   7.543  19.392  0.00  0.00    +0.000 A 
ATOM     12  C   UNL     1       1.921   7.879  20.739  0.00  0.00    +0.000 A 
ATOM     13  C   UNL     1       1.173   9.084  20.944  0.00  0.00    +0.000 A 
ATOM     14  C   UNL     1       0.931   9.727  19.754  0.00  0.00    +0.000 A 
ATOM     15  S   UNL     1       1.670   8.938  18.444  0.00  0.00    +0.000 S 
ATOM     16  C   UNL     1       0.188  10.979  19.706  0.00  0.00    +0.000 A 
ATOM     17  C   UNL     1      -0.158  11.640  18.522  0.00  0.00    +0.000 A 
ATOM     18  C   UNL     1      -0.831  12.866  18.567  0.00  0.00    +0.000 A 
ATOM     19  C   UNL     1      -1.190  13.423  19.793  0.00  0.00    +0.000 A 
ATOM     20  C   UNL     1      -0.871  12.760  20.978  0.00  0.00    +0.000 A 
ATOM     21  C   UNL     1      -0.178  11.547  20.940  0.00  0.00    +0.000 A 
ATOM     22  O   UNL     1       0.152  11.014  22.164  0.00  0.00    +0.000 OA
ATOM     23  C   UNL     1       0.646   9.653  22.222  0.00  0.00    +0.000 C 
ENDBRANCH   7  11
BRANCH   9  24
ATOM     24  C   UNL     1       3.917   3.690  17.896  0.00  0.00    +0.000 A 
ATOM     25  C   UNL     1       3.061   2.645  17.524  0.00  0.00    +0.000 A 
ATOM     26  C   UNL     1       3.009   1.474  18.283  0.00  0.00    +0.000 A 
ATOM     27  C   UNL     1       3.805   1.334  19.421  0.00  0.00    +0.000 A 
ATOM     28  C   UNL     1       4.650   2.371  19.809  0.00  0.00    +0.000 A 
ATOM     29  C   UNL     1       4.695   3.537  19.052  0.00  0.00    +0.000 A 
ATOM     30  F   UNL     1       5.493   4.535  19.462  0.00  0.00    +0.000 F 
ENDBRANCH   9  24
TORSDOF 2
ENDMDL
MODEL 9
REMARK VINA RESULT:      -8.0      3.577      9.078
REMARK  Name = 
REMARK  2 active torsions:
REMARK  status: ('A' for Active; 'I' for Inactive)
REMARK    1  A    between atoms: C_7  and  C_9
REMARK    2  A    between atoms: C_22  and  C_23
REMARK                            x       y       z     vdW  Elec       q    Type
REMARK                         _______ _______ _______ _____ _____    ______ ____
ROOT
ATOM      1  O   UNL     1      -1.972  12.224  22.904  0.00  0.00    +0.000 OA
ATOM      2  C   UNL     1      -1.227  11.338  22.497  0.00  0.00    +0.000 C 
ATOM      3  N   UNL     1      -0.864  10.339  23.376  0.00  0.00    +0.000 N 
ATOM      4  C   UNL     1       0.002   9.250  22.990  0.00  0.00    +0.000 C 
ATOM      5  C   UNL     1      -0.188   8.927  21.520  0.00  0.00    +0.000 C 
ATOM      6  N   UNL     1       0.227  10.096  20.743  0.00  0.00    +0.000 N 
ATOM      7  C   UNL     1       1.017  10.010  19.572  0.00  0.00    +0.000 C 
ATOM      8  O   UNL     1       1.100  10.967  18.805  0.00  0.00    +0.000 OA
ATOM      9  C   UNL     1      -0.668  11.276  21.007  0.00  0.00    +0.000 C 
ATOM     10  H   UNL     1      -1.165  10.455  24.325  0.00  0.00    +0.000 HD
ENDROOT
BRANCH   7  11
ATOM     11  C   UNL     1       1.684   8.745  19.206  0.00  0.00    +0.000 A 
ATOM     12  C   UNL     1       1.700   7.570  19.952  0.00  0.00    +0.000 A 
ATOM     13  C   UNL     1       2.641   6.616  19.445  0.00  0.00    +0.000 A 
ATOM     14  C   UNL     1       3.133   7.005  18.222  0.00  0.00    +0.000 A 
ATOM     15  S   UNL     1       2.404   8.438  17.671  0.00  0.00    +0.000 S 
ATOM     16  C   UNL     1       4.106   6.195  17.503  0.00  0.00    +0.000 A 
ATOM     17  C   UNL     1       4.703   6.574  16.295  0.00  0.00    +0.000 A 
ATOM     18  C   UNL     1       5.592   5.712  15.643  0.00  0.00    +0.000 A 
ATOM     19  C   UNL     1       5.915   4.481  16.211  0.00  0.00    +0.000 A 
ATOM     20  C   UNL     1       5.343   4.103  17.426  0.00  0.00    +0.000 A 
ATOM     21  C   UNL     1       4.437   4.950  18.069  0.00  0.00    +0.000 A 
ATOM     22  O   UNL     1       3.876   4.453  19.222  0.00  0.00    +0.000 OA
ATOM     23  C   UNL     1       3.123   5.350  20.076  0.00  0.00    +0.000 C 
ENDBRANCH   7  11
BRANCH   9  24
ATOM     24  C   UNL     1      -0.118  12.647  20.687  0.00  0.00    +0.000 A 
ATOM     25  C   UNL     1       0.947  13.203  21.409  0.00  0.00    +0.000 A 
ATOM     26  C   UNL     1       1.381  14.502  21.135  0.00  0.00    +0.000 A 
ATOM     27  C   UNL     1       0.756  15.260  20.144  0.00  0.00    +0.000 A 
ATOM     28  C   UNL     1      -0.313  14.724  19.429  0.00  0.00    +0.000 A 
ATOM     29  C   UNL     1      -0.743  13.432  19.709  0.00  0.00    +0.000 A 
ATOM     30  F   UNL     1      -1.794  12.947  19.029  0.00  0.00    +0.000 F 
ENDBRANCH   9  24
TORSDOF 2
ENDMDL
