MODEL 1
REMARK VINA RESULT:      -8.7      0.000      0.000
REMARK  Name = 
REMARK  3 active torsions:
REMARK  status: ('A' for Active; 'I' for Inactive)
REMARK    1  A    between atoms: C_2  and  C_20
REMARK    2  A    between atoms: N_3  and  C_4
REMARK    3  A    between atoms: C_9  and  N_10
REMARK                            x       y       z     vdW  Elec       q    Type
REMARK                         _______ _______ _______ _____ _____    ______ ____
ROOT
ATOM      1  C   UNL     1       2.505   4.372  18.385  0.00  0.00    +0.000 A 
ATOM      2  C   UNL     1       1.682   3.356  18.890  0.00  0.00    +0.000 A 
ATOM      3  C   UNL     1       2.046   2.014  18.767  0.00  0.00    +0.000 A 
ATOM      4  C   UNL     1       3.242   1.673  18.144  0.00  0.00    +0.000 A 
ATOM      5  C   UNL     1       4.086   2.675  17.669  0.00  0.00    +0.000 A 
ATOM      6  C   UNL     1       3.739   4.031  17.791  0.00  0.00    +0.000 A 
ENDROOT
BRANCH   6   7
ATOM      7  N   UNL     1       4.680   5.037  17.407  0.00  0.00    +0.000 N 
ATOM      8  N   UNL     1       4.474   5.818  16.287  0.00  0.00    +0.000 NA
ATOM      9  C   UNL     1       5.520   6.647  16.250  0.00  0.00    +0.000 A 
ATOM     10  C   UNL     1       6.384   6.451  17.325  0.00  0.00    +0.000 A 
ATOM     11  C   UNL     1       7.589   7.082  17.772  0.00  0.00    +0.000 A 
ATOM     12  O   UNL     1       8.149   7.997  17.185  0.00  0.00    +0.000 OA
ATOM     13  N   UNL     1       8.060   6.556  18.959  0.00  0.00    +0.000 N 
ATOM     14  C   UNL     1       7.422   5.536  19.635  0.00  0.00    +0.000 A 
ATOM     15  N   UNL     1       6.340   4.947  19.241  0.00  0.00    +0.000 NA
ATOM     16  C   UNL     1       5.848   5.423  18.060  0.00  0.00    +0.000 A 
ATOM     17  H   UNL     1       8.902   6.968  19.326  0.00  0.00    +0.000 HD
ENDBRANCH   6   7
BRANCH   1  20
ATOM     18  O   UNL     1       3.195   6.392  20.372  0.00  0.00    +0.000 OA
ATOM     19  C   UNL     1       2.424   6.610  19.439  0.00  0.00    +0.000 C 
ATOM     20  N   UNL     1       2.080   5.716  18.448  0.00  0.00    +0.000 N 
ATOM     21  H   UNL     1       1.812   6.122  17.548  0.00  0.00    +0.000 HD
BRANCH  19  22
ATOM     22  C   UNL     1       1.883   7.977  19.266  0.00  0.00    +0.000 A 
ATOM     23  C   UNL     1       2.110   8.659  18.064  0.00  0.00    +0.000 A 
ATOM     24  C   UNL     1       1.634   9.964  17.900  0.00  0.00    +0.000 A 
ATOM     25  C   UNL     1       0.945  10.593  18.940  0.00  0.00    +0.000 A 
ATOM     26  C   UNL     1       0.724   9.915  20.139  0.00  0.00    +0.000 A 
ATOM     27  C   UNL     1       1.190   8.611  20.295  0.00  0.00    +0.000 A 
ATOM     28  F   UNL     1       0.975   7.997  21.468  0.00  0.00    +0.000 F 
ENDBRANCH  19  22
ENDBRANCH   1  20
TORSDOF 3
ENDMDL
MODEL 2
REMARK VINA RESULT:      -8.5      0.935      1.331
REMARK  Name = 
REMARK  3 active torsions:
REMARK  status: ('A' for Active; 'I' for Inactive)
REMARK    1  A    between atoms: C_2  and  C_20
REMARK    2  A    between atoms: N_3  and  C_4
REMARK    3  A    between atoms: C_9  and  N_10
REMARK                            x       y       z     vdW  Elec       q    Type
REMARK                         _______ _______ _______ _____ _____    ______ ____
ROOT
ATOM      1  C   UNL     1       2.565   4.298  18.454  0.00  0.00    +0.000 A 
ATOM      2  C   UNL     1       1.760   3.281  18.984  0.00  0.00    +0.000 A 
ATOM      3  C   UNL     1       2.126   1.940  18.858  0.00  0.00    +0.000 A 
ATOM      4  C   UNL     1       3.306   1.600  18.205  0.00  0.00    +0.000 A 
ATOM      5  C   UNL     1       4.134   2.604  17.704  0.00  0.00    +0.000 A 
ATOM      6  C   UNL     1       3.785   3.960  17.830  0.00  0.00    +0.000 A 
ENDROOT
BRANCH   6   7
ATOM      7  N   UNL     1       4.711   4.967  17.417  0.00  0.00    +0.000 N 
ATOM      8  N   UNL     1       4.503   5.702  16.267  0.00  0.00    +0.000 NA
ATOM      9  C   UNL     1       5.534   6.549  16.210  0.00  0.00    +0.000 A 
ATOM     10  C   UNL     1       6.390   6.409  17.300  0.00  0.00    +0.000 A 
ATOM     11  C   UNL     1       7.578   7.079  17.735  0.00  0.00    +0.000 A 
ATOM     12  O   UNL     1       8.128   7.981  17.120  0.00  0.00    +0.000 OA
ATOM     13  N   UNL     1       8.047   6.606  18.945  0.00  0.00    +0.000 N 
ATOM     14  C   UNL     1       7.419   5.601  19.653  0.00  0.00    +0.000 A 
ATOM     15  N   UNL     1       6.353   4.977  19.270  0.00  0.00    +0.000 NA
ATOM     16  C   UNL     1       5.865   5.399  18.068  0.00  0.00    +0.000 A 
ATOM     17  H   UNL     1       8.877   7.047  19.305  0.00  0.00    +0.000 HD
ENDBRANCH   6   7
BRANCH   1  20
ATOM     18  O   UNL     1       3.337   6.342  20.386  0.00  0.00    +0.000 OA
ATOM     19  C   UNL     1       2.522   6.546  19.487  0.00  0.00    +0.000 C 
ATOM     20  N   UNL     1       2.136   5.640  18.523  0.00  0.00    +0.000 N 
ATOM     21  H   UNL     1       1.825   6.035  17.632  0.00  0.00    +0.000 HD
BRANCH  19  22
ATOM     22  C   UNL     1       1.967   7.909  19.326  0.00  0.00    +0.000 A 
ATOM     23  C   UNL     1       1.198   8.465  20.356  0.00  0.00    +0.000 A 
ATOM     24  C   UNL     1       0.640   9.738  20.202  0.00  0.00    +0.000 A 
ATOM     25  C   UNL     1       0.835  10.449  19.016  0.00  0.00    +0.000 A 
ATOM     26  C   UNL     1       1.596   9.893  17.987  0.00  0.00    +0.000 A 
ATOM     27  C   UNL     1       2.160   8.628  18.148  0.00  0.00    +0.000 A 
ATOM     28  F   UNL     1       2.870   8.117  17.131  0.00  0.00    +0.000 F 
ENDBRANCH  19  22
ENDBRANCH   1  20
TORSDOF 3
ENDMDL
MODEL 3
REMARK VINA RESULT:      -7.9      1.988      2.761
REMARK  Name = 
REMARK  3 active torsions:
REMARK  status: ('A' for Active; 'I' for Inactive)
REMARK    1  A    between atoms: C_2  and  C_20
REMARK    2  A    between atoms: N_3  and  C_4
REMARK    3  A    between atoms: C_9  and  N_10
REMARK                            x       y       z     vdW  Elec       q    Type
REMARK                         _______ _______ _______ _____ _____    ______ ____
ROOT
ATOM      1  C   UNL     1       2.998   4.579  20.490  0.00  0.00    +0.000 A 
ATOM      2  C   UNL     1       2.147   3.900  21.373  0.00  0.00    +0.000 A 
ATOM      3  C   UNL     1       2.325   2.541  21.633  0.00  0.00    +0.000 A 
ATOM      4  C   UNL     1       3.361   1.845  21.019  0.00  0.00    +0.000 A 
ATOM      5  C   UNL     1       4.236   2.516  20.166  0.00  0.00    +0.000 A 
ATOM      6  C   UNL     1       4.077   3.887  19.900  0.00  0.00    +0.000 A 
ENDROOT
BRANCH   6   7
ATOM      7  N   UNL     1       5.061   4.572  19.122  0.00  0.00    +0.000 N 
ATOM      8  N   UNL     1       6.041   5.338  19.721  0.00  0.00    +0.000 NA
ATOM      9  C   UNL     1       6.783   5.798  18.710  0.00  0.00    +0.000 A 
ATOM     10  C   UNL     1       6.334   5.334  17.475  0.00  0.00    +0.000 A 
ATOM     11  C   UNL     1       6.783   5.483  16.124  0.00  0.00    +0.000 A 
ATOM     12  O   UNL     1       7.742   6.161  15.785  0.00  0.00    +0.000 OA
ATOM     13  N   UNL     1       6.020   4.764  15.224  0.00  0.00    +0.000 N 
ATOM     14  C   UNL     1       4.948   3.982  15.604  0.00  0.00    +0.000 A 
ATOM     15  N   UNL     1       4.522   3.845  16.818  0.00  0.00    +0.000 NA
ATOM     16  C   UNL     1       5.235   4.554  17.739  0.00  0.00    +0.000 A 
ATOM     17  H   UNL     1       6.296   4.825  14.257  0.00  0.00    +0.000 HD
ENDBRANCH   6   7
BRANCH   1  20
ATOM     18  O   UNL     1       1.882   5.695  18.038  0.00  0.00    +0.000 OA
ATOM     19  C   UNL     1       2.248   6.393  18.983  0.00  0.00    +0.000 C 
ATOM     20  N   UNL     1       2.752   5.934  20.180  0.00  0.00    +0.000 N 
ATOM     21  H   UNL     1       2.604   6.538  20.993  0.00  0.00    +0.000 HD
BRANCH  19  22
ATOM     22  C   UNL     1       2.040   7.856  18.909  0.00  0.00    +0.000 A 
ATOM     23  C   UNL     1       1.286   8.494  19.903  0.00  0.00    +0.000 A 
ATOM     24  C   UNL     1       1.054   9.871  19.827  0.00  0.00    +0.000 A 
ATOM     25  C   UNL     1       1.560  10.609  18.754  0.00  0.00    +0.000 A 
ATOM     26  C   UNL     1       2.306   9.972  17.762  0.00  0.00    +0.000 A 
ATOM     27  C   UNL     1       2.545   8.601  17.846  0.00  0.00    +0.000 A 
ATOM     28  F   UNL     1       3.251   8.020  16.864  0.00  0.00    +0.000 F 
ENDBRANCH  19  22
ENDBRANCH   1  20
TORSDOF 3
ENDMDL
MODEL 4
REMARK VINA RESULT:      -7.9      1.130      1.891
REMARK  Name = 
REMARK  3 active torsions:
REMARK  status: ('A' for Active; 'I' for Inactive)
REMARK    1  A    between atoms: C_2  and  C_20
REMARK    2  A    between atoms: N_3  and  C_4
REMARK    3  A    between atoms: C_9  and  N_10
REMARK                            x       y       z     vdW  Elec       q    Type
REMARK                         _______ _______ _______ _____ _____    ______ ____
ROOT
ATOM      1  C   UNL     1       2.174   4.158  18.824  0.00  0.00    +0.000 A 
ATOM      2  C   UNL     1       1.139   3.294  19.205  0.00  0.00    +0.000 A 
ATOM      3  C   UNL     1       1.334   1.912  19.226  0.00  0.00    +0.000 A 
ATOM      4  C   UNL     1       2.568   1.378  18.873  0.00  0.00    +0.000 A 
ATOM      5  C   UNL     1       3.617   2.229  18.525  0.00  0.00    +0.000 A 
ATOM      6  C   UNL     1       3.441   3.623  18.507  0.00  0.00    +0.000 A 
ENDROOT
BRANCH   6   7
ATOM      7  N   UNL     1       4.566   4.472  18.267  0.00  0.00    +0.000 N 
ATOM      8  N   UNL     1       5.253   5.061  19.310  0.00  0.00    +0.000 NA
ATOM      9  C   UNL     1       6.237   5.750  18.727  0.00  0.00    +0.000 A 
ATOM     10  C   UNL     1       6.230   5.606  17.341  0.00  0.00    +0.000 A 
ATOM     11  C   UNL     1       7.066   6.079  16.279  0.00  0.00    +0.000 A 
ATOM     12  O   UNL     1       8.031   6.813  16.433  0.00  0.00    +0.000 OA
ATOM     13  N   UNL     1       6.675   5.607  15.041  0.00  0.00    +0.000 N 
ATOM     14  C   UNL     1       5.598   4.762  14.863  0.00  0.00    +0.000 A 
ATOM     15  N   UNL     1       4.826   4.335  15.809  0.00  0.00    +0.000 NA
ATOM     16  C   UNL     1       5.163   4.792  17.050  0.00  0.00    +0.000 A 
ATOM     17  H   UNL     1       7.233   5.900  14.256  0.00  0.00    +0.000 HD
ENDBRANCH   6   7
BRANCH   1  20
ATOM     18  O   UNL     1       2.410   6.174  20.919  0.00  0.00    +0.000 OA
ATOM     19  C   UNL     1       2.035   6.438  19.777  0.00  0.00    +0.000 C 
ATOM     20  N   UNL     1       1.932   5.545  18.732  0.00  0.00    +0.000 N 
ATOM     21  H   UNL     1       2.040   5.937  17.793  0.00  0.00    +0.000 HD
BRANCH  19  22
ATOM     22  C   UNL     1       1.768   7.850  19.425  0.00  0.00    +0.000 A 
ATOM     23  C   UNL     1       2.239   8.356  18.206  0.00  0.00    +0.000 A 
ATOM     24  C   UNL     1       2.023   9.697  17.876  0.00  0.00    +0.000 A 
ATOM     25  C   UNL     1       1.351  10.538  18.766  0.00  0.00    +0.000 A 
ATOM     26  C   UNL     1       0.887  10.036  19.983  0.00  0.00    +0.000 A 
ATOM     27  C   UNL     1       1.095   8.695  20.304  0.00  0.00    +0.000 A 
ATOM     28  F   UNL     1       0.651   8.252  21.490  0.00  0.00    +0.000 F 
ENDBRANCH  19  22
ENDBRANCH   1  20
TORSDOF 3
ENDMDL
MODEL 5
REMARK VINA RESULT:      -7.8      1.047      1.095
REMARK  Name = 
REMARK  3 active torsions:
REMARK  status: ('A' for Active; 'I' for Inactive)
REMARK    1  A    between atoms: C_2  and  C_20
REMARK    2  A    between atoms: N_3  and  C_4
REMARK    3  A    between atoms: C_9  and  N_10
REMARK                            x       y       z     vdW  Elec       q    Type
REMARK                         _______ _______ _______ _____ _____    ______ ____
ROOT
ATOM      1  C   UNL     1       2.412   4.872  19.599  0.00  0.00    +0.000 A 
ATOM      2  C   UNL     1       1.630   4.100  20.470  0.00  0.00    +0.000 A 
ATOM      3  C   UNL     1       1.954   2.768  20.730  0.00  0.00    +0.000 A 
ATOM      4  C   UNL     1       3.068   2.193  20.128  0.00  0.00    +0.000 A 
ATOM      5  C   UNL     1       3.874   2.959  19.287  0.00  0.00    +0.000 A 
ATOM      6  C   UNL     1       3.567   4.305  19.021  0.00  0.00    +0.000 A 
ENDROOT
BRANCH   6   7
ATOM      7  N   UNL     1       4.478   5.097  18.256  0.00  0.00    +0.000 N 
ATOM      8  N   UNL     1       4.108   5.644  17.043  0.00  0.00    +0.000 NA
ATOM      9  C   UNL     1       5.179   6.327  16.633  0.00  0.00    +0.000 A 
ATOM     10  C   UNL     1       6.225   6.266  17.551  0.00  0.00    +0.000 A 
ATOM     11  C   UNL     1       7.534   6.840  17.619  0.00  0.00    +0.000 A 
ATOM     12  O   UNL     1       8.027   7.544  16.750  0.00  0.00    +0.000 OA
ATOM     13  N   UNL     1       8.196   6.526  18.791  0.00  0.00    +0.000 N 
ATOM     14  C   UNL     1       7.637   5.748  19.784  0.00  0.00    +0.000 A 
ATOM     15  N   UNL     1       6.460   5.212  19.734  0.00  0.00    +0.000 NA
ATOM     16  C   UNL     1       5.777   5.481  18.585  0.00  0.00    +0.000 A 
ATOM     17  H   UNL     1       9.120   6.910  18.898  0.00  0.00    +0.000 HD
ENDBRANCH   6   7
BRANCH   1  20
ATOM     18  O   UNL     1       2.022   7.116  21.422  0.00  0.00    +0.000 OA
ATOM     19  C   UNL     1       1.826   7.198  20.211  0.00  0.00    +0.000 C 
ATOM     20  N   UNL     1       2.021   6.192  19.289  0.00  0.00    +0.000 N 
ATOM     21  H   UNL     1       2.244   6.490  18.336  0.00  0.00    +0.000 HD
BRANCH  19  22
ATOM     22  C   UNL     1       1.454   8.511  19.637  0.00  0.00    +0.000 A 
ATOM     23  C   UNL     1       2.023   8.917  18.423  0.00  0.00    +0.000 A 
ATOM     24  C   UNL     1       1.706  10.169  17.887  0.00  0.00    +0.000 A 
ATOM     25  C   UNL     1       0.834  11.022  18.569  0.00  0.00    +0.000 A 
ATOM     26  C   UNL     1       0.272  10.619  19.781  0.00  0.00    +0.000 A 
ATOM     27  C   UNL     1       0.582   9.366  20.307  0.00  0.00    +0.000 A 
ATOM     28  F   UNL     1       0.038   9.021  21.483  0.00  0.00    +0.000 F 
ENDBRANCH  19  22
ENDBRANCH   1  20
TORSDOF 3
ENDMDL
MODEL 6
REMARK VINA RESULT:      -7.8      1.724      2.404
REMARK  Name = 
REMARK  3 active torsions:
REMARK  status: ('A' for Active; 'I' for Inactive)
REMARK    1  A    between atoms: C_2  and  C_20
REMARK    2  A    between atoms: N_3  and  C_4
REMARK    3  A    between atoms: C_9  and  N_10
REMARK                            x       y       z     vdW  Elec       q    Type
REMARK                         _______ _______ _______ _____ _____    ______ ____
ROOT
ATOM      1  C   UNL     1       3.029   4.546  20.483  0.00  0.00    +0.000 A 
ATOM      2  C   UNL     1       2.179   3.865  21.366  0.00  0.00    +0.000 A 
ATOM      3  C   UNL     1       2.378   2.513  21.648  0.00  0.00    +0.000 A 
ATOM      4  C   UNL     1       3.433   1.827  21.056  0.00  0.00    +0.000 A 
ATOM      5  C   UNL     1       4.306   2.501  20.203  0.00  0.00    +0.000 A 
ATOM      6  C   UNL     1       4.126   3.865  19.915  0.00  0.00    +0.000 A 
ENDROOT
BRANCH   6   7
ATOM      7  N   UNL     1       5.106   4.556  19.137  0.00  0.00    +0.000 N 
ATOM      8  N   UNL     1       6.105   5.296  19.738  0.00  0.00    +0.000 NA
ATOM      9  C   UNL     1       6.837   5.770  18.727  0.00  0.00    +0.000 A 
ATOM     10  C   UNL     1       6.364   5.339  17.490  0.00  0.00    +0.000 A 
ATOM     11  C   UNL     1       6.795   5.514  16.135  0.00  0.00    +0.000 A 
ATOM     12  O   UNL     1       7.757   6.188  15.797  0.00  0.00    +0.000 OA
ATOM     13  N   UNL     1       6.010   4.825  15.231  0.00  0.00    +0.000 N 
ATOM     14  C   UNL     1       4.934   4.047  15.609  0.00  0.00    +0.000 A 
ATOM     15  N   UNL     1       4.524   3.888  16.826  0.00  0.00    +0.000 NA
ATOM     16  C   UNL     1       5.260   4.567  17.752  0.00  0.00    +0.000 A 
ATOM     17  H   UNL     1       6.272   4.904  14.262  0.00  0.00    +0.000 HD
ENDBRANCH   6   7
BRANCH   1  20
ATOM     18  O   UNL     1       1.830   5.597  18.040  0.00  0.00    +0.000 OA
ATOM     19  C   UNL     1       2.218   6.319  18.958  0.00  0.00    +0.000 C 
ATOM     20  N   UNL     1       2.762   5.891  20.150  0.00  0.00    +0.000 N 
ATOM     21  H   UNL     1       2.633   6.512  20.953  0.00  0.00    +0.000 HD
BRANCH  19  22
ATOM     22  C   UNL     1       1.996   7.779  18.858  0.00  0.00    +0.000 A 
ATOM     23  C   UNL     1       2.481   8.474  17.743  0.00  0.00    +0.000 A 
ATOM     24  C   UNL     1       2.307   9.858  17.653  0.00  0.00    +0.000 A 
ATOM     25  C   UNL     1       1.663  10.552  18.680  0.00  0.00    +0.000 A 
ATOM     26  C   UNL     1       1.185   9.860  19.794  0.00  0.00    +0.000 A 
ATOM     27  C   UNL     1       1.350   8.478  19.876  0.00  0.00    +0.000 A 
ATOM     28  F   UNL     1       0.894   7.849  20.969  0.00  0.00    +0.000 F 
ENDBRANCH  19  22
ENDBRANCH   1  20
TORSDOF 3
ENDMDL
MODEL 7
REMARK VINA RESULT:      -7.8      1.437      2.291
REMARK  Name = 
REMARK  3 active torsions:
REMARK  status: ('A' for Active; 'I' for Inactive)
REMARK    1  A    between atoms: C_2  and  C_20
REMARK    2  A    between atoms: N_3  and  C_4
REMARK    3  A    between atoms: C_9  and  N_10
REMARK                            x       y       z     vdW  Elec       q    Type
REMARK                         _______ _______ _______ _____ _____    ______ ____
ROOT
ATOM      1  C   UNL     1       2.160   4.266  18.875  0.00  0.00    +0.000 A 
ATOM      2  C   UNL     1       1.118   3.419  19.279  0.00  0.00    +0.000 A 
ATOM      3  C   UNL     1       1.292   2.035  19.306  0.00  0.00    +0.000 A 
ATOM      4  C   UNL     1       2.513   1.481  18.936  0.00  0.00    +0.000 A 
ATOM      5  C   UNL     1       3.568   2.313  18.566  0.00  0.00    +0.000 A 
ATOM      6  C   UNL     1       3.413   3.710  18.541  0.00  0.00    +0.000 A 
ENDROOT
BRANCH   6   7
ATOM      7  N   UNL     1       4.546   4.540  18.278  0.00  0.00    +0.000 N 
ATOM      8  N   UNL     1       5.237   5.155  19.304  0.00  0.00    +0.000 NA
ATOM      9  C   UNL     1       6.228   5.816  18.702  0.00  0.00    +0.000 A 
ATOM     10  C   UNL     1       6.223   5.629  17.321  0.00  0.00    +0.000 A 
ATOM     11  C   UNL     1       7.065   6.061  16.247  0.00  0.00    +0.000 A 
ATOM     12  O   UNL     1       8.037   6.790  16.380  0.00  0.00    +0.000 OA
ATOM     13  N   UNL     1       6.672   5.554  15.023  0.00  0.00    +0.000 N 
ATOM     14  C   UNL     1       5.588   4.715  14.869  0.00  0.00    +0.000 A 
ATOM     15  N   UNL     1       4.809   4.324  15.826  0.00  0.00    +0.000 NA
ATOM     16  C   UNL     1       5.149   4.816  17.053  0.00  0.00    +0.000 A 
ATOM     17  H   UNL     1       7.235   5.818  14.230  0.00  0.00    +0.000 HD
ENDBRANCH   6   7
BRANCH   1  20
ATOM     18  O   UNL     1       2.367   6.278  20.976  0.00  0.00    +0.000 OA
ATOM     19  C   UNL     1       2.024   6.547  19.826  0.00  0.00    +0.000 C 
ATOM     20  N   UNL     1       1.937   5.656  18.778  0.00  0.00    +0.000 N 
ATOM     21  H   UNL     1       2.072   6.046  17.842  0.00  0.00    +0.000 HD
BRANCH  19  22
ATOM     22  C   UNL     1       1.783   7.962  19.467  0.00  0.00    +0.000 A 
ATOM     23  C   UNL     1       1.035   8.773  20.330  0.00  0.00    +0.000 A 
ATOM     24  C   UNL     1       0.772  10.103  19.987  0.00  0.00    +0.000 A 
ATOM     25  C   UNL     1       1.242  10.620  18.778  0.00  0.00    +0.000 A 
ATOM     26  C   UNL     1       1.982   9.810  17.915  0.00  0.00    +0.000 A 
ATOM     27  C   UNL     1       2.252   8.488  18.265  0.00  0.00    +0.000 A 
ATOM     28  F   UNL     1       2.951   7.735  17.403  0.00  0.00    +0.000 F 
ENDBRANCH  19  22
ENDBRANCH   1  20
TORSDOF 3
ENDMDL
MODEL 8
REMARK VINA RESULT:      -7.7      1.342      1.679
REMARK  Name = 
REMARK  3 active torsions:
REMARK  status: ('A' for Active; 'I' for Inactive)
REMARK    1  A    between atoms: C_2  and  C_20
REMARK    2  A    between atoms: N_3  and  C_4
REMARK    3  A    between atoms: C_9  and  N_10
REMARK                            x       y       z     vdW  Elec       q    Type
REMARK                         _______ _______ _______ _____ _____    ______ ____
ROOT
ATOM      1  C   UNL     1       2.231   4.923  19.659  0.00  0.00    +0.000 A 
ATOM      2  C   UNL     1       1.435   4.209  20.566  0.00  0.00    +0.000 A 
ATOM      3  C   UNL     1       1.691   2.863  20.836  0.00  0.00    +0.000 A 
ATOM      4  C   UNL     1       2.749   2.217  20.207  0.00  0.00    +0.000 A 
ATOM      5  C   UNL     1       3.570   2.925  19.329  0.00  0.00    +0.000 A 
ATOM      6  C   UNL     1       3.333   4.282  19.053  0.00  0.00    +0.000 A 
ENDROOT
BRANCH   6   7
ATOM      7  N   UNL     1       4.263   5.010  18.247  0.00  0.00    +0.000 N 
ATOM      8  N   UNL     1       3.903   5.504  17.009  0.00  0.00    +0.000 NA
ATOM      9  C   UNL     1       4.991   6.137  16.563  0.00  0.00    +0.000 A 
ATOM     10  C   UNL     1       6.037   6.095  17.483  0.00  0.00    +0.000 A 
ATOM     11  C   UNL     1       7.362   6.638  17.520  0.00  0.00    +0.000 A 
ATOM     12  O   UNL     1       7.871   7.283  16.615  0.00  0.00    +0.000 OA
ATOM     13  N   UNL     1       8.018   6.366  18.705  0.00  0.00    +0.000 N 
ATOM     14  C   UNL     1       7.441   5.655  19.738  0.00  0.00    +0.000 A 
ATOM     15  N   UNL     1       6.250   5.148  19.717  0.00  0.00    +0.000 NA
ATOM     16  C   UNL     1       5.572   5.376  18.555  0.00  0.00    +0.000 A 
ATOM     17  H   UNL     1       8.952   6.731  18.792  0.00  0.00    +0.000 HD
ENDBRANCH   6   7
BRANCH   1  20
ATOM     18  O   UNL     1       2.003   7.203  21.464  0.00  0.00    +0.000 OA
ATOM     19  C   UNL     1       1.786   7.283  20.255  0.00  0.00    +0.000 C 
ATOM     20  N   UNL     1       1.907   6.258  19.341  0.00  0.00    +0.000 N 
ATOM     21  H   UNL     1       2.127   6.534  18.381  0.00  0.00    +0.000 HD
BRANCH  19  22
ATOM     22  C   UNL     1       1.475   8.608  19.674  0.00  0.00    +0.000 A 
ATOM     23  C   UNL     1       0.465   9.391  20.248  0.00  0.00    +0.000 A 
ATOM     24  C   UNL     1       0.139  10.630  19.688  0.00  0.00    +0.000 A 
ATOM     25  C   UNL     1       0.809  11.082  18.549  0.00  0.00    +0.000 A 
ATOM     26  C   UNL     1       1.811  10.300  17.974  0.00  0.00    +0.000 A 
ATOM     27  C   UNL     1       2.141   9.070  18.540  0.00  0.00    +0.000 A 
ATOM     28  F   UNL     1       3.097   8.337  17.950  0.00  0.00    +0.000 F 
ENDBRANCH  19  22
ENDBRANCH   1  20
TORSDOF 3
ENDMDL
MODEL 9
REMARK VINA RESULT:      -7.7      2.917      5.824
REMARK  Name = 
REMARK  3 active torsions:
REMARK  status: ('A' for Active; 'I' for Inactive)
REMARK    1  A    between atoms: C_2  and  C_20
REMARK    2  A    between atoms: N_3  and  C_4
REMARK    3  A    between atoms: C_9  and  N_10
REMARK                            x       y       z     vdW  Elec       q    Type
REMARK                         _______ _______ _______ _____ _____    ______ ____
ROOT
ATOM      1  C   UNL     1       3.288   3.997  19.278  0.00  0.00    +0.000 A 
ATOM      2  C   UNL     1       3.267   2.718  19.853  0.00  0.00    +0.000 A 
ATOM      3  C   UNL     1       2.634   2.496  21.077  0.00  0.00    +0.000 A 
ATOM      4  C   UNL     1       2.009   3.547  21.737  0.00  0.00    +0.000 A 
ATOM      5  C   UNL     1       1.992   4.817  21.160  0.00  0.00    +0.000 A 
ATOM      6  C   UNL     1       2.617   5.057  19.924  0.00  0.00    +0.000 A 
ENDROOT
BRANCH   6   7
ATOM      7  N   UNL     1       2.477   6.335  19.300  0.00  0.00    +0.000 N 
ATOM      8  N   UNL     1       2.867   6.540  17.992  0.00  0.00    +0.000 NA
ATOM      9  C   UNL     1       2.572   7.818  17.742  0.00  0.00    +0.000 A 
ATOM     10  C   UNL     1       1.977   8.443  18.835  0.00  0.00    +0.000 A 
ATOM     11  C   UNL     1       1.443   9.750  19.074  0.00  0.00    +0.000 A 
ATOM     12  O   UNL     1       1.455  10.662  18.261  0.00  0.00    +0.000 OA
ATOM     13  N   UNL     1       0.891   9.880  20.334  0.00  0.00    +0.000 N 
ATOM     14  C   UNL     1       0.857   8.848  21.250  0.00  0.00    +0.000 A 
ATOM     15  N   UNL     1       1.345   7.665  21.055  0.00  0.00    +0.000 NA
ATOM     16  C   UNL     1       1.918   7.497  19.828  0.00  0.00    +0.000 A 
ATOM     17  H   UNL     1       0.492  10.777  20.556  0.00  0.00    +0.000 HD
ENDBRANCH   6   7
BRANCH   1  20
ATOM     18  O   UNL     1       6.176   4.156  18.902  0.00  0.00    +0.000 OA
ATOM     19  C   UNL     1       5.373   4.310  17.982  0.00  0.00    +0.000 C 
ATOM     20  N   UNL     1       4.002   4.216  18.081  0.00  0.00    +0.000 N 
ATOM     21  H   UNL     1       3.507   3.933  17.231  0.00  0.00    +0.000 HD
BRANCH  19  22
ATOM     22  C   UNL     1       5.892   4.504  16.609  0.00  0.00    +0.000 A 
ATOM     23  C   UNL     1       5.235   3.892  15.534  0.00  0.00    +0.000 A 
ATOM     24  C   UNL     1       5.734   4.040  14.236  0.00  0.00    +0.000 A 
ATOM     25  C   UNL     1       6.895   4.784  14.012  0.00  0.00    +0.000 A 
ATOM     26  C   UNL     1       7.552   5.388  15.085  0.00  0.00    +0.000 A 
ATOM     27  C   UNL     1       7.046   5.248  16.376  0.00  0.00    +0.000 A 
ATOM     28  F   UNL     1       7.714   5.827  17.385  0.00  0.00    +0.000 F 
ENDBRANCH  19  22
ENDBRANCH   1  20
TORSDOF 3
ENDMDL
