MODEL 1
REMARK VINA RESULT:      -8.9      0.000      0.000
REMARK  Name = 
REMARK  6 active torsions:
REMARK  status: ('A' for Active; 'I' for Inactive)
REMARK    1  A    between atoms: S_2  and  N_4
REMARK    2  A    between atoms: S_2  and  C_19
REMARK    3  A    between atoms: N_4  and  C_5
REMARK    4  A    between atoms: C_9  and  C_10
REMARK    5  A    between atoms: N_14  and  C_15
REMARK    6  A    between atoms: C_23  and  C_24
REMARK                            x       y       z     vdW  Elec       q    Type
REMARK                         _______ _______ _______ _____ _____    ______ ____
ROOT
ATOM      1  N   UNL     1       4.458   2.782  17.856  0.00  0.00    +0.000 N 
ATOM      2  H   UNL     1       4.759   1.938  17.363  0.00  0.00    +0.000 HD
ENDROOT
BRANCH   1   3
ATOM      3  C   UNL     1       5.211   3.930  17.439  0.00  0.00    +0.000 A 
ATOM      4  C   UNL     1       5.485   4.944  18.351  0.00  0.00    +0.000 A 
ATOM      5  C   UNL     1       6.321   5.995  17.980  0.00  0.00    +0.000 A 
ATOM      6  C   UNL     1       6.870   6.045  16.693  0.00  0.00    +0.000 A 
ATOM      7  C   UNL     1       6.536   5.083  15.730  0.00  0.00    +0.000 A 
ATOM      8  C   UNL     1       5.695   4.022  16.129  0.00  0.00    +0.000 A 
BRANCH   7   9
ATOM      9  C   UNL     1       7.100   5.058  14.371  0.00  0.00    +0.000 A 
ATOM     10  N   UNL     1       8.171   5.757  14.013  0.00  0.00    +0.000 NA
ATOM     11  N   UNL     1       8.355   5.569  12.673  0.00  0.00    +0.000 NA
ATOM     12  N   UNL     1       7.438   4.758  12.178  0.00  0.00    +0.000 NA
ATOM     13  N   UNL     1       6.677   4.391  13.229  0.00  0.00    +0.000 N 
BRANCH  13  14
ATOM     14  C   UNL     1       5.613   3.416  13.078  0.00  0.00    +0.000 C 
ATOM     15  C   UNL     1       5.534   2.480  11.878  0.00  0.00    +0.000 C 
ATOM     16  C   UNL     1       4.556   3.596  11.993  0.00  0.00    +0.000 C 
ENDBRANCH  13  14
ENDBRANCH   7   9
ENDBRANCH   1   3
BRANCH   1  18
ATOM     17  O   UNL     1       2.419   3.296  16.359  0.00  0.00    +0.000 OA
ATOM     18  S   UNL     1       2.766   2.909  17.708  0.00  0.00    +0.000 S 
ATOM     19  O   UNL     1       2.205   1.742  18.352  0.00  0.00    +0.000 OA
BRANCH  18  20
ATOM     20  C   UNL     1       2.442   4.318  18.757  0.00  0.00    +0.000 A 
ATOM     21  C   UNL     1       2.275   4.148  20.134  0.00  0.00    +0.000 A 
ATOM     22  C   UNL     1       2.057   5.265  20.944  0.00  0.00    +0.000 A 
ATOM     23  C   UNL     1       2.020   6.543  20.381  0.00  0.00    +0.000 A 
ATOM     24  C   UNL     1       2.189   6.723  18.998  0.00  0.00    +0.000 A 
ATOM     25  C   UNL     1       2.387   5.595  18.184  0.00  0.00    +0.000 A 
BRANCH  24  26
ATOM     26  C   UNL     1       2.185   8.105  18.386  0.00  0.00    +0.000 C 
ATOM     27  F   UNL     1       1.263   8.262  17.396  0.00  0.00    +0.000 F 
ATOM     28  F   UNL     1       1.912   9.071  19.305  0.00  0.00    +0.000 F 
ATOM     29  F   UNL     1       3.385   8.437  17.837  0.00  0.00    +0.000 F 
ENDBRANCH  24  26
ENDBRANCH  18  20
ENDBRANCH   1  18
TORSDOF 6
ENDMDL
MODEL 2
REMARK VINA RESULT:      -8.7      3.719      5.409
REMARK  Name = 
REMARK  6 active torsions:
REMARK  status: ('A' for Active; 'I' for Inactive)
REMARK    1  A    between atoms: S_2  and  N_4
REMARK    2  A    between atoms: S_2  and  C_19
REMARK    3  A    between atoms: N_4  and  C_5
REMARK    4  A    between atoms: C_9  and  C_10
REMARK    5  A    between atoms: N_14  and  C_15
REMARK    6  A    between atoms: C_23  and  C_24
REMARK                            x       y       z     vdW  Elec       q    Type
REMARK                         _______ _______ _______ _____ _____    ______ ____
ROOT
ATOM      1  N   UNL     1       2.380   7.932  19.126  0.00  0.00    +0.000 N 
ATOM      2  H   UNL     1       1.760   7.773  19.923  0.00  0.00    +0.000 HD
ENDROOT
BRANCH   1   3
ATOM      3  C   UNL     1       2.769   6.696  18.509  0.00  0.00    +0.000 A 
ATOM      4  C   UNL     1       1.941   5.584  18.610  0.00  0.00    +0.000 A 
ATOM      5  C   UNL     1       2.258   4.424  17.906  0.00  0.00    +0.000 A 
ATOM      6  C   UNL     1       3.411   4.368  17.114  0.00  0.00    +0.000 A 
ATOM      7  C   UNL     1       4.306   5.445  17.067  0.00  0.00    +0.000 A 
ATOM      8  C   UNL     1       3.961   6.613  17.781  0.00  0.00    +0.000 A 
BRANCH   7   9
ATOM      9  C   UNL     1       5.518   5.465  16.233  0.00  0.00    +0.000 A 
ATOM     10  N   UNL     1       5.502   5.720  14.930  0.00  0.00    +0.000 NA
ATOM     11  N   UNL     1       6.776   5.565  14.464  0.00  0.00    +0.000 NA
ATOM     12  N   UNL     1       7.599   5.232  15.442  0.00  0.00    +0.000 NA
ATOM     13  N   UNL     1       6.844   5.212  16.558  0.00  0.00    +0.000 N 
BRANCH  13  14
ATOM     14  C   UNL     1       7.439   4.975  17.860  0.00  0.00    +0.000 C 
ATOM     15  C   UNL     1       6.719   5.322  19.157  0.00  0.00    +0.000 C 
ATOM     16  C   UNL     1       7.878   6.151  18.728  0.00  0.00    +0.000 C 
ENDBRANCH  13  14
ENDBRANCH   7   9
ENDBRANCH   1   3
BRANCH   1  18
ATOM     17  O   UNL     1       2.651   9.922  17.504  0.00  0.00    +0.000 OA
ATOM     18  S   UNL     1       1.643   9.075  18.100  0.00  0.00    +0.000 S 
ATOM     19  O   UNL     1       0.667   8.354  17.312  0.00  0.00    +0.000 OA
BRANCH  18  20
ATOM     20  C   UNL     1       0.756  10.071  19.288  0.00  0.00    +0.000 A 
ATOM     21  C   UNL     1       0.292  11.342  18.936  0.00  0.00    +0.000 A 
ATOM     22  C   UNL     1      -0.429  12.092  19.867  0.00  0.00    +0.000 A 
ATOM     23  C   UNL     1      -0.696  11.569  21.134  0.00  0.00    +0.000 A 
ATOM     24  C   UNL     1      -0.237  10.292  21.496  0.00  0.00    +0.000 A 
ATOM     25  C   UNL     1       0.508   9.549  20.563  0.00  0.00    +0.000 A 
BRANCH  24  26
ATOM     26  C   UNL     1      -0.551   9.705  22.852  0.00  0.00    +0.000 C 
ATOM     27  F   UNL     1       0.527   9.640  23.683  0.00  0.00    +0.000 F 
ATOM     28  F   UNL     1      -1.491  10.429  23.518  0.00  0.00    +0.000 F 
ATOM     29  F   UNL     1      -1.041   8.438  22.772  0.00  0.00    +0.000 F 
ENDBRANCH  24  26
ENDBRANCH  18  20
ENDBRANCH   1  18
TORSDOF 6
ENDMDL
MODEL 3
REMARK VINA RESULT:      -8.6      4.895      8.188
REMARK  Name = 
REMARK  6 active torsions:
REMARK  status: ('A' for Active; 'I' for Inactive)
REMARK    1  A    between atoms: S_2  and  N_4
REMARK    2  A    between atoms: S_2  and  C_19
REMARK    3  A    between atoms: N_4  and  C_5
REMARK    4  A    between atoms: C_9  and  C_10
REMARK    5  A    between atoms: N_14  and  C_15
REMARK    6  A    between atoms: C_23  and  C_24
REMARK                            x       y       z     vdW  Elec       q    Type
REMARK                         _______ _______ _______ _____ _____    ______ ____
ROOT
ATOM      1  N   UNL     1       2.792   5.703  20.174  0.00  0.00    +0.000 N 
ATOM      2  H   UNL     1       3.688   5.752  20.664  0.00  0.00    +0.000 HD
ENDROOT
BRANCH   1   3
ATOM      3  C   UNL     1       2.398   6.989  19.672  0.00  0.00    +0.000 A 
ATOM      4  C   UNL     1       2.627   7.308  18.339  0.00  0.00    +0.000 A 
ATOM      5  C   UNL     1       2.131   8.504  17.823  0.00  0.00    +0.000 A 
ATOM      6  C   UNL     1       1.421   9.390  18.642  0.00  0.00    +0.000 A 
ATOM      7  C   UNL     1       1.255   9.131  20.009  0.00  0.00    +0.000 A 
ATOM      8  C   UNL     1       1.758   7.910  20.509  0.00  0.00    +0.000 A 
BRANCH   7   9
ATOM      9  C   UNL     1       0.495  10.001  20.919  0.00  0.00    +0.000 A 
ATOM     10  N   UNL     1       0.638   9.980  22.239  0.00  0.00    +0.000 NA
ATOM     11  N   UNL     1      -0.280  10.842  22.766  0.00  0.00    +0.000 NA
ATOM     12  N   UNL     1      -0.990  11.419  21.814  0.00  0.00    +0.000 NA
ATOM     13  N   UNL     1      -0.490  10.944  20.655  0.00  0.00    +0.000 N 
BRANCH  13  14
ATOM     14  C   UNL     1      -0.969  11.437  19.377  0.00  0.00    +0.000 C 
ATOM     15  C   UNL     1      -2.401  11.916  19.176  0.00  0.00    +0.000 C 
ATOM     16  C   UNL     1      -1.978  10.624  18.571  0.00  0.00    +0.000 C 
ENDBRANCH  13  14
ENDBRANCH   7   9
ENDBRANCH   1   3
BRANCH   1  18
ATOM     17  O   UNL     1       2.907   3.170  19.689  0.00  0.00    +0.000 OA
ATOM     18  S   UNL     1       2.883   4.452  19.022  0.00  0.00    +0.000 S 
ATOM     19  O   UNL     1       1.925   4.773  17.987  0.00  0.00    +0.000 OA
BRANCH  18  20
ATOM     20  C   UNL     1       4.517   4.727  18.356  0.00  0.00    +0.000 A 
ATOM     21  C   UNL     1       5.581   5.042  19.207  0.00  0.00    +0.000 A 
ATOM     22  C   UNL     1       6.859   5.220  18.672  0.00  0.00    +0.000 A 
ATOM     23  C   UNL     1       7.073   5.070  17.300  0.00  0.00    +0.000 A 
ATOM     24  C   UNL     1       6.011   4.750  16.438  0.00  0.00    +0.000 A 
ATOM     25  C   UNL     1       4.722   4.593  16.977  0.00  0.00    +0.000 A 
BRANCH  24  26
ATOM     26  C   UNL     1       6.239   4.551  14.958  0.00  0.00    +0.000 C 
ATOM     27  F   UNL     1       7.432   5.040  14.518  0.00  0.00    +0.000 F 
ATOM     28  F   UNL     1       6.225   3.235  14.610  0.00  0.00    +0.000 F 
ATOM     29  F   UNL     1       5.284   5.151  14.197  0.00  0.00    +0.000 F 
ENDBRANCH  24  26
ENDBRANCH  18  20
ENDBRANCH   1  18
TORSDOF 6
ENDMDL
MODEL 4
REMARK VINA RESULT:      -8.5      4.855      6.906
REMARK  Name = 
REMARK  6 active torsions:
REMARK  status: ('A' for Active; 'I' for Inactive)
REMARK    1  A    between atoms: S_2  and  N_4
REMARK    2  A    between atoms: S_2  and  C_19
REMARK    3  A    between atoms: N_4  and  C_5
REMARK    4  A    between atoms: C_9  and  C_10
REMARK    5  A    between atoms: N_14  and  C_15
REMARK    6  A    between atoms: C_23  and  C_24
REMARK                            x       y       z     vdW  Elec       q    Type
REMARK                         _______ _______ _______ _____ _____    ______ ____
ROOT
ATOM      1  N   UNL     1       1.781   8.589  21.578  0.00  0.00    +0.000 N 
ATOM      2  H   UNL     1       2.156   8.054  22.365  0.00  0.00    +0.000 HD
ENDROOT
BRANCH   1   3
ATOM      3  C   UNL     1       1.880   7.853  20.350  0.00  0.00    +0.000 A 
ATOM      4  C   UNL     1       1.992   8.536  19.144  0.00  0.00    +0.000 A 
ATOM      5  C   UNL     1       2.215   7.822  17.968  0.00  0.00    +0.000 A 
ATOM      6  C   UNL     1       2.309   6.426  17.992  0.00  0.00    +0.000 A 
ATOM      7  C   UNL     1       2.111   5.711  19.181  0.00  0.00    +0.000 A 
ATOM      8  C   UNL     1       1.895   6.454  20.362  0.00  0.00    +0.000 A 
BRANCH   7   9
ATOM      9  C   UNL     1       2.226   4.248  19.283  0.00  0.00    +0.000 A 
ATOM     10  N   UNL     1       1.178   3.433  19.305  0.00  0.00    +0.000 NA
ATOM     11  N   UNL     1       1.646   2.165  19.498  0.00  0.00    +0.000 NA
ATOM     12  N   UNL     1       2.964   2.156  19.586  0.00  0.00    +0.000 NA
ATOM     13  N   UNL     1       3.346   3.436  19.406  0.00  0.00    +0.000 N 
BRANCH  13  14
ATOM     14  C   UNL     1       4.750   3.795  19.342  0.00  0.00    +0.000 C 
ATOM     15  C   UNL     1       5.212   5.237  19.170  0.00  0.00    +0.000 C 
ATOM     16  C   UNL     1       5.357   4.289  18.031  0.00  0.00    +0.000 C 
ENDBRANCH  13  14
ENDBRANCH   7   9
ENDBRANCH   1   3
BRANCH   1  18
ATOM     17  O   UNL     1      -0.734   8.058  21.816  0.00  0.00    +0.000 OA
ATOM     18  S   UNL     1       0.221   9.128  21.997  0.00  0.00    +0.000 S 
ATOM     19  O   UNL     1       0.354   9.852  23.242  0.00  0.00    +0.000 OA
BRANCH  18  20
ATOM     20  C   UNL     1      -0.080  10.323  20.703  0.00  0.00    +0.000 A 
ATOM     21  C   UNL     1       0.670  11.501  20.643  0.00  0.00    +0.000 A 
ATOM     22  C   UNL     1       0.445  12.407  19.604  0.00  0.00    +0.000 A 
ATOM     23  C   UNL     1      -0.513  12.129  18.626  0.00  0.00    +0.000 A 
ATOM     24  C   UNL     1      -1.269  10.946  18.677  0.00  0.00    +0.000 A 
ATOM     25  C   UNL     1      -1.054  10.047  19.736  0.00  0.00    +0.000 A 
BRANCH  24  26
ATOM     26  C   UNL     1      -2.282  10.621  17.604  0.00  0.00    +0.000 C 
ATOM     27  F   UNL     1      -1.726  10.176  16.443  0.00  0.00    +0.000 F 
ATOM     28  F   UNL     1      -3.150   9.649  17.997  0.00  0.00    +0.000 F 
ATOM     29  F   UNL     1      -3.048  11.694  17.266  0.00  0.00    +0.000 F 
ENDBRANCH  24  26
ENDBRANCH  18  20
ENDBRANCH   1  18
TORSDOF 6
ENDMDL
MODEL 5
REMARK VINA RESULT:      -8.5      5.272      8.013
REMARK  Name = 
REMARK  6 active torsions:
REMARK  status: ('A' for Active; 'I' for Inactive)
REMARK    1  A    between atoms: S_2  and  N_4
REMARK    2  A    between atoms: S_2  and  C_19
REMARK    3  A    between atoms: N_4  and  C_5
REMARK    4  A    between atoms: C_9  and  C_10
REMARK    5  A    between atoms: N_14  and  C_15
REMARK    6  A    between atoms: C_23  and  C_24
REMARK                            x       y       z     vdW  Elec       q    Type
REMARK                         _______ _______ _______ _____ _____    ______ ____
ROOT
ATOM      1  N   UNL     1       3.168   7.227  18.358  0.00  0.00    +0.000 N 
ATOM      2  H   UNL     1       3.053   7.416  17.360  0.00  0.00    +0.000 HD
ENDROOT
BRANCH   1   3
ATOM      3  C   UNL     1       2.163   7.895  19.137  0.00  0.00    +0.000 A 
ATOM      4  C   UNL     1       1.917   7.485  20.441  0.00  0.00    +0.000 A 
ATOM      5  C   UNL     1       1.033   8.213  21.236  0.00  0.00    +0.000 A 
ATOM      6  C   UNL     1       0.383   9.342  20.723  0.00  0.00    +0.000 A 
ATOM      7  C   UNL     1       0.548   9.722  19.384  0.00  0.00    +0.000 A 
ATOM      8  C   UNL     1       1.454   8.975  18.600  0.00  0.00    +0.000 A 
BRANCH   7   9
ATOM      9  C   UNL     1      -0.080  10.912  18.790  0.00  0.00    +0.000 A 
ATOM     10  N   UNL     1       0.301  12.154  19.070  0.00  0.00    +0.000 NA
ATOM     11  N   UNL     1      -0.549  13.001  18.419  0.00  0.00    +0.000 NA
ATOM     12  N   UNL     1      -1.449  12.328  17.725  0.00  0.00    +0.000 NA
ATOM     13  N   UNL     1      -1.143  11.027  17.905  0.00  0.00    +0.000 N 
BRANCH  13  14
ATOM     14  C   UNL     1      -1.870   9.984  17.205  0.00  0.00    +0.000 C 
ATOM     15  C   UNL     1      -3.058  10.289  16.301  0.00  0.00    +0.000 C 
ATOM     16  C   UNL     1      -3.297   9.636  17.616  0.00  0.00    +0.000 C 
ENDBRANCH  13  14
ENDBRANCH   7   9
ENDBRANCH   1   3
BRANCH   1  18
ATOM     17  O   UNL     1       3.420   5.232  19.977  0.00  0.00    +0.000 OA
ATOM     18  S   UNL     1       3.273   5.541  18.572  0.00  0.00    +0.000 S 
ATOM     19  O   UNL     1       2.238   4.954  17.750  0.00  0.00    +0.000 OA
BRANCH  18  20
ATOM     20  C   UNL     1       4.844   5.201  17.793  0.00  0.00    +0.000 A 
ATOM     21  C   UNL     1       6.011   5.135  18.559  0.00  0.00    +0.000 A 
ATOM     22  C   UNL     1       7.225   4.834  17.938  0.00  0.00    +0.000 A 
ATOM     23  C   UNL     1       7.268   4.588  16.564  0.00  0.00    +0.000 A 
ATOM     24  C   UNL     1       6.100   4.650  15.786  0.00  0.00    +0.000 A 
ATOM     25  C   UNL     1       4.884   4.974  16.412  0.00  0.00    +0.000 A 
BRANCH  24  26
ATOM     26  C   UNL     1       6.132   4.351  14.305  0.00  0.00    +0.000 C 
ATOM     27  F   UNL     1       4.944   4.573  13.677  0.00  0.00    +0.000 F 
ATOM     28  F   UNL     1       7.048   5.114  13.649  0.00  0.00    +0.000 F 
ATOM     29  F   UNL     1       6.461   3.057  14.040  0.00  0.00    +0.000 F 
ENDBRANCH  24  26
ENDBRANCH  18  20
ENDBRANCH   1  18
TORSDOF 6
ENDMDL
MODEL 6
REMARK VINA RESULT:      -8.5      3.643      5.041
REMARK  Name = 
REMARK  6 active torsions:
REMARK  status: ('A' for Active; 'I' for Inactive)
REMARK    1  A    between atoms: S_2  and  N_4
REMARK    2  A    between atoms: S_2  and  C_19
REMARK    3  A    between atoms: N_4  and  C_5
REMARK    4  A    between atoms: C_9  and  C_10
REMARK    5  A    between atoms: N_14  and  C_15
REMARK    6  A    between atoms: C_23  and  C_24
REMARK                            x       y       z     vdW  Elec       q    Type
REMARK                         _______ _______ _______ _____ _____    ______ ____
ROOT
ATOM      1  N   UNL     1       2.207   7.394  19.349  0.00  0.00    +0.000 N 
ATOM      2  H   UNL     1       1.381   7.248  19.934  0.00  0.00    +0.000 HD
ENDROOT
BRANCH   1   3
ATOM      3  C   UNL     1       2.638   6.170  18.735  0.00  0.00    +0.000 A 
ATOM      4  C   UNL     1       1.695   5.237  18.320  0.00  0.00    +0.000 A 
ATOM      5  C   UNL     1       2.107   4.110  17.611  0.00  0.00    +0.000 A 
ATOM      6  C   UNL     1       3.464   3.904  17.333  0.00  0.00    +0.000 A 
ATOM      7  C   UNL     1       4.440   4.784  17.819  0.00  0.00    +0.000 A 
ATOM      8  C   UNL     1       4.000   5.924  18.527  0.00  0.00    +0.000 A 
BRANCH   7   9
ATOM      9  C   UNL     1       5.878   4.644  17.538  0.00  0.00    +0.000 A 
ATOM     10  N   UNL     1       6.774   4.323  18.464  0.00  0.00    +0.000 NA
ATOM     11  N   UNL     1       8.006   4.373  17.877  0.00  0.00    +0.000 NA
ATOM     12  N   UNL     1       7.911   4.704  16.602  0.00  0.00    +0.000 NA
ATOM     13  N   UNL     1       6.591   4.830  16.361  0.00  0.00    +0.000 N 
BRANCH  13  14
ATOM     14  C   UNL     1       6.097   5.096  15.023  0.00  0.00    +0.000 C 
ATOM     15  C   UNL     1       5.455   4.013  14.164  0.00  0.00    +0.000 C 
ATOM     16  C   UNL     1       6.814   4.509  13.810  0.00  0.00    +0.000 C 
ENDBRANCH  13  14
ENDBRANCH   7   9
ENDBRANCH   1   3
BRANCH   1  18
ATOM     17  O   UNL     1       3.120   9.344  17.925  0.00  0.00    +0.000 OA
ATOM     18  S   UNL     1       1.886   8.684  18.286  0.00  0.00    +0.000 S 
ATOM     19  O   UNL     1       0.953   8.184  17.299  0.00  0.00    +0.000 OA
BRANCH  18  20
ATOM     20  C   UNL     1       0.993   9.794  19.364  0.00  0.00    +0.000 A 
ATOM     21  C   UNL     1       0.562  11.038  18.895  0.00  0.00    +0.000 A 
ATOM     22  C   UNL     1      -0.164  11.878  19.742  0.00  0.00    +0.000 A 
ATOM     23  C   UNL     1      -0.468  11.470  21.043  0.00  0.00    +0.000 A 
ATOM     24  C   UNL     1      -0.041  10.221  21.522  0.00  0.00    +0.000 A 
ATOM     25  C   UNL     1       0.708   9.387  20.673  0.00  0.00    +0.000 A 
BRANCH  24  26
ATOM     26  C   UNL     1      -0.395   9.757  22.916  0.00  0.00    +0.000 C 
ATOM     27  F   UNL     1       0.689   9.525  23.707  0.00  0.00    +0.000 F 
ATOM     28  F   UNL     1      -1.152  10.671  23.583  0.00  0.00    +0.000 F 
ATOM     29  F   UNL     1      -1.115   8.602  22.916  0.00  0.00    +0.000 F 
ENDBRANCH  24  26
ENDBRANCH  18  20
ENDBRANCH   1  18
TORSDOF 6
ENDMDL
MODEL 7
REMARK VINA RESULT:      -8.4      4.344      7.729
REMARK  Name = 
REMARK  6 active torsions:
REMARK  status: ('A' for Active; 'I' for Inactive)
REMARK    1  A    between atoms: S_2  and  N_4
REMARK    2  A    between atoms: S_2  and  C_19
REMARK    3  A    between atoms: N_4  and  C_5
REMARK    4  A    between atoms: C_9  and  C_10
REMARK    5  A    between atoms: N_14  and  C_15
REMARK    6  A    between atoms: C_23  and  C_24
REMARK                            x       y       z     vdW  Elec       q    Type
REMARK                         _______ _______ _______ _____ _____    ______ ____
ROOT
ATOM      1  N   UNL     1       5.321   4.047  16.650  0.00  0.00    +0.000 N 
ATOM      2  H   UNL     1       5.679   3.107  16.829  0.00  0.00    +0.000 HD
ENDROOT
BRANCH   1   3
ATOM      3  C   UNL     1       4.461   4.492  17.710  0.00  0.00    +0.000 A 
ATOM      4  C   UNL     1       4.324   3.718  18.857  0.00  0.00    +0.000 A 
ATOM      5  C   UNL     1       3.591   4.211  19.936  0.00  0.00    +0.000 A 
ATOM      6  C   UNL     1       2.981   5.469  19.863  0.00  0.00    +0.000 A 
ATOM      7  C   UNL     1       3.031   6.227  18.686  0.00  0.00    +0.000 A 
ATOM      8  C   UNL     1       3.786   5.713  17.609  0.00  0.00    +0.000 A 
BRANCH   7   9
ATOM      9  C   UNL     1       2.440   7.568  18.552  0.00  0.00    +0.000 A 
ATOM     10  N   UNL     1       2.532   8.298  17.447  0.00  0.00    +0.000 NA
ATOM     11  N   UNL     1       1.956   9.509  17.705  0.00  0.00    +0.000 NA
ATOM     12  N   UNL     1       1.490   9.557  18.940  0.00  0.00    +0.000 NA
ATOM     13  N   UNL     1       1.739   8.342  19.467  0.00  0.00    +0.000 N 
BRANCH  13  14
ATOM     14  C   UNL     1       1.274   7.993  20.797  0.00  0.00    +0.000 C 
ATOM     15  C   UNL     1       0.060   8.660  21.433  0.00  0.00    +0.000 C 
ATOM     16  C   UNL     1       1.419   8.988  21.945  0.00  0.00    +0.000 C 
ENDBRANCH  13  14
ENDBRANCH   7   9
ENDBRANCH   1   3
BRANCH   1  18
ATOM     17  O   UNL     1       6.279   6.441  16.520  0.00  0.00    +0.000 OA
ATOM     18  S   UNL     1       6.642   5.060  16.291  0.00  0.00    +0.000 S 
ATOM     19  O   UNL     1       7.806   4.450  16.894  0.00  0.00    +0.000 OA
BRANCH  18  20
ATOM     20  C   UNL     1       6.765   4.838  14.522  0.00  0.00    +0.000 A 
ATOM     21  C   UNL     1       7.885   5.305  13.830  0.00  0.00    +0.000 A 
ATOM     22  C   UNL     1       7.980   5.091  12.453  0.00  0.00    +0.000 A 
ATOM     23  C   UNL     1       6.968   4.404  11.778  0.00  0.00    +0.000 A 
ATOM     24  C   UNL     1       5.840   3.928  12.467  0.00  0.00    +0.000 A 
ATOM     25  C   UNL     1       5.739   4.164  13.849  0.00  0.00    +0.000 A 
BRANCH  24  26
ATOM     26  C   UNL     1       4.759   3.153  11.751  0.00  0.00    +0.000 C 
ATOM     27  F   UNL     1       4.323   3.749  10.607  0.00  0.00    +0.000 F 
ATOM     28  F   UNL     1       5.176   1.909  11.387  0.00  0.00    +0.000 F 
ATOM     29  F   UNL     1       3.653   2.966  12.522  0.00  0.00    +0.000 F 
ENDBRANCH  24  26
ENDBRANCH  18  20
ENDBRANCH   1  18
TORSDOF 6
ENDMDL
MODEL 8
REMARK VINA RESULT:      -8.4      3.475      6.408
REMARK  Name = 
REMARK  6 active torsions:
REMARK  status: ('A' for Active; 'I' for Inactive)
REMARK    1  A    between atoms: S_2  and  N_4
REMARK    2  A    between atoms: S_2  and  C_19
REMARK    3  A    between atoms: N_4  and  C_5
REMARK    4  A    between atoms: C_9  and  C_10
REMARK    5  A    between atoms: N_14  and  C_15
REMARK    6  A    between atoms: C_23  and  C_24
REMARK                            x       y       z     vdW  Elec       q    Type
REMARK                         _______ _______ _______ _____ _____    ______ ____
ROOT
ATOM      1  N   UNL     1       5.223   5.845  15.247  0.00  0.00    +0.000 N 
ATOM      2  H   UNL     1       4.719   5.414  14.468  0.00  0.00    +0.000 HD
ENDROOT
BRANCH   1   3
ATOM      3  C   UNL     1       4.388   5.966  16.408  0.00  0.00    +0.000 A 
ATOM      4  C   UNL     1       4.229   7.205  17.018  0.00  0.00    +0.000 A 
ATOM      5  C   UNL     1       3.321   7.345  18.066  0.00  0.00    +0.000 A 
ATOM      6  C   UNL     1       2.584   6.245  18.517  0.00  0.00    +0.000 A 
ATOM      7  C   UNL     1       2.792   4.968  17.978  0.00  0.00    +0.000 A 
ATOM      8  C   UNL     1       3.710   4.850  16.912  0.00  0.00    +0.000 A 
BRANCH   7   9
ATOM      9  C   UNL     1       2.031   3.776  18.384  0.00  0.00    +0.000 A 
ATOM     10  N   UNL     1       0.911   3.387  17.784  0.00  0.00    +0.000 NA
ATOM     11  N   UNL     1       0.430   2.310  18.471  0.00  0.00    +0.000 NA
ATOM     12  N   UNL     1       1.224   1.999  19.480  0.00  0.00    +0.000 NA
ATOM     13  N   UNL     1       2.250   2.870  19.413  0.00  0.00    +0.000 N 
BRANCH  13  14
ATOM     14  C   UNL     1       3.379   2.767  20.318  0.00  0.00    +0.000 C 
ATOM     15  C   UNL     1       4.761   3.297  19.956  0.00  0.00    +0.000 C 
ATOM     16  C   UNL     1       4.537   1.826  19.996  0.00  0.00    +0.000 C 
ENDBRANCH  13  14
ENDBRANCH   7   9
ENDBRANCH   1   3
BRANCH   1  18
ATOM     17  O   UNL     1       6.409   3.609  15.754  0.00  0.00    +0.000 OA
ATOM     18  S   UNL     1       6.684   4.999  15.468  0.00  0.00    +0.000 S 
ATOM     19  O   UNL     1       7.568   5.415  14.401  0.00  0.00    +0.000 OA
BRANCH  18  20
ATOM     20  C   UNL     1       7.274   5.739  16.983  0.00  0.00    +0.000 A 
ATOM     21  C   UNL     1       7.477   4.951  18.120  0.00  0.00    +0.000 A 
ATOM     22  C   UNL     1       7.971   5.541  19.286  0.00  0.00    +0.000 A 
ATOM     23  C   UNL     1       8.273   6.905  19.308  0.00  0.00    +0.000 A 
ATOM     24  C   UNL     1       8.076   7.703  18.170  0.00  0.00    +0.000 A 
ATOM     25  C   UNL     1       7.558   7.110  17.005  0.00  0.00    +0.000 A 
BRANCH  24  26
ATOM     26  C   UNL     1       8.433   9.171  18.175  0.00  0.00    +0.000 C 
ATOM     27  F   UNL     1       9.054   9.580  19.316  0.00  0.00    +0.000 F 
ATOM     28  F   UNL     1       9.276   9.496  17.156  0.00  0.00    +0.000 F 
ATOM     29  F   UNL     1       7.344   9.975  18.031  0.00  0.00    +0.000 F 
ENDBRANCH  24  26
ENDBRANCH  18  20
ENDBRANCH   1  18
TORSDOF 6
ENDMDL
MODEL 9
REMARK VINA RESULT:      -8.4      6.111      8.279
REMARK  Name = 
REMARK  6 active torsions:
REMARK  status: ('A' for Active; 'I' for Inactive)
REMARK    1  A    between atoms: S_2  and  N_4
REMARK    2  A    between atoms: S_2  and  C_19
REMARK    3  A    between atoms: N_4  and  C_5
REMARK    4  A    between atoms: C_9  and  C_10
REMARK    5  A    between atoms: N_14  and  C_15
REMARK    6  A    between atoms: C_23  and  C_24
REMARK                            x       y       z     vdW  Elec       q    Type
REMARK                         _______ _______ _______ _____ _____    ______ ____
ROOT
ATOM      1  N   UNL     1       1.186   9.965  21.488  0.00  0.00    +0.000 N 
ATOM      2  H   UNL     1       2.006   9.971  22.099  0.00  0.00    +0.000 HD
ENDROOT
BRANCH   1   3
ATOM      3  C   UNL     1       1.409   9.161  20.320  0.00  0.00    +0.000 A 
ATOM      4  C   UNL     1       1.008   9.630  19.074  0.00  0.00    +0.000 A 
ATOM      5  C   UNL     1       1.338   8.908  17.928  0.00  0.00    +0.000 A 
ATOM      6  C   UNL     1       2.053   7.708  18.028  0.00  0.00    +0.000 A 
ATOM      7  C   UNL     1       2.389   7.171  19.278  0.00  0.00    +0.000 A 
ATOM      8  C   UNL     1       2.053   7.924  20.424  0.00  0.00    +0.000 A 
BRANCH   7   9
ATOM      9  C   UNL     1       3.165   5.934  19.453  0.00  0.00    +0.000 A 
ATOM     10  N   UNL     1       4.420   5.795  19.040  0.00  0.00    +0.000 NA
ATOM     11  N   UNL     1       4.791   4.503  19.280  0.00  0.00    +0.000 NA
ATOM     12  N   UNL     1       3.809   3.826  19.848  0.00  0.00    +0.000 NA
ATOM     13  N   UNL     1       2.806   4.712  20.007  0.00  0.00    +0.000 N 
BRANCH  13  14
ATOM     14  C   UNL     1       1.583   4.342  20.695  0.00  0.00    +0.000 C 
ATOM     15  C   UNL     1       1.372   2.953  21.285  0.00  0.00    +0.000 C 
ATOM     16  C   UNL     1       0.619   3.342  20.061  0.00  0.00    +0.000 C 
ENDBRANCH  13  14
ENDBRANCH   7   9
ENDBRANCH   1   3
BRANCH   1  18
ATOM     17  O   UNL     1      -0.846   8.413  21.840  0.00  0.00    +0.000 OA
ATOM     18  S   UNL     1      -0.173   9.549  22.427  0.00  0.00    +0.000 S 
ATOM     19  O   UNL     1       0.256   9.573  23.808  0.00  0.00    +0.000 OA
BRANCH  18  20
ATOM     20  C   UNL     1      -1.216  10.974  22.156  0.00  0.00    +0.000 A 
ATOM     21  C   UNL     1      -1.257  11.589  20.902  0.00  0.00    +0.000 A 
ATOM     22  C   UNL     1      -2.105  12.681  20.699  0.00  0.00    +0.000 A 
ATOM     23  C   UNL     1      -2.914  13.143  21.740  0.00  0.00    +0.000 A 
ATOM     24  C   UNL     1      -2.882  12.529  23.002  0.00  0.00    +0.000 A 
ATOM     25  C   UNL     1      -2.012  11.444  23.208  0.00  0.00    +0.000 A 
BRANCH  24  26
ATOM     26  C   UNL     1      -3.780  13.000  24.123  0.00  0.00    +0.000 C 
ATOM     27  F   UNL     1      -4.250  11.991  24.908  0.00  0.00    +0.000 F 
ATOM     28  F   UNL     1      -3.140  13.859  24.964  0.00  0.00    +0.000 F 
ATOM     29  F   UNL     1      -4.876  13.666  23.669  0.00  0.00    +0.000 F 
ENDBRANCH  24  26
ENDBRANCH  18  20
ENDBRANCH   1  18
TORSDOF 6
ENDMDL
