MODEL 1
REMARK VINA RESULT:      -8.4      0.000      0.000
REMARK  Name = 
REMARK  5 active torsions:
REMARK  status: ('A' for Active; 'I' for Inactive)
REMARK    1  A    between atoms: C_1  and  C_2
REMARK    2  A    between atoms: C_2  and  C_3
REMARK    3  A    between atoms: C_2  and  N_23
REMARK    4  A    between atoms: C_7  and  N_8
REMARK    5  A    between atoms: C_15  and  C_16
REMARK                            x       y       z     vdW  Elec       q    Type
REMARK                         _______ _______ _______ _____ _____    ______ ____
ROOT
ATOM      1  N   UNL     1       2.641   6.352  17.583  0.00  0.00    +0.000 N 
ATOM      2  C   UNL     1       1.745   5.195  17.807  0.00  0.00    +0.000 C 
ATOM      3  C   UNL     1       2.632   4.262  18.572  0.00  0.00    +0.000 A 
ATOM      4  C   UNL     1       3.948   4.527  18.187  0.00  0.00    +0.000 A 
ATOM      5  C   UNL     1       5.044   3.946  18.789  0.00  0.00    +0.000 A 
ATOM      6  C   UNL     1       4.797   3.064  19.836  0.00  0.00    +0.000 A 
ATOM      7  C   UNL     1       3.478   2.808  20.263  0.00  0.00    +0.000 A 
ATOM      8  C   UNL     1       2.364   3.408  19.637  0.00  0.00    +0.000 A 
ATOM      9  C   UNL     1       3.937   5.807  17.421  0.00  0.00    +0.000 C 
ATOM     10  O   UNL     1       4.935   6.322  16.950  0.00  0.00    +0.000 OA
ENDROOT
BRANCH   1  15
ATOM     11  C   UNL     1       1.357   9.419  19.151  0.00  0.00    +0.000 A 
ATOM     12  C   UNL     1       0.965   8.875  20.385  0.00  0.00    +0.000 A 
ATOM     13  C   UNL     1       1.459   7.645  20.810  0.00  0.00    +0.000 A 
ATOM     14  C   UNL     1       2.269   6.892  19.966  0.00  0.00    +0.000 A 
ATOM     15  C   UNL     1       2.491   7.325  18.651  0.00  0.00    +0.000 A 
ATOM     16  C   UNL     1       2.149   8.635  18.296  0.00  0.00    +0.000 A 
BRANCH  11  18
ATOM     17  C   UNL     1       1.204  11.865  19.745  0.00  0.00    +0.000 C 
ATOM     18  C   UNL     1       0.823  10.777  18.733  0.00  0.00    +0.000 C 
BRANCH  18  19
ATOM     19  N   UNL     1      -0.600  10.715  18.434  0.00  0.00    +0.000 N 
ATOM     20  C   UNL     1      -1.562  11.490  19.008  0.00  0.00    +0.000 A 
ATOM     21  N   UNL     1      -2.735  11.165  18.516  0.00  0.00    +0.000 NA
ATOM     22  N   UNL     1      -2.536  10.168  17.587  0.00  0.00    +0.000 NA
ATOM     23  C   UNL     1      -1.248   9.914  17.547  0.00  0.00    +0.000 A 
ENDBRANCH  18  19
ENDBRANCH  11  18
ENDBRANCH   1  15
BRANCH   8  24
ATOM     24  C   UNL     1       0.988   3.195  20.219  0.00  0.00    +0.000 C 
ATOM     25  F   UNL     1       0.126   2.539  19.397  0.00  0.00    +0.000 F 
ATOM     26  F   UNL     1       1.017   2.478  21.374  0.00  0.00    +0.000 F 
ATOM     27  F   UNL     1       0.372   4.373  20.528  0.00  0.00    +0.000 F 
ENDBRANCH   8  24
TORSDOF 4
ENDMDL
MODEL 2
REMARK VINA RESULT:      -8.4      4.682      7.207
REMARK  Name = 
REMARK  5 active torsions:
REMARK  status: ('A' for Active; 'I' for Inactive)
REMARK    1  A    between atoms: C_1  and  C_2
REMARK    2  A    between atoms: C_2  and  C_3
REMARK    3  A    between atoms: C_2  and  N_23
REMARK    4  A    between atoms: C_7  and  N_8
REMARK    5  A    between atoms: C_15  and  C_16
REMARK                            x       y       z     vdW  Elec       q    Type
REMARK                         _______ _______ _______ _____ _____    ______ ____
ROOT
ATOM      1  N   UNL     1      -1.530  12.253  19.146  0.00  0.00    +0.000 N 
ATOM      2  C   UNL     1      -0.136  11.926  18.769  0.00  0.00    +0.000 C 
ATOM      3  C   UNL     1       0.220  10.880  19.780  0.00  0.00    +0.000 A 
ATOM      4  C   UNL     1      -0.541  11.131  20.925  0.00  0.00    +0.000 A 
ATOM      5  C   UNL     1      -0.570  10.285  22.014  0.00  0.00    +0.000 A 
ATOM      6  C   UNL     1       0.196   9.127  21.936  0.00  0.00    +0.000 A 
ATOM      7  C   UNL     1       0.944   8.837  20.776  0.00  0.00    +0.000 A 
ATOM      8  C   UNL     1       0.968   9.712  19.668  0.00  0.00    +0.000 A 
ATOM      9  C   UNL     1      -1.585  12.129  20.554  0.00  0.00    +0.000 C 
ATOM     10  O   UNL     1      -2.420  12.556  21.333  0.00  0.00    +0.000 OA
ENDROOT
BRANCH   1  15
ATOM     11  C   UNL     1      -4.787  11.392  17.675  0.00  0.00    +0.000 A 
ATOM     12  C   UNL     1      -4.347  11.026  16.393  0.00  0.00    +0.000 A 
ATOM     13  C   UNL     1      -3.011  10.710  16.161  0.00  0.00    +0.000 A 
ATOM     14  C   UNL     1      -2.076  10.857  17.180  0.00  0.00    +0.000 A 
ATOM     15  C   UNL     1      -2.464  11.428  18.400  0.00  0.00    +0.000 A 
ATOM     16  C   UNL     1      -3.828  11.567  18.685  0.00  0.00    +0.000 A 
BRANCH  11  18
ATOM     17  C   UNL     1      -6.540  13.201  17.777  0.00  0.00    +0.000 C 
ATOM     18  C   UNL     1      -6.257  11.699  17.898  0.00  0.00    +0.000 C 
BRANCH  18  19
ATOM     19  N   UNL     1      -6.739  11.100  19.134  0.00  0.00    +0.000 N 
ATOM     20  C   UNL     1      -6.928   9.767  19.342  0.00  0.00    +0.000 A 
ATOM     21  N   UNL     1      -7.379   9.577  20.561  0.00  0.00    +0.000 NA
ATOM     22  N   UNL     1      -7.470  10.809  21.170  0.00  0.00    +0.000 NA
ATOM     23  C   UNL     1      -7.077  11.711  20.300  0.00  0.00    +0.000 A 
ENDBRANCH  18  19
ENDBRANCH  11  18
ENDBRANCH   1  15
BRANCH   8  24
ATOM     24  C   UNL     1       1.683   9.289  18.409  0.00  0.00    +0.000 C 
ATOM     25  F   UNL     1       0.860   8.929  17.390  0.00  0.00    +0.000 F 
ATOM     26  F   UNL     1       2.482  10.270  17.911  0.00  0.00    +0.000 F 
ATOM     27  F   UNL     1       2.499   8.215  18.616  0.00  0.00    +0.000 F 
ENDBRANCH   8  24
TORSDOF 4
ENDMDL
MODEL 3
REMARK VINA RESULT:      -8.3      2.837      3.587
REMARK  Name = 
REMARK  5 active torsions:
REMARK  status: ('A' for Active; 'I' for Inactive)
REMARK    1  A    between atoms: C_1  and  C_2
REMARK    2  A    between atoms: C_2  and  C_3
REMARK    3  A    between atoms: C_2  and  N_23
REMARK    4  A    between atoms: C_7  and  N_8
REMARK    5  A    between atoms: C_15  and  C_16
REMARK                            x       y       z     vdW  Elec       q    Type
REMARK                         _______ _______ _______ _____ _____    ______ ____
ROOT
ATOM      1  N   UNL     1       3.294   5.882  20.116  0.00  0.00    +0.000 N 
ATOM      2  C   UNL     1       4.492   5.490  19.341  0.00  0.00    +0.000 C 
ATOM      3  C   UNL     1       4.013   4.259  18.634  0.00  0.00    +0.000 A 
ATOM      4  C   UNL     1       3.027   3.676  19.433  0.00  0.00    +0.000 A 
ATOM      5  C   UNL     1       2.269   2.597  19.032  0.00  0.00    +0.000 A 
ATOM      6  C   UNL     1       2.512   2.092  17.759  0.00  0.00    +0.000 A 
ATOM      7  C   UNL     1       3.478   2.687  16.922  0.00  0.00    +0.000 A 
ATOM      8  C   UNL     1       4.250   3.790  17.345  0.00  0.00    +0.000 A 
ATOM      9  C   UNL     1       2.663   4.670  20.483  0.00  0.00    +0.000 C 
ATOM     10  O   UNL     1       1.820   4.470  21.341  0.00  0.00    +0.000 OA
ENDROOT
BRANCH   1  15
ATOM     11  C   UNL     1       1.357   8.962  19.591  0.00  0.00    +0.000 A 
ATOM     12  C   UNL     1       1.909   9.348  18.359  0.00  0.00    +0.000 A 
ATOM     13  C   UNL     1       2.599   8.433  17.569  0.00  0.00    +0.000 A 
ATOM     14  C   UNL     1       2.838   7.148  18.043  0.00  0.00    +0.000 A 
ATOM     15  C   UNL     1       2.481   6.816  19.357  0.00  0.00    +0.000 A 
ATOM     16  C   UNL     1       1.633   7.671  20.071  0.00  0.00    +0.000 A 
BRANCH  11  18
ATOM     17  C   UNL     1      -0.137   9.313  21.592  0.00  0.00    +0.000 C 
ATOM     18  C   UNL     1       0.584   9.978  20.413  0.00  0.00    +0.000 C 
BRANCH  18  19
ATOM     19  N   UNL     1      -0.280  10.791  19.569  0.00  0.00    +0.000 N 
ATOM     20  C   UNL     1      -0.129  12.126  19.341  0.00  0.00    +0.000 A 
ATOM     21  N   UNL     1      -1.085  12.541  18.542  0.00  0.00    +0.000 NA
ATOM     22  N   UNL     1      -1.868  11.453  18.226  0.00  0.00    +0.000 NA
ATOM     23  C   UNL     1      -1.367  10.410  18.847  0.00  0.00    +0.000 A 
ENDBRANCH  18  19
ENDBRANCH  11  18
ENDBRANCH   1  15
BRANCH   8  24
ATOM     24  C   UNL     1       5.177   4.463  16.363  0.00  0.00    +0.000 C 
ATOM     25  F   UNL     1       4.772   5.697  15.962  0.00  0.00    +0.000 F 
ATOM     26  F   UNL     1       6.431   4.629  16.861  0.00  0.00    +0.000 F 
ATOM     27  F   UNL     1       5.326   3.738  15.216  0.00  0.00    +0.000 F 
ENDBRANCH   8  24
TORSDOF 4
ENDMDL
MODEL 4
REMARK VINA RESULT:      -8.2      2.829      3.629
REMARK  Name = 
REMARK  5 active torsions:
REMARK  status: ('A' for Active; 'I' for Inactive)
REMARK    1  A    between atoms: C_1  and  C_2
REMARK    2  A    between atoms: C_2  and  C_3
REMARK    3  A    between atoms: C_2  and  N_23
REMARK    4  A    between atoms: C_7  and  N_8
REMARK    5  A    between atoms: C_15  and  C_16
REMARK                            x       y       z     vdW  Elec       q    Type
REMARK                         _______ _______ _______ _____ _____    ______ ____
ROOT
ATOM      1  N   UNL     1       3.281   5.888  20.119  0.00  0.00    +0.000 N 
ATOM      2  C   UNL     1       4.467   5.500  19.323  0.00  0.00    +0.000 C 
ATOM      3  C   UNL     1       3.974   4.277  18.611  0.00  0.00    +0.000 A 
ATOM      4  C   UNL     1       2.997   3.689  19.420  0.00  0.00    +0.000 A 
ATOM      5  C   UNL     1       2.230   2.616  19.019  0.00  0.00    +0.000 A 
ATOM      6  C   UNL     1       2.453   2.122  17.738  0.00  0.00    +0.000 A 
ATOM      7  C   UNL     1       3.410   2.723  16.893  0.00  0.00    +0.000 A 
ATOM      8  C   UNL     1       4.191   3.819  17.315  0.00  0.00    +0.000 A 
ATOM      9  C   UNL     1       2.651   4.675  20.484  0.00  0.00    +0.000 C 
ATOM     10  O   UNL     1       1.819   4.469  21.351  0.00  0.00    +0.000 OA
ENDROOT
BRANCH   1  15
ATOM     11  C   UNL     1       1.348   8.980  19.648  0.00  0.00    +0.000 A 
ATOM     12  C   UNL     1       1.883   9.374  18.412  0.00  0.00    +0.000 A 
ATOM     13  C   UNL     1       2.556   8.463  17.603  0.00  0.00    +0.000 A 
ATOM     14  C   UNL     1       2.798   7.173  18.063  0.00  0.00    +0.000 A 
ATOM     15  C   UNL     1       2.460   6.831  19.380  0.00  0.00    +0.000 A 
ATOM     16  C   UNL     1       1.626   7.684  20.114  0.00  0.00    +0.000 A 
BRANCH  11  18
ATOM     17  C   UNL     1      -0.175   9.311  21.630  0.00  0.00    +0.000 C 
ATOM     18  C   UNL     1       0.591   9.992  20.490  0.00  0.00    +0.000 C 
BRANCH  18  19
ATOM     19  N   UNL     1      -0.227  10.862  19.658  0.00  0.00    +0.000 N 
ATOM     20  C   UNL     1      -1.343  10.480  18.976  0.00  0.00    +0.000 A 
ATOM     21  N   UNL     1      -1.828  11.510  18.322  0.00  0.00    +0.000 NA
ATOM     22  N   UNL     1      -1.024  12.594  18.596  0.00  0.00    +0.000 NA
ATOM     23  C   UNL     1      -0.071  12.188  19.403  0.00  0.00    +0.000 A 
ENDBRANCH  18  19
ENDBRANCH  11  18
ENDBRANCH   1  15
BRANCH   8  24
ATOM     24  C   UNL     1       5.106   4.498  16.326  0.00  0.00    +0.000 C 
ATOM     25  F   UNL     1       5.228   3.850  15.138  0.00  0.00    +0.000 F 
ATOM     26  F   UNL     1       4.698   5.758  16.021  0.00  0.00    +0.000 F 
ATOM     27  F   UNL     1       6.378   4.625  16.804  0.00  0.00    +0.000 F 
ENDBRANCH   8  24
TORSDOF 4
ENDMDL
MODEL 5
REMARK VINA RESULT:      -8.1      3.256      4.112
REMARK  Name = 
REMARK  5 active torsions:
REMARK  status: ('A' for Active; 'I' for Inactive)
REMARK    1  A    between atoms: C_1  and  C_2
REMARK    2  A    between atoms: C_2  and  C_3
REMARK    3  A    between atoms: C_2  and  N_23
REMARK    4  A    between atoms: C_7  and  N_8
REMARK    5  A    between atoms: C_15  and  C_16
REMARK                            x       y       z     vdW  Elec       q    Type
REMARK                         _______ _______ _______ _____ _____    ______ ____
ROOT
ATOM      1  N   UNL     1       3.200   5.922  20.077  0.00  0.00    +0.000 N 
ATOM      2  C   UNL     1       4.455   5.457  19.445  0.00  0.00    +0.000 C 
ATOM      3  C   UNL     1       4.006   4.209  18.750  0.00  0.00    +0.000 A 
ATOM      4  C   UNL     1       2.926   3.695  19.471  0.00  0.00    +0.000 A 
ATOM      5  C   UNL     1       2.174   2.621  19.045  0.00  0.00    +0.000 A 
ATOM      6  C   UNL     1       2.525   2.047  17.827  0.00  0.00    +0.000 A 
ATOM      7  C   UNL     1       3.590   2.572  17.066  0.00  0.00    +0.000 A 
ATOM      8  C   UNL     1       4.354   3.671  17.515  0.00  0.00    +0.000 A 
ATOM      9  C   UNL     1       2.493   4.749  20.433  0.00  0.00    +0.000 C 
ATOM     10  O   UNL     1       1.562   4.617  21.208  0.00  0.00    +0.000 OA
ENDROOT
BRANCH   1  15
ATOM     11  C   UNL     1       1.284   8.950  19.254  0.00  0.00    +0.000 A 
ATOM     12  C   UNL     1       2.026   9.371  18.139  0.00  0.00    +0.000 A 
ATOM     13  C   UNL     1       2.870   8.487  17.470  0.00  0.00    +0.000 A 
ATOM     14  C   UNL     1       3.065   7.203  17.967  0.00  0.00    +0.000 A 
ATOM     15  C   UNL     1       2.499   6.842  19.198  0.00  0.00    +0.000 A 
ATOM     16  C   UNL     1       1.515   7.662  19.763  0.00  0.00    +0.000 A 
BRANCH  11  18
ATOM     17  C   UNL     1       0.527  11.351  19.388  0.00  0.00    +0.000 C 
ATOM     18  C   UNL     1       0.350   9.931  19.940  0.00  0.00    +0.000 C 
BRANCH  18  19
ATOM     19  N   UNL     1       0.457   9.837  21.388  0.00  0.00    +0.000 N 
ATOM     20  C   UNL     1      -0.502  10.220  22.276  0.00  0.00    +0.000 A 
ATOM     21  N   UNL     1      -0.074  10.006  23.499  0.00  0.00    +0.000 NA
ATOM     22  N   UNL     1       1.185   9.454  23.410  0.00  0.00    +0.000 NA
ATOM     23  C   UNL     1       1.486   9.355  22.135  0.00  0.00    +0.000 A 
ENDBRANCH  18  19
ENDBRANCH  11  18
ENDBRANCH   1  15
BRANCH   8  24
ATOM     24  C   UNL     1       5.397   4.267  16.601  0.00  0.00    +0.000 C 
ATOM     25  F   UNL     1       5.021   5.425  15.999  0.00  0.00    +0.000 F 
ATOM     26  F   UNL     1       6.558   4.547  17.251  0.00  0.00    +0.000 F 
ATOM     27  F   UNL     1       5.736   3.420  15.585  0.00  0.00    +0.000 F 
ENDBRANCH   8  24
TORSDOF 4
ENDMDL
MODEL 6
REMARK VINA RESULT:      -8.0      1.378      2.102
REMARK  Name = 
REMARK  5 active torsions:
REMARK  status: ('A' for Active; 'I' for Inactive)
REMARK    1  A    between atoms: C_1  and  C_2
REMARK    2  A    between atoms: C_2  and  C_3
REMARK    3  A    between atoms: C_2  and  N_23
REMARK    4  A    between atoms: C_7  and  N_8
REMARK    5  A    between atoms: C_15  and  C_16
REMARK                            x       y       z     vdW  Elec       q    Type
REMARK                         _______ _______ _______ _____ _____    ______ ____
ROOT
ATOM      1  N   UNL     1       2.553   6.629  17.742  0.00  0.00    +0.000 N 
ATOM      2  C   UNL     1       1.710   5.416  17.835  0.00  0.00    +0.000 C 
ATOM      3  C   UNL     1       2.640   4.445  18.497  0.00  0.00    +0.000 A 
ATOM      4  C   UNL     1       3.942   4.810  18.147  0.00  0.00    +0.000 A 
ATOM      5  C   UNL     1       5.064   4.217  18.685  0.00  0.00    +0.000 A 
ATOM      6  C   UNL     1       4.859   3.215  19.629  0.00  0.00    +0.000 A 
ATOM      7  C   UNL     1       3.553   2.855  20.022  0.00  0.00    +0.000 A 
ATOM      8  C   UNL     1       2.412   3.469  19.461  0.00  0.00    +0.000 A 
ATOM      9  C   UNL     1       3.872   6.164  17.526  0.00  0.00    +0.000 C 
ATOM     10  O   UNL     1       4.845   6.772  17.116  0.00  0.00    +0.000 OA
ENDROOT
BRANCH   1  15
ATOM     11  C   UNL     1       1.024   9.354  19.680  0.00  0.00    +0.000 A 
ATOM     12  C   UNL     1       0.782   8.652  20.872  0.00  0.00    +0.000 A 
ATOM     13  C   UNL     1       1.445   7.458  21.143  0.00  0.00    +0.000 A 
ATOM     14  C   UNL     1       2.280   6.894  20.184  0.00  0.00    +0.000 A 
ATOM     15  C   UNL     1       2.361   7.472  18.909  0.00  0.00    +0.000 A 
ATOM     16  C   UNL     1       1.844   8.757  18.708  0.00  0.00    +0.000 A 
BRANCH  11  18
ATOM     17  C   UNL     1      -0.571  10.598  18.176  0.00  0.00    +0.000 C 
ATOM     18  C   UNL     1       0.307  10.669  19.431  0.00  0.00    +0.000 C 
BRANCH  18  19
ATOM     19  N   UNL     1       1.238  11.787  19.445  0.00  0.00    +0.000 N 
ATOM     20  C   UNL     1       1.544  12.546  20.534  0.00  0.00    +0.000 A 
ATOM     21  N   UNL     1       2.408  13.473  20.192  0.00  0.00    +0.000 NA
ATOM     22  N   UNL     1       2.689  13.308  18.854  0.00  0.00    +0.000 NA
ATOM     23  C   UNL     1       1.981  12.288  18.422  0.00  0.00    +0.000 A 
ENDBRANCH  18  19
ENDBRANCH  11  18
ENDBRANCH   1  15
BRANCH   8  24
ATOM     24  C   UNL     1       1.048   3.132  20.011  0.00  0.00    +0.000 C 
ATOM     25  F   UNL     1       0.240   2.468  19.143  0.00  0.00    +0.000 F 
ATOM     26  F   UNL     1       1.114   2.355  21.125  0.00  0.00    +0.000 F 
ATOM     27  F   UNL     1       0.351   4.247  20.378  0.00  0.00    +0.000 F 
ENDBRANCH   8  24
TORSDOF 4
ENDMDL
MODEL 7
REMARK VINA RESULT:      -8.0      3.262      4.153
REMARK  Name = 
REMARK  5 active torsions:
REMARK  status: ('A' for Active; 'I' for Inactive)
REMARK    1  A    between atoms: C_1  and  C_2
REMARK    2  A    between atoms: C_2  and  C_3
REMARK    3  A    between atoms: C_2  and  N_23
REMARK    4  A    between atoms: C_7  and  N_8
REMARK    5  A    between atoms: C_15  and  C_16
REMARK                            x       y       z     vdW  Elec       q    Type
REMARK                         _______ _______ _______ _____ _____    ______ ____
ROOT
ATOM      1  N   UNL     1       3.157   5.922  20.086  0.00  0.00    +0.000 N 
ATOM      2  C   UNL     1       4.407   5.464  19.439  0.00  0.00    +0.000 C 
ATOM      3  C   UNL     1       3.952   4.225  18.731  0.00  0.00    +0.000 A 
ATOM      4  C   UNL     1       2.877   3.703  19.455  0.00  0.00    +0.000 A 
ATOM      5  C   UNL     1       2.121   2.635  19.020  0.00  0.00    +0.000 A 
ATOM      6  C   UNL     1       2.462   2.077  17.793  0.00  0.00    +0.000 A 
ATOM      7  C   UNL     1       3.522   2.610  17.030  0.00  0.00    +0.000 A 
ATOM      8  C   UNL     1       4.290   3.703  17.487  0.00  0.00    +0.000 A 
ATOM      9  C   UNL     1       2.452   4.745  20.433  0.00  0.00    +0.000 C 
ATOM     10  O   UNL     1       1.527   4.603  21.214  0.00  0.00    +0.000 OA
ENDROOT
BRANCH   1  15
ATOM     11  C   UNL     1       1.198   8.938  19.324  0.00  0.00    +0.000 A 
ATOM     12  C   UNL     1       1.946   9.402  18.229  0.00  0.00    +0.000 A 
ATOM     13  C   UNL     1       2.812   8.551  17.546  0.00  0.00    +0.000 A 
ATOM     14  C   UNL     1       3.024   7.258  18.011  0.00  0.00    +0.000 A 
ATOM     15  C   UNL     1       2.450   6.854  19.224  0.00  0.00    +0.000 A 
ATOM     16  C   UNL     1       1.445   7.641  19.800  0.00  0.00    +0.000 A 
BRANCH  11  18
ATOM     17  C   UNL     1       0.344  11.307  19.461  0.00  0.00    +0.000 C 
ATOM     18  C   UNL     1       0.240   9.884  20.025  0.00  0.00    +0.000 C 
BRANCH  18  19
ATOM     19  N   UNL     1       0.384   9.804  21.471  0.00  0.00    +0.000 N 
ATOM     20  C   UNL     1       1.523   9.456  22.132  0.00  0.00    +0.000 A 
ATOM     21  N   UNL     1       1.299   9.476  23.426  0.00  0.00    +0.000 NA
ATOM     22  N   UNL     1      -0.008   9.863  23.617  0.00  0.00    +0.000 NA
ATOM     23  C   UNL     1      -0.542  10.060  22.433  0.00  0.00    +0.000 A 
ENDBRANCH  18  19
ENDBRANCH  11  18
ENDBRANCH   1  15
BRANCH   8  24
ATOM     24  C   UNL     1       5.326   4.309  16.573  0.00  0.00    +0.000 C 
ATOM     25  F   UNL     1       6.520   4.566  17.170  0.00  0.00    +0.000 F 
ATOM     26  F   UNL     1       5.608   3.515  15.507  0.00  0.00    +0.000 F 
ATOM     27  F   UNL     1       4.917   5.502  16.050  0.00  0.00    +0.000 F 
ENDBRANCH   8  24
TORSDOF 4
ENDMDL
MODEL 8
REMARK VINA RESULT:      -7.9      1.257      1.783
REMARK  Name = 
REMARK  5 active torsions:
REMARK  status: ('A' for Active; 'I' for Inactive)
REMARK    1  A    between atoms: C_1  and  C_2
REMARK    2  A    between atoms: C_2  and  C_3
REMARK    3  A    between atoms: C_2  and  N_23
REMARK    4  A    between atoms: C_7  and  N_8
REMARK    5  A    between atoms: C_15  and  C_16
REMARK                            x       y       z     vdW  Elec       q    Type
REMARK                         _______ _______ _______ _____ _____    ______ ____
ROOT
ATOM      1  N   UNL     1       2.660   6.330  17.611  0.00  0.00    +0.000 N 
ATOM      2  C   UNL     1       1.755   5.176  17.815  0.00  0.00    +0.000 C 
ATOM      3  C   UNL     1       2.636   4.221  18.560  0.00  0.00    +0.000 A 
ATOM      4  C   UNL     1       3.954   4.483  18.177  0.00  0.00    +0.000 A 
ATOM      5  C   UNL     1       5.046   3.881  18.765  0.00  0.00    +0.000 A 
ATOM      6  C   UNL     1       4.794   2.981  19.795  0.00  0.00    +0.000 A 
ATOM      7  C   UNL     1       3.473   2.728  20.220  0.00  0.00    +0.000 A 
ATOM      8  C   UNL     1       2.363   3.348  19.609  0.00  0.00    +0.000 A 
ATOM      9  C   UNL     1       3.951   5.777  17.436  0.00  0.00    +0.000 C 
ATOM     10  O   UNL     1       4.953   6.294  16.972  0.00  0.00    +0.000 OA
ENDROOT
BRANCH   1  15
ATOM     11  C   UNL     1       1.453   9.406  19.222  0.00  0.00    +0.000 A 
ATOM     12  C   UNL     1       1.011   8.849  20.432  0.00  0.00    +0.000 A 
ATOM     13  C   UNL     1       1.449   7.592  20.840  0.00  0.00    +0.000 A 
ATOM     14  C   UNL     1       2.250   6.829  19.997  0.00  0.00    +0.000 A 
ATOM     15  C   UNL     1       2.520   7.282  18.698  0.00  0.00    +0.000 A 
ATOM     16  C   UNL     1       2.235   8.613  18.367  0.00  0.00    +0.000 A 
BRANCH  11  18
ATOM     17  C   UNL     1       2.088  11.580  18.114  0.00  0.00    +0.000 C 
ATOM     18  C   UNL     1       0.979  10.793  18.823  0.00  0.00    +0.000 C 
BRANCH  18  19
ATOM     19  N   UNL     1       0.382  11.490  19.953  0.00  0.00    +0.000 N 
ATOM     20  C   UNL     1       1.064  12.220  20.879  0.00  0.00    +0.000 A 
ATOM     21  N   UNL     1       0.220  12.702  21.762  0.00  0.00    +0.000 NA
ATOM     22  N   UNL     1      -1.044  12.294  21.397  0.00  0.00    +0.000 NA
ATOM     23  C   UNL     1      -0.928  11.571  20.306  0.00  0.00    +0.000 A 
ENDBRANCH  18  19
ENDBRANCH  11  18
ENDBRANCH   1  15
BRANCH   8  24
ATOM     24  C   UNL     1       0.986   3.135  20.189  0.00  0.00    +0.000 C 
ATOM     25  F   UNL     1       0.322   4.281  20.494  0.00  0.00    +0.000 F 
ATOM     26  F   UNL     1       0.169   2.446  19.349  0.00  0.00    +0.000 F 
ATOM     27  F   UNL     1       1.021   2.415  21.347  0.00  0.00    +0.000 F 
ENDBRANCH   8  24
TORSDOF 4
ENDMDL
MODEL 9
REMARK VINA RESULT:      -7.9      4.996      7.484
REMARK  Name = 
REMARK  5 active torsions:
REMARK  status: ('A' for Active; 'I' for Inactive)
REMARK    1  A    between atoms: C_1  and  C_2
REMARK    2  A    between atoms: C_2  and  C_3
REMARK    3  A    between atoms: C_2  and  N_23
REMARK    4  A    between atoms: C_7  and  N_8
REMARK    5  A    between atoms: C_15  and  C_16
REMARK                            x       y       z     vdW  Elec       q    Type
REMARK                         _______ _______ _______ _____ _____    ______ ____
ROOT
ATOM      1  N   UNL     1      -1.245  12.201  18.958  0.00  0.00    +0.000 N 
ATOM      2  C   UNL     1      -0.036  11.512  19.460  0.00  0.00    +0.000 C 
ATOM      3  C   UNL     1      -0.387  11.280  20.898  0.00  0.00    +0.000 A 
ATOM      4  C   UNL     1      -1.269  12.294  21.281  0.00  0.00    +0.000 A 
ATOM      5  C   UNL     1      -1.905  12.320  22.503  0.00  0.00    +0.000 A 
ATOM      6  C   UNL     1      -1.647  11.267  23.374  0.00  0.00    +0.000 A 
ATOM      7  C   UNL     1      -0.787  10.216  22.994  0.00  0.00    +0.000 A 
ATOM      8  C   UNL     1      -0.139  10.201  21.741  0.00  0.00    +0.000 A 
ATOM      9  C   UNL     1      -1.715  12.986  20.038  0.00  0.00    +0.000 C 
ATOM     10  O   UNL     1      -2.498  13.919  20.027  0.00  0.00    +0.000 OA
ENDROOT
BRANCH   1  15
ATOM     11  C   UNL     1      -4.505  11.074  17.683  0.00  0.00    +0.000 A 
ATOM     12  C   UNL     1      -4.058  10.403  16.533  0.00  0.00    +0.000 A 
ATOM     13  C   UNL     1      -2.727  10.016  16.406  0.00  0.00    +0.000 A 
ATOM     14  C   UNL     1      -1.801  10.386  17.375  0.00  0.00    +0.000 A 
ATOM     15  C   UNL     1      -2.190  11.239  18.417  0.00  0.00    +0.000 A 
ATOM     16  C   UNL     1      -3.554  11.468  18.638  0.00  0.00    +0.000 A 
BRANCH  11  18
ATOM     17  C   UNL     1      -6.181  12.954  17.565  0.00  0.00    +0.000 C 
ATOM     18  C   UNL     1      -5.970  11.453  17.803  0.00  0.00    +0.000 C 
BRANCH  18  19
ATOM     19  N   UNL     1      -6.542  10.961  19.047  0.00  0.00    +0.000 N 
ATOM     20  C   UNL     1      -6.856   9.662  19.311  0.00  0.00    +0.000 A 
ATOM     21  N   UNL     1      -7.360   9.572  20.520  0.00  0.00    +0.000 NA
ATOM     22  N   UNL     1      -7.360  10.836  21.067  0.00  0.00    +0.000 NA
ATOM     23  C   UNL     1      -6.861  11.656  20.171  0.00  0.00    +0.000 A 
ENDBRANCH  18  19
ENDBRANCH  11  18
ENDBRANCH   1  15
BRANCH   8  24
ATOM     24  C   UNL     1       0.667   8.990  21.341  0.00  0.00    +0.000 C 
ATOM     25  F   UNL     1       1.242   9.078  20.112  0.00  0.00    +0.000 F 
ATOM     26  F   UNL     1       1.683   8.732  22.207  0.00  0.00    +0.000 F 
ATOM     27  F   UNL     1      -0.090   7.854  21.309  0.00  0.00    +0.000 F 
ENDBRANCH   8  24
TORSDOF 4
ENDMDL
