MODEL 1
REMARK VINA RESULT:      -8.7      0.000      0.000
REMARK  Name = 
REMARK  6 active torsions:
REMARK  status: ('A' for Active; 'I' for Inactive)
REMARK    1  A    between atoms: C_1  and  N_2
REMARK    2  A    between atoms: C_6  and  C_7
REMARK    3  A    between atoms: C_7  and  C_8
REMARK    4  A    between atoms: C_8  and  C_9
REMARK    5  A    between atoms: C_15  and  N_16
REMARK    6  A    between atoms: C_23  and  C_24
REMARK                            x       y       z     vdW  Elec       q    Type
REMARK                         _______ _______ _______ _____ _____    ______ ____
ROOT
ATOM      1  C   UNL     1       2.254   4.512  19.950  0.00  0.00    +0.000 A 
ATOM      2  C   UNL     1       1.418   4.064  20.990  0.00  0.00    +0.000 A 
ATOM      3  C   UNL     1       1.698   2.886  21.676  0.00  0.00    +0.000 A 
ATOM      4  F   UNL     1       0.883   2.491  22.663  0.00  0.00    +0.000 F 
ATOM      5  C   UNL     1       2.802   2.115  21.352  0.00  0.00    +0.000 A 
ATOM      6  C   UNL     1       3.647   2.538  20.330  0.00  0.00    +0.000 A 
ATOM      7  C   UNL     1       3.378   3.718  19.611  0.00  0.00    +0.000 A 
ENDROOT
BRANCH   7   8
ATOM      8  N   UNL     1       4.260   4.058  18.567  0.00  0.00    +0.000 N 
ATOM      9  C   UNL     1       5.178   5.182  18.671  0.00  0.00    +0.000 C 
ATOM     10  C   UNL     1       5.878   5.166  17.345  0.00  0.00    +0.000 A 
ATOM     11  C   UNL     1       5.393   4.105  16.579  0.00  0.00    +0.000 A 
ATOM     12  C   UNL     1       5.870   3.807  15.315  0.00  0.00    +0.000 A 
ATOM     13  C   UNL     1       6.871   4.626  14.798  0.00  0.00    +0.000 A 
ATOM     14  C   UNL     1       7.361   5.711  15.547  0.00  0.00    +0.000 A 
ATOM     15  C   UNL     1       6.869   6.003  16.838  0.00  0.00    +0.000 A 
ATOM     16  C   UNL     1       4.353   3.404  17.345  0.00  0.00    +0.000 C 
ATOM     17  O   UNL     1       3.768   2.424  16.930  0.00  0.00    +0.000 OA
BRANCH  15  18
ATOM     18  C   UNL     1       7.424   7.179  17.598  0.00  0.00    +0.000 C 
ATOM     19  F   UNL     1       8.032   6.839  18.768  0.00  0.00    +0.000 F 
ATOM     20  F   UNL     1       8.359   7.861  16.880  0.00  0.00    +0.000 F 
ATOM     21  F   UNL     1       6.465   8.087  17.923  0.00  0.00    +0.000 F 
ENDBRANCH  15  18
ENDBRANCH   7   8
BRANCH   1  22
ATOM     22  C   UNL     1       1.949   5.813  19.223  0.00  0.00    +0.000 C 
BRANCH  22  23
ATOM     23  C   UNL     1       2.159   7.138  19.976  0.00  0.00    +0.000 C 
BRANCH  23  29
ATOM     24  C   UNL     1       0.295   9.548  20.617  0.00  0.00    +0.000 C 
ATOM     25  N   UNL     1       1.105   9.387  19.438  0.00  0.00    +0.000 N 
ATOM     26  C   UNL     1       1.171  10.257  18.394  0.00  0.00    +0.000 A 
ATOM     27  N   UNL     1       1.985   9.780  17.481  0.00  0.00    +0.000 NA
ATOM     28  N   UNL     1       2.459   8.574  17.935  0.00  0.00    +0.000 NA
ATOM     29  C   UNL     1       1.937   8.343  19.125  0.00  0.00    +0.000 A 
ENDBRANCH  23  29
ENDBRANCH  22  23
ENDBRANCH   1  22
TORSDOF 5
ENDMDL
MODEL 2
REMARK VINA RESULT:      -8.6      3.135      6.925
REMARK  Name = 
REMARK  6 active torsions:
REMARK  status: ('A' for Active; 'I' for Inactive)
REMARK    1  A    between atoms: C_1  and  N_2
REMARK    2  A    between atoms: C_6  and  C_7
REMARK    3  A    between atoms: C_7  and  C_8
REMARK    4  A    between atoms: C_8  and  C_9
REMARK    5  A    between atoms: C_15  and  N_16
REMARK    6  A    between atoms: C_23  and  C_24
REMARK                            x       y       z     vdW  Elec       q    Type
REMARK                         _______ _______ _______ _____ _____    ______ ____
ROOT
ATOM      1  C   UNL     1       3.043   4.879  17.404  0.00  0.00    +0.000 A 
ATOM      2  C   UNL     1       3.906   4.147  16.566  0.00  0.00    +0.000 A 
ATOM      3  C   UNL     1       5.175   4.626  16.253  0.00  0.00    +0.000 A 
ATOM      4  F   UNL     1       5.973   3.902  15.456  0.00  0.00    +0.000 F 
ATOM      5  C   UNL     1       5.624   5.839  16.748  0.00  0.00    +0.000 A 
ATOM      6  C   UNL     1       4.790   6.580  17.582  0.00  0.00    +0.000 A 
ATOM      7  C   UNL     1       3.498   6.125  17.901  0.00  0.00    +0.000 A 
ENDROOT
BRANCH   7   8
ATOM      8  N   UNL     1       2.702   6.950  18.721  0.00  0.00    +0.000 N 
ATOM      9  C   UNL     1       2.112   8.184  18.228  0.00  0.00    +0.000 C 
ATOM     10  C   UNL     1       1.391   8.715  19.431  0.00  0.00    +0.000 A 
ATOM     11  C   UNL     1       1.559   7.830  20.497  0.00  0.00    +0.000 A 
ATOM     12  C   UNL     1       0.983   8.028  21.739  0.00  0.00    +0.000 A 
ATOM     13  C   UNL     1       0.213   9.175  21.914  0.00  0.00    +0.000 A 
ATOM     14  C   UNL     1       0.046  10.088  20.857  0.00  0.00    +0.000 A 
ATOM     15  C   UNL     1       0.637   9.874  19.592  0.00  0.00    +0.000 A 
ATOM     16  C   UNL     1       2.404   6.712  20.057  0.00  0.00    +0.000 C 
ATOM     17  O   UNL     1       2.701   5.778  20.776  0.00  0.00    +0.000 OA
BRANCH  15  18
ATOM     18  C   UNL     1       0.430  10.884  18.494  0.00  0.00    +0.000 C 
ATOM     19  F   UNL     1      -0.255  11.992  18.888  0.00  0.00    +0.000 F 
ATOM     20  F   UNL     1       1.609  11.339  17.985  0.00  0.00    +0.000 F 
ATOM     21  F   UNL     1      -0.260  10.371  17.440  0.00  0.00    +0.000 F 
ENDBRANCH  15  18
ENDBRANCH   7   8
BRANCH   1  22
ATOM     22  C   UNL     1       1.668   4.333  17.756  0.00  0.00    +0.000 C 
BRANCH  22  23
ATOM     23  C   UNL     1       1.564   2.887  18.271  0.00  0.00    +0.000 C 
BRANCH  23  29
ATOM     24  C   UNL     1       4.258   2.210  19.678  0.00  0.00    +0.000 C 
ATOM     25  N   UNL     1       2.998   2.463  20.326  0.00  0.00    +0.000 N 
ATOM     26  C   UNL     1       2.772   2.425  21.667  0.00  0.00    +0.000 A 
ATOM     27  N   UNL     1       1.506   2.676  21.903  0.00  0.00    +0.000 NA
ATOM     28  N   UNL     1       0.890   2.880  20.693  0.00  0.00    +0.000 NA
ATOM     29  C   UNL     1       1.796   2.765  19.741  0.00  0.00    +0.000 A 
ENDBRANCH  23  29
ENDBRANCH  22  23
ENDBRANCH   1  22
TORSDOF 5
ENDMDL
MODEL 3
REMARK VINA RESULT:      -8.6      0.644      1.436
REMARK  Name = 
REMARK  6 active torsions:
REMARK  status: ('A' for Active; 'I' for Inactive)
REMARK    1  A    between atoms: C_1  and  N_2
REMARK    2  A    between atoms: C_6  and  C_7
REMARK    3  A    between atoms: C_7  and  C_8
REMARK    4  A    between atoms: C_8  and  C_9
REMARK    5  A    between atoms: C_15  and  N_16
REMARK    6  A    between atoms: C_23  and  C_24
REMARK                            x       y       z     vdW  Elec       q    Type
REMARK                         _______ _______ _______ _____ _____    ______ ____
ROOT
ATOM      1  C   UNL     1       2.183   4.514  19.826  0.00  0.00    +0.000 A 
ATOM      2  C   UNL     1       1.343   4.086  20.871  0.00  0.00    +0.000 A 
ATOM      3  C   UNL     1       1.666   2.970  21.637  0.00  0.00    +0.000 A 
ATOM      4  F   UNL     1       0.846   2.592  22.627  0.00  0.00    +0.000 F 
ATOM      5  C   UNL     1       2.819   2.243  21.391  0.00  0.00    +0.000 A 
ATOM      6  C   UNL     1       3.669   2.648  20.365  0.00  0.00    +0.000 A 
ATOM      7  C   UNL     1       3.357   3.764  19.567  0.00  0.00    +0.000 A 
ENDROOT
BRANCH   7   8
ATOM      8  N   UNL     1       4.249   4.088  18.525  0.00  0.00    +0.000 N 
ATOM      9  C   UNL     1       5.182   5.199  18.629  0.00  0.00    +0.000 C 
ATOM     10  C   UNL     1       5.888   5.168  17.307  0.00  0.00    +0.000 A 
ATOM     11  C   UNL     1       5.393   4.110  16.543  0.00  0.00    +0.000 A 
ATOM     12  C   UNL     1       5.871   3.800  15.283  0.00  0.00    +0.000 A 
ATOM     13  C   UNL     1       6.887   4.602  14.767  0.00  0.00    +0.000 A 
ATOM     14  C   UNL     1       7.388   5.684  15.514  0.00  0.00    +0.000 A 
ATOM     15  C   UNL     1       6.893   5.989  16.801  0.00  0.00    +0.000 A 
ATOM     16  C   UNL     1       4.339   3.427  17.306  0.00  0.00    +0.000 C 
ATOM     17  O   UNL     1       3.742   2.453  16.893  0.00  0.00    +0.000 OA
BRANCH  15  18
ATOM     18  C   UNL     1       7.461   7.160  17.559  0.00  0.00    +0.000 C 
ATOM     19  F   UNL     1       8.388   7.869  16.859  0.00  0.00    +0.000 F 
ATOM     20  F   UNL     1       6.500   8.057  17.915  0.00  0.00    +0.000 F 
ATOM     21  F   UNL     1       8.071   6.784  18.715  0.00  0.00    +0.000 F 
ENDBRANCH  15  18
ENDBRANCH   7   8
BRANCH   1  22
ATOM     22  C   UNL     1       1.829   5.749  19.011  0.00  0.00    +0.000 C 
BRANCH  22  23
ATOM     23  C   UNL     1       2.530   7.075  19.350  0.00  0.00    +0.000 C 
BRANCH  23  29
ATOM     24  C   UNL     1       1.452   9.708  18.085  0.00  0.00    +0.000 C 
ATOM     25  N   UNL     1       1.174   9.224  19.411  0.00  0.00    +0.000 N 
ATOM     26  C   UNL     1       0.408   9.853  20.343  0.00  0.00    +0.000 A 
ATOM     27  N   UNL     1       0.394   9.143  21.447  0.00  0.00    +0.000 NA
ATOM     28  N   UNL     1       1.169   8.029  21.234  0.00  0.00    +0.000 NA
ATOM     29  C   UNL     1       1.628   8.071  19.999  0.00  0.00    +0.000 A 
ENDBRANCH  23  29
ENDBRANCH  22  23
ENDBRANCH   1  22
TORSDOF 5
ENDMDL
MODEL 4
REMARK VINA RESULT:      -8.4      3.361      6.545
REMARK  Name = 
REMARK  6 active torsions:
REMARK  status: ('A' for Active; 'I' for Inactive)
REMARK    1  A    between atoms: C_1  and  N_2
REMARK    2  A    between atoms: C_6  and  C_7
REMARK    3  A    between atoms: C_7  and  C_8
REMARK    4  A    between atoms: C_8  and  C_9
REMARK    5  A    between atoms: C_15  and  N_16
REMARK    6  A    between atoms: C_23  and  C_24
REMARK                            x       y       z     vdW  Elec       q    Type
REMARK                         _______ _______ _______ _____ _____    ______ ____
ROOT
ATOM      1  C   UNL     1       4.020   4.983  18.630  0.00  0.00    +0.000 A 
ATOM      2  C   UNL     1       4.280   3.623  18.378  0.00  0.00    +0.000 A 
ATOM      3  C   UNL     1       3.264   2.764  17.971  0.00  0.00    +0.000 A 
ATOM      4  F   UNL     1       3.547   1.475  17.735  0.00  0.00    +0.000 F 
ATOM      5  C   UNL     1       1.965   3.217  17.810  0.00  0.00    +0.000 A 
ATOM      6  C   UNL     1       1.683   4.560  18.050  0.00  0.00    +0.000 A 
ATOM      7  C   UNL     1       2.690   5.445  18.476  0.00  0.00    +0.000 A 
ENDROOT
BRANCH   7   8
ATOM      8  N   UNL     1       2.316   6.779  18.734  0.00  0.00    +0.000 N 
ATOM      9  C   UNL     1       1.727   7.183  20.001  0.00  0.00    +0.000 C 
ATOM     10  C   UNL     1       1.484   8.649  19.806  0.00  0.00    +0.000 A 
ATOM     11  C   UNL     1       1.921   9.025  18.534  0.00  0.00    +0.000 A 
ATOM     12  C   UNL     1       1.861  10.326  18.070  0.00  0.00    +0.000 A 
ATOM     13  C   UNL     1       1.324  11.288  18.923  0.00  0.00    +0.000 A 
ATOM     14  C   UNL     1       0.861  10.926  20.202  0.00  0.00    +0.000 A 
ATOM     15  C   UNL     1       0.931   9.594  20.666  0.00  0.00    +0.000 A 
ATOM     16  C   UNL     1       2.439   7.837  17.841  0.00  0.00    +0.000 C 
ATOM     17  O   UNL     1       2.905   7.871  16.720  0.00  0.00    +0.000 OA
BRANCH  15  18
ATOM     18  C   UNL     1       0.419   9.258  22.042  0.00  0.00    +0.000 C 
ATOM     19  F   UNL     1       1.375   8.769  22.879  0.00  0.00    +0.000 F 
ATOM     20  F   UNL     1      -0.107  10.344  22.675  0.00  0.00    +0.000 F 
ATOM     21  F   UNL     1      -0.570   8.325  22.015  0.00  0.00    +0.000 F 
ENDBRANCH  15  18
ENDBRANCH   7   8
BRANCH   1  22
ATOM     22  C   UNL     1       5.145   5.916  19.053  0.00  0.00    +0.000 C 
BRANCH  22  23
ATOM     23  C   UNL     1       5.826   6.776  17.974  0.00  0.00    +0.000 C 
BRANCH  23  29
ATOM     24  C   UNL     1       7.865   4.447  17.637  0.00  0.00    +0.000 C 
ATOM     25  N   UNL     1       7.029   5.004  16.606  0.00  0.00    +0.000 N 
ATOM     26  C   UNL     1       7.010   4.615  15.303  0.00  0.00    +0.000 A 
ATOM     27  N   UNL     1       6.152   5.356  14.640  0.00  0.00    +0.000 NA
ATOM     28  N   UNL     1       5.601   6.247  15.527  0.00  0.00    +0.000 NA
ATOM     29  C   UNL     1       6.121   6.025  16.719  0.00  0.00    +0.000 A 
ENDBRANCH  23  29
ENDBRANCH  22  23
ENDBRANCH   1  22
TORSDOF 5
ENDMDL
MODEL 5
REMARK VINA RESULT:      -8.2      3.355      6.589
REMARK  Name = 
REMARK  6 active torsions:
REMARK  status: ('A' for Active; 'I' for Inactive)
REMARK    1  A    between atoms: C_1  and  N_2
REMARK    2  A    between atoms: C_6  and  C_7
REMARK    3  A    between atoms: C_7  and  C_8
REMARK    4  A    between atoms: C_8  and  C_9
REMARK    5  A    between atoms: C_15  and  N_16
REMARK    6  A    between atoms: C_23  and  C_24
REMARK                            x       y       z     vdW  Elec       q    Type
REMARK                         _______ _______ _______ _____ _____    ______ ____
ROOT
ATOM      1  C   UNL     1       3.961   4.898  18.831  0.00  0.00    +0.000 A 
ATOM      2  C   UNL     1       4.212   3.533  18.596  0.00  0.00    +0.000 A 
ATOM      3  C   UNL     1       3.210   2.693  18.119  0.00  0.00    +0.000 A 
ATOM      4  F   UNL     1       3.485   1.399  17.902  0.00  0.00    +0.000 F 
ATOM      5  C   UNL     1       1.935   3.171  17.868  0.00  0.00    +0.000 A 
ATOM      6  C   UNL     1       1.662   4.518  18.089  0.00  0.00    +0.000 A 
ATOM      7  C   UNL     1       2.654   5.385  18.585  0.00  0.00    +0.000 A 
ENDROOT
BRANCH   7   8
ATOM      8  N   UNL     1       2.288   6.726  18.817  0.00  0.00    +0.000 N 
ATOM      9  C   UNL     1       1.679   7.152  20.067  0.00  0.00    +0.000 C 
ATOM     10  C   UNL     1       1.453   8.618  19.847  0.00  0.00    +0.000 A 
ATOM     11  C   UNL     1       1.919   8.972  18.579  0.00  0.00    +0.000 A 
ATOM     12  C   UNL     1       1.881  10.267  18.096  0.00  0.00    +0.000 A 
ATOM     13  C   UNL     1       1.338  11.246  18.926  0.00  0.00    +0.000 A 
ATOM     14  C   UNL     1       0.846  10.906  20.199  0.00  0.00    +0.000 A 
ATOM     15  C   UNL     1       0.894   9.580  20.683  0.00  0.00    +0.000 A 
ATOM     16  C   UNL     1       2.438   7.770  17.912  0.00  0.00    +0.000 C 
ATOM     17  O   UNL     1       2.927   7.784  16.800  0.00  0.00    +0.000 OA
BRANCH  15  18
ATOM     18  C   UNL     1       0.352   9.268  22.053  0.00  0.00    +0.000 C 
ATOM     19  F   UNL     1      -0.204  10.341  22.681  0.00  0.00    +0.000 F 
ATOM     20  F   UNL     1      -0.621   8.315  22.017  0.00  0.00    +0.000 F 
ATOM     21  F   UNL     1       1.310   8.795  22.895  0.00  0.00    +0.000 F 
ENDBRANCH  15  18
ENDBRANCH   7   8
BRANCH   1  22
ATOM     22  C   UNL     1       5.071   5.810  19.331  0.00  0.00    +0.000 C 
BRANCH  22  23
ATOM     23  C   UNL     1       5.926   6.558  18.294  0.00  0.00    +0.000 C 
BRANCH  23  29
ATOM     24  C   UNL     1       5.209   6.044  15.308  0.00  0.00    +0.000 C 
ATOM     25  N   UNL     1       6.294   5.445  16.040  0.00  0.00    +0.000 N 
ATOM     26  C   UNL     1       7.177   4.534  15.548  0.00  0.00    +0.000 A 
ATOM     27  N   UNL     1       8.014   4.182  16.496  0.00  0.00    +0.000 NA
ATOM     28  N   UNL     1       7.671   4.875  17.631  0.00  0.00    +0.000 NA
ATOM     29  C   UNL     1       6.640   5.649  17.350  0.00  0.00    +0.000 A 
ENDBRANCH  23  29
ENDBRANCH  22  23
ENDBRANCH   1  22
TORSDOF 5
ENDMDL
MODEL 6
REMARK VINA RESULT:      -8.1      2.849      6.800
REMARK  Name = 
REMARK  6 active torsions:
REMARK  status: ('A' for Active; 'I' for Inactive)
REMARK    1  A    between atoms: C_1  and  N_2
REMARK    2  A    between atoms: C_6  and  C_7
REMARK    3  A    between atoms: C_7  and  C_8
REMARK    4  A    between atoms: C_8  and  C_9
REMARK    5  A    between atoms: C_15  and  N_16
REMARK    6  A    between atoms: C_23  and  C_24
REMARK                            x       y       z     vdW  Elec       q    Type
REMARK                         _______ _______ _______ _____ _____    ______ ____
ROOT
ATOM      1  C   UNL     1       3.984   4.773  16.951  0.00  0.00    +0.000 A 
ATOM      2  C   UNL     1       4.952   4.191  16.110  0.00  0.00    +0.000 A 
ATOM      3  C   UNL     1       6.154   4.840  15.847  0.00  0.00    +0.000 A 
ATOM      4  F   UNL     1       7.055   4.255  15.046  0.00  0.00    +0.000 F 
ATOM      5  C   UNL     1       6.433   6.080  16.397  0.00  0.00    +0.000 A 
ATOM      6  C   UNL     1       5.494   6.676  17.235  0.00  0.00    +0.000 A 
ATOM      7  C   UNL     1       4.264   6.047  17.505  0.00  0.00    +0.000 A 
ENDROOT
BRANCH   7   8
ATOM      8  N   UNL     1       3.352   6.731  18.333  0.00  0.00    +0.000 N 
ATOM      9  C   UNL     1       2.643   7.918  17.880  0.00  0.00    +0.000 C 
ATOM     10  C   UNL     1       1.826   8.296  19.078  0.00  0.00    +0.000 A 
ATOM     11  C   UNL     1       2.056   7.378  20.104  0.00  0.00    +0.000 A 
ATOM     12  C   UNL     1       1.418   7.440  21.330  0.00  0.00    +0.000 A 
ATOM     13  C   UNL     1       0.517   8.484  21.532  0.00  0.00    +0.000 A 
ATOM     14  C   UNL     1       0.285   9.430  20.517  0.00  0.00    +0.000 A 
ATOM     15  C   UNL     1       0.940   9.354  19.269  0.00  0.00    +0.000 A 
ATOM     16  C   UNL     1       3.037   6.387  19.642  0.00  0.00    +0.000 C 
ATOM     17  O   UNL     1       3.413   5.454  20.323  0.00  0.00    +0.000 OA
BRANCH  15  18
ATOM     18  C   UNL     1       0.658  10.394  18.216  0.00  0.00    +0.000 C 
ATOM     19  F   UNL     1      -0.169   9.962  17.225  0.00  0.00    +0.000 F 
ATOM     20  F   UNL     1       0.065  11.505  18.736  0.00  0.00    +0.000 F 
ATOM     21  F   UNL     1       1.790  10.827  17.599  0.00  0.00    +0.000 F 
ENDBRANCH  15  18
ENDBRANCH   7   8
BRANCH   1  22
ATOM     22  C   UNL     1       2.683   4.043  17.248  0.00  0.00    +0.000 C 
BRANCH  22  23
ATOM     23  C   UNL     1       2.755   2.577  17.708  0.00  0.00    +0.000 C 
BRANCH  23  29
ATOM     24  C   UNL     1       0.745   3.004  20.047  0.00  0.00    +0.000 C 
ATOM     25  N   UNL     1       2.128   2.627  20.170  0.00  0.00    +0.000 N 
ATOM     26  C   UNL     1       2.793   2.416  21.338  0.00  0.00    +0.000 A 
ATOM     27  N   UNL     1       4.045   2.116  21.079  0.00  0.00    +0.000 NA
ATOM     28  N   UNL     1       4.202   2.133  19.715  0.00  0.00    +0.000 NA
ATOM     29  C   UNL     1       3.040   2.428  19.166  0.00  0.00    +0.000 A 
ENDBRANCH  23  29
ENDBRANCH  22  23
ENDBRANCH   1  22
TORSDOF 5
ENDMDL
MODEL 7
REMARK VINA RESULT:      -8.0      0.522      1.103
REMARK  Name = 
REMARK  6 active torsions:
REMARK  status: ('A' for Active; 'I' for Inactive)
REMARK    1  A    between atoms: C_1  and  N_2
REMARK    2  A    between atoms: C_6  and  C_7
REMARK    3  A    between atoms: C_7  and  C_8
REMARK    4  A    between atoms: C_8  and  C_9
REMARK    5  A    between atoms: C_15  and  N_16
REMARK    6  A    between atoms: C_23  and  C_24
REMARK                            x       y       z     vdW  Elec       q    Type
REMARK                         _______ _______ _______ _____ _____    ______ ____
ROOT
ATOM      1  C   UNL     1       2.286   4.533  20.045  0.00  0.00    +0.000 A 
ATOM      2  C   UNL     1       1.462   4.078  21.092  0.00  0.00    +0.000 A 
ATOM      3  C   UNL     1       1.731   2.878  21.743  0.00  0.00    +0.000 A 
ATOM      4  F   UNL     1       0.928   2.477  22.738  0.00  0.00    +0.000 F 
ATOM      5  C   UNL     1       2.811   2.092  21.378  0.00  0.00    +0.000 A 
ATOM      6  C   UNL     1       3.644   2.522  20.348  0.00  0.00    +0.000 A 
ATOM      7  C   UNL     1       3.385   3.724  19.664  0.00  0.00    +0.000 A 
ENDROOT
BRANCH   7   8
ATOM      8  N   UNL     1       4.253   4.071  18.609  0.00  0.00    +0.000 N 
ATOM      9  C   UNL     1       5.184   5.183  18.713  0.00  0.00    +0.000 C 
ATOM     10  C   UNL     1       5.861   5.180  17.376  0.00  0.00    +0.000 A 
ATOM     11  C   UNL     1       5.352   4.135  16.603  0.00  0.00    +0.000 A 
ATOM     12  C   UNL     1       5.803   3.851  15.327  0.00  0.00    +0.000 A 
ATOM     13  C   UNL     1       6.804   4.667  14.804  0.00  0.00    +0.000 A 
ATOM     14  C   UNL     1       7.318   5.736  15.560  0.00  0.00    +0.000 A 
ATOM     15  C   UNL     1       6.851   6.014  16.863  0.00  0.00    +0.000 A 
ATOM     16  C   UNL     1       4.318   3.434  17.376  0.00  0.00    +0.000 C 
ATOM     17  O   UNL     1       3.715   2.465  16.958  0.00  0.00    +0.000 OA
BRANCH  15  18
ATOM     18  C   UNL     1       7.432   7.173  17.630  0.00  0.00    +0.000 C 
ATOM     19  F   UNL     1       8.052   6.811  18.787  0.00  0.00    +0.000 F 
ATOM     20  F   UNL     1       8.365   7.853  16.907  0.00  0.00    +0.000 F 
ATOM     21  F   UNL     1       6.489   8.089  17.981  0.00  0.00    +0.000 F 
ENDBRANCH  15  18
ENDBRANCH   7   8
BRANCH   1  22
ATOM     22  C   UNL     1       1.995   5.858  19.356  0.00  0.00    +0.000 C 
BRANCH  22  23
ATOM     23  C   UNL     1       2.094   7.151  20.184  0.00  0.00    +0.000 C 
BRANCH  23  29
ATOM     24  C   UNL     1       3.258   8.006  17.426  0.00  0.00    +0.000 C 
ATOM     25  N   UNL     1       2.278   8.723  18.196  0.00  0.00    +0.000 N 
ATOM     26  C   UNL     1       1.711   9.912  17.853  0.00  0.00    +0.000 A 
ATOM     27  N   UNL     1       0.883  10.290  18.799  0.00  0.00    +0.000 NA
ATOM     28  N   UNL     1       0.909   9.330  19.781  0.00  0.00    +0.000 NA
ATOM     29  C   UNL     1       1.742   8.377  19.410  0.00  0.00    +0.000 A 
ENDBRANCH  23  29
ENDBRANCH  22  23
ENDBRANCH   1  22
TORSDOF 5
ENDMDL
MODEL 8
REMARK VINA RESULT:      -8.0      3.322      6.382
REMARK  Name = 
REMARK  6 active torsions:
REMARK  status: ('A' for Active; 'I' for Inactive)
REMARK    1  A    between atoms: C_1  and  N_2
REMARK    2  A    between atoms: C_6  and  C_7
REMARK    3  A    between atoms: C_7  and  C_8
REMARK    4  A    between atoms: C_8  and  C_9
REMARK    5  A    between atoms: C_15  and  N_16
REMARK    6  A    between atoms: C_23  and  C_24
REMARK                            x       y       z     vdW  Elec       q    Type
REMARK                         _______ _______ _______ _____ _____    ______ ____
ROOT
ATOM      1  C   UNL     1       3.928   4.547  19.195  0.00  0.00    +0.000 A 
ATOM      2  C   UNL     1       4.153   3.159  19.120  0.00  0.00    +0.000 A 
ATOM      3  C   UNL     1       3.108   2.279  18.852  0.00  0.00    +0.000 A 
ATOM      4  F   UNL     1       3.359   0.964  18.783  0.00  0.00    +0.000 F 
ATOM      5  C   UNL     1       1.817   2.739  18.659  0.00  0.00    +0.000 A 
ATOM      6  C   UNL     1       1.568   4.107  18.725  0.00  0.00    +0.000 A 
ATOM      7  C   UNL     1       2.604   5.016  19.009  0.00  0.00    +0.000 A 
ENDROOT
BRANCH   7   8
ATOM      8  N   UNL     1       2.265   6.382  19.095  0.00  0.00    +0.000 N 
ATOM      9  C   UNL     1       1.592   6.935  20.259  0.00  0.00    +0.000 C 
ATOM     10  C   UNL     1       1.425   8.380  19.895  0.00  0.00    +0.000 A 
ATOM     11  C   UNL     1       1.980   8.605  18.634  0.00  0.00    +0.000 A 
ATOM     12  C   UNL     1       2.011   9.851  18.035  0.00  0.00    +0.000 A 
ATOM     13  C   UNL     1       1.446  10.914  18.736  0.00  0.00    +0.000 A 
ATOM     14  C   UNL     1       0.865  10.705  20.000  0.00  0.00    +0.000 A 
ATOM     15  C   UNL     1       0.843   9.428  20.603  0.00  0.00    +0.000 A 
ATOM     16  C   UNL     1       2.503   7.335  18.113  0.00  0.00    +0.000 C 
ATOM     17  O   UNL     1       3.062   7.235  17.038  0.00  0.00    +0.000 OA
BRANCH  15  18
ATOM     18  C   UNL     1       0.206   9.256  21.957  0.00  0.00    +0.000 C 
ATOM     19  F   UNL     1      -0.742   8.280  21.998  0.00  0.00    +0.000 F 
ATOM     20  F   UNL     1       1.117   8.928  22.916  0.00  0.00    +0.000 F 
ATOM     21  F   UNL     1      -0.404  10.391  22.392  0.00  0.00    +0.000 F 
ENDBRANCH  15  18
ENDBRANCH   7   8
BRANCH   1  22
ATOM     22  C   UNL     1       5.082   5.500  19.466  0.00  0.00    +0.000 C 
BRANCH  22  23
ATOM     23  C   UNL     1       6.503   5.056  19.080  0.00  0.00    +0.000 C 
BRANCH  23  29
ATOM     24  C   UNL     1       7.492   7.503  17.427  0.00  0.00    +0.000 C 
ATOM     25  N   UNL     1       7.189   6.194  16.913  0.00  0.00    +0.000 N 
ATOM     26  C   UNL     1       7.265   5.815  15.608  0.00  0.00    +0.000 A 
ATOM     27  N   UNL     1       6.889   4.562  15.496  0.00  0.00    +0.000 NA
ATOM     28  N   UNL     1       6.560   4.113  16.751  0.00  0.00    +0.000 NA
ATOM     29  C   UNL     1       6.755   5.095  17.609  0.00  0.00    +0.000 A 
ENDBRANCH  23  29
ENDBRANCH  22  23
ENDBRANCH   1  22
TORSDOF 5
ENDMDL
MODEL 9
REMARK VINA RESULT:      -8.0      3.294      6.271
REMARK  Name = 
REMARK  6 active torsions:
REMARK  status: ('A' for Active; 'I' for Inactive)
REMARK    1  A    between atoms: C_1  and  N_2
REMARK    2  A    between atoms: C_6  and  C_7
REMARK    3  A    between atoms: C_7  and  C_8
REMARK    4  A    between atoms: C_8  and  C_9
REMARK    5  A    between atoms: C_15  and  N_16
REMARK    6  A    between atoms: C_23  and  C_24
REMARK                            x       y       z     vdW  Elec       q    Type
REMARK                         _______ _______ _______ _____ _____    ______ ____
ROOT
ATOM      1  C   UNL     1       3.855   4.611  19.274  0.00  0.00    +0.000 A 
ATOM      2  C   UNL     1       4.079   3.223  19.205  0.00  0.00    +0.000 A 
ATOM      3  C   UNL     1       3.021   2.336  19.023  0.00  0.00    +0.000 A 
ATOM      4  F   UNL     1       3.270   1.021  18.958  0.00  0.00    +0.000 F 
ATOM      5  C   UNL     1       1.718   2.790  18.913  0.00  0.00    +0.000 A 
ATOM      6  C   UNL     1       1.471   4.159  18.974  0.00  0.00    +0.000 A 
ATOM      7  C   UNL     1       2.520   5.075  19.172  0.00  0.00    +0.000 A 
ENDROOT
BRANCH   7   8
ATOM      8  N   UNL     1       2.184   6.441  19.260  0.00  0.00    +0.000 N 
ATOM      9  C   UNL     1       1.615   7.017  20.468  0.00  0.00    +0.000 C 
ATOM     10  C   UNL     1       1.409   8.452  20.089  0.00  0.00    +0.000 A 
ATOM     11  C   UNL     1       1.847   8.653  18.779  0.00  0.00    +0.000 A 
ATOM     12  C   UNL     1       1.818   9.886  18.154  0.00  0.00    +0.000 A 
ATOM     13  C   UNL     1       1.313  10.962  18.881  0.00  0.00    +0.000 A 
ATOM     14  C   UNL     1       0.850  10.778  20.196  0.00  0.00    +0.000 A 
ATOM     15  C   UNL     1       0.887   9.514  20.825  0.00  0.00    +0.000 A 
ATOM     16  C   UNL     1       2.328   7.374  18.240  0.00  0.00    +0.000 C 
ATOM     17  O   UNL     1       2.788   7.253  17.122  0.00  0.00    +0.000 OA
BRANCH  15  18
ATOM     18  C   UNL     1       0.376   9.369  22.234  0.00  0.00    +0.000 C 
ATOM     19  F   UNL     1      -0.631   8.462  22.362  0.00  0.00    +0.000 F 
ATOM     20  F   UNL     1       1.350   8.964  23.096  0.00  0.00    +0.000 F 
ATOM     21  F   UNL     1      -0.106  10.538  22.735  0.00  0.00    +0.000 F 
ENDBRANCH  15  18
ENDBRANCH   7   8
BRANCH   1  22
ATOM     22  C   UNL     1       5.022   5.571  19.450  0.00  0.00    +0.000 C 
BRANCH  22  23
ATOM     23  C   UNL     1       6.234   5.429  18.513  0.00  0.00    +0.000 C 
BRANCH  23  29
ATOM     24  C   UNL     1       5.767   3.384  16.212  0.00  0.00    +0.000 C 
ATOM     25  N   UNL     1       5.723   4.818  16.100  0.00  0.00    +0.000 N 
ATOM     26  C   UNL     1       5.490   5.520  14.957  0.00  0.00    +0.000 A 
ATOM     27  N   UNL     1       5.551   6.806  15.215  0.00  0.00    +0.000 NA
ATOM     28  N   UNL     1       5.831   6.948  16.552  0.00  0.00    +0.000 NA
ATOM     29  C   UNL     1       5.921   5.746  17.089  0.00  0.00    +0.000 A 
ENDBRANCH  23  29
ENDBRANCH  22  23
ENDBRANCH   1  22
TORSDOF 5
ENDMDL
