MODEL 1
REMARK VINA RESULT:      -8.9      0.000      0.000
REMARK  Name = 
REMARK  3 active torsions:
REMARK  status: ('A' for Active; 'I' for Inactive)
REMARK    1  A    between atoms: C_5  and  C_6
REMARK    2  A    between atoms: C_9  and  C_10
REMARK    3  A    between atoms: C_16  and  C_17
REMARK                            x       y       z     vdW  Elec       q    Type
REMARK                         _______ _______ _______ _____ _____    ______ ____
ROOT
ATOM      1  C   UNL     1       3.179   2.525  19.092  0.00  0.00    +0.000 A 
ATOM      2  N   UNL     1       3.172   1.966  17.876  0.00  0.00    +0.000 NA
ATOM      3  O   UNL     1       4.167   2.687  17.193  0.00  0.00    +0.000 OA
ATOM      4  C   UNL     1       4.662   3.604  18.079  0.00  0.00    +0.000 A 
ATOM      5  N   UNL     1       4.101   3.522  19.261  0.00  0.00    +0.000 NA
ENDROOT
BRANCH   4   6
ATOM      6  C   UNL     1       5.674   4.544  17.645  0.00  0.00    +0.000 A 
ATOM      7  C   UNL     1       6.195   5.506  18.537  0.00  0.00    +0.000 A 
ATOM      8  C   UNL     1       7.153   6.434  18.126  0.00  0.00    +0.000 A 
ATOM      9  C   UNL     1       7.626   6.445  16.811  0.00  0.00    +0.000 A 
ATOM     10  C   UNL     1       7.095   5.491  15.942  0.00  0.00    +0.000 A 
ATOM     11  N   UNL     1       7.320   5.239  14.611  0.00  0.00    +0.000 N 
ATOM     12  C   UNL     1       6.526   4.188  14.230  0.00  0.00    +0.000 A 
ATOM     13  N   UNL     1       5.809   3.748  15.247  0.00  0.00    +0.000 NA
ATOM     14  C   UNL     1       6.141   4.547  16.320  0.00  0.00    +0.000 A 
ATOM     15  H   UNL     1       7.952   5.744  14.006  0.00  0.00    +0.000 HD
BRANCH  12  16
ATOM     16  C   UNL     1       6.532   3.682  12.833  0.00  0.00    +0.000 C 
ATOM     17  F   UNL     1       5.273   3.685  12.316  0.00  0.00    +0.000 F 
ATOM     18  F   UNL     1       7.261   4.506  12.030  0.00  0.00    +0.000 F 
ENDBRANCH  12  16
ENDBRANCH   4   6
BRANCH   1  23
ATOM     19  O   UNL     1       1.365   6.119  20.999  0.00  0.00    +0.000 OA
ATOM     20  C   UNL     1       1.472   4.904  20.847  0.00  0.00    +0.000 C 
ATOM     21  C   UNL     1       0.696   4.164  19.773  0.00  0.00    +0.000 C 
ATOM     22  C   UNL     1       0.788   2.641  19.847  0.00  0.00    +0.000 C 
ATOM     23  C   UNL     1       2.210   2.165  20.168  0.00  0.00    +0.000 C 
ATOM     24  C   UNL     1       2.601   2.769  21.521  0.00  0.00    +0.000 C 
ATOM     25  N   UNL     1       2.342   4.195  21.621  0.00  0.00    +0.000 N 
ATOM     26  H   UNL     1       2.872   4.754  22.279  0.00  0.00    +0.000 HD
ENDBRANCH   1  23
TORSDOF 3
ENDMDL
MODEL 2
REMARK VINA RESULT:      -8.9      2.672      3.618
REMARK  Name = 
REMARK  3 active torsions:
REMARK  status: ('A' for Active; 'I' for Inactive)
REMARK    1  A    between atoms: C_5  and  C_6
REMARK    2  A    between atoms: C_9  and  C_10
REMARK    3  A    between atoms: C_16  and  C_17
REMARK                            x       y       z     vdW  Elec       q    Type
REMARK                         _______ _______ _______ _____ _____    ______ ____
ROOT
ATOM      1  C   UNL     1       2.468   3.566  18.077  0.00  0.00    +0.000 A 
ATOM      2  N   UNL     1       2.936   2.314  18.018  0.00  0.00    +0.000 NA
ATOM      3  O   UNL     1       4.054   2.436  17.175  0.00  0.00    +0.000 OA
ATOM      4  C   UNL     1       4.133   3.755  16.819  0.00  0.00    +0.000 A 
ATOM      5  N   UNL     1       3.193   4.486  17.371  0.00  0.00    +0.000 NA
ENDROOT
BRANCH   4   6
ATOM      6  C   UNL     1       5.162   4.188  15.898  0.00  0.00    +0.000 A 
ATOM      7  C   UNL     1       5.298   3.580  14.631  0.00  0.00    +0.000 A 
ATOM      8  C   UNL     1       6.300   3.971  13.742  0.00  0.00    +0.000 A 
ATOM      9  C   UNL     1       7.210   4.976  14.081  0.00  0.00    +0.000 A 
ATOM     10  C   UNL     1       7.065   5.560  15.340  0.00  0.00    +0.000 A 
ATOM     11  N   UNL     1       7.781   6.540  15.983  0.00  0.00    +0.000 N 
ATOM     12  C   UNL     1       7.224   6.740  17.221  0.00  0.00    +0.000 A 
ATOM     13  N   UNL     1       6.187   5.945  17.403  0.00  0.00    +0.000 NA
ATOM     14  C   UNL     1       6.073   5.198  16.250  0.00  0.00    +0.000 A 
ATOM     15  H   UNL     1       8.587   7.028  15.618  0.00  0.00    +0.000 HD
BRANCH  12  16
ATOM     16  C   UNL     1       7.788   7.736  18.168  0.00  0.00    +0.000 C 
ATOM     17  F   UNL     1       8.700   7.151  18.992  0.00  0.00    +0.000 F 
ATOM     18  F   UNL     1       8.469   8.704  17.495  0.00  0.00    +0.000 F 
ENDBRANCH  12  16
ENDBRANCH   4   6
BRANCH   1  23
ATOM     19  O   UNL     1       2.590   2.538  22.409  0.00  0.00    +0.000 OA
ATOM     20  C   UNL     1       2.051   3.035  21.423  0.00  0.00    +0.000 C 
ATOM     21  C   UNL     1       2.340   4.461  20.992  0.00  0.00    +0.000 C 
ATOM     22  C   UNL     1       1.444   4.989  19.873  0.00  0.00    +0.000 C 
ATOM     23  C   UNL     1       1.206   3.939  18.782  0.00  0.00    +0.000 C 
ATOM     24  C   UNL     1       0.539   2.730  19.447  0.00  0.00    +0.000 C 
ATOM     25  N   UNL     1       1.207   2.286  20.657  0.00  0.00    +0.000 N 
ATOM     26  H   UNL     1       1.100   1.327  20.964  0.00  0.00    +0.000 HD
ENDBRANCH   1  23
TORSDOF 3
ENDMDL
MODEL 3
REMARK VINA RESULT:      -8.7      1.712      2.015
REMARK  Name = 
REMARK  3 active torsions:
REMARK  status: ('A' for Active; 'I' for Inactive)
REMARK    1  A    between atoms: C_5  and  C_6
REMARK    2  A    between atoms: C_9  and  C_10
REMARK    3  A    between atoms: C_16  and  C_17
REMARK                            x       y       z     vdW  Elec       q    Type
REMARK                         _______ _______ _______ _____ _____    ______ ____
ROOT
ATOM      1  C   UNL     1       1.941   4.222  18.081  0.00  0.00    +0.000 A 
ATOM      2  N   UNL     1       1.578   5.509  18.051  0.00  0.00    +0.000 NA
ATOM      3  O   UNL     1       2.773   6.164  17.706  0.00  0.00    +0.000 OA
ATOM      4  C   UNL     1       3.726   5.192  17.568  0.00  0.00    +0.000 A 
ATOM      5  N   UNL     1       3.251   3.985  17.765  0.00  0.00    +0.000 NA
ENDROOT
BRANCH   4   6
ATOM      6  C   UNL     1       5.091   5.566  17.268  0.00  0.00    +0.000 A 
ATOM      7  C   UNL     1       5.825   6.389  18.150  0.00  0.00    +0.000 A 
ATOM      8  C   UNL     1       7.134   6.777  17.863  0.00  0.00    +0.000 A 
ATOM      9  C   UNL     1       7.762   6.368  16.684  0.00  0.00    +0.000 A 
ATOM     10  C   UNL     1       7.020   5.561  15.820  0.00  0.00    +0.000 A 
ATOM     11  N   UNL     1       7.319   5.009  14.599  0.00  0.00    +0.000 N 
ATOM     12  C   UNL     1       6.226   4.304  14.164  0.00  0.00    +0.000 A 
ATOM     13  N   UNL     1       5.245   4.369  15.044  0.00  0.00    +0.000 NA
ATOM     14  C   UNL     1       5.713   5.151  16.078  0.00  0.00    +0.000 A 
ATOM     15  H   UNL     1       8.189   5.109  14.095  0.00  0.00    +0.000 HD
BRANCH  12  16
ATOM     16  C   UNL     1       6.233   3.597  12.857  0.00  0.00    +0.000 C 
ATOM     17  F   UNL     1       5.004   3.651  12.276  0.00  0.00    +0.000 F 
ATOM     18  F   UNL     1       7.079   4.213  11.985  0.00  0.00    +0.000 F 
ENDBRANCH  12  16
ENDBRANCH   4   6
BRANCH   1  23
ATOM     19  O   UNL     1       3.166   2.421  21.967  0.00  0.00    +0.000 OA
ATOM     20  C   UNL     1       2.402   2.530  21.010  0.00  0.00    +0.000 C 
ATOM     21  C   UNL     1       1.294   3.566  20.991  0.00  0.00    +0.000 C 
ATOM     22  C   UNL     1       0.315   3.438  19.825  0.00  0.00    +0.000 C 
ATOM     23  C   UNL     1       1.028   3.120  18.506  0.00  0.00    +0.000 C 
ATOM     24  C   UNL     1       1.775   1.795  18.697  0.00  0.00    +0.000 C 
ATOM     25  N   UNL     1       2.572   1.743  19.909  0.00  0.00    +0.000 N 
ATOM     26  H   UNL     1       3.363   1.113  19.961  0.00  0.00    +0.000 HD
ENDBRANCH   1  23
TORSDOF 3
ENDMDL
MODEL 4
REMARK VINA RESULT:      -8.7      4.929      6.211
REMARK  Name = 
REMARK  3 active torsions:
REMARK  status: ('A' for Active; 'I' for Inactive)
REMARK    1  A    between atoms: C_5  and  C_6
REMARK    2  A    between atoms: C_9  and  C_10
REMARK    3  A    between atoms: C_16  and  C_17
REMARK                            x       y       z     vdW  Elec       q    Type
REMARK                         _______ _______ _______ _____ _____    ______ ____
ROOT
ATOM      1  C   UNL     1       1.750   9.106  18.848  0.00  0.00    +0.000 A 
ATOM      2  N   UNL     1       2.165   9.344  17.598  0.00  0.00    +0.000 NA
ATOM      3  O   UNL     1       2.599   8.080  17.166  0.00  0.00    +0.000 OA
ATOM      4  C   UNL     1       2.397   7.218  18.209  0.00  0.00    +0.000 A 
ATOM      5  N   UNL     1       1.855   7.804  19.251  0.00  0.00    +0.000 NA
ENDROOT
BRANCH   4   6
ATOM      6  C   UNL     1       2.806   5.835  18.086  0.00  0.00    +0.000 A 
ATOM      7  C   UNL     1       1.857   4.823  17.826  0.00  0.00    +0.000 A 
ATOM      8  C   UNL     1       2.233   3.483  17.729  0.00  0.00    +0.000 A 
ATOM      9  C   UNL     1       3.566   3.097  17.891  0.00  0.00    +0.000 A 
ATOM     10  C   UNL     1       4.489   4.110  18.153  0.00  0.00    +0.000 A 
ATOM     11  N   UNL     1       5.843   4.079  18.377  0.00  0.00    +0.000 N 
ATOM     12  C   UNL     1       6.274   5.363  18.598  0.00  0.00    +0.000 A 
ATOM     13  N   UNL     1       5.269   6.214  18.521  0.00  0.00    +0.000 NA
ATOM     14  C   UNL     1       4.149   5.458  18.252  0.00  0.00    +0.000 A 
ATOM     15  H   UNL     1       6.428   3.255  18.389  0.00  0.00    +0.000 HD
BRANCH  12  16
ATOM     16  C   UNL     1       7.701   5.658  18.886  0.00  0.00    +0.000 C 
ATOM     17  F   UNL     1       8.019   6.921  18.488  0.00  0.00    +0.000 F 
ATOM     18  F   UNL     1       7.935   5.626  20.227  0.00  0.00    +0.000 F 
ENDBRANCH  12  16
ENDBRANCH   4   6
BRANCH   1  23
ATOM     19  O   UNL     1      -1.826  11.255  17.288  0.00  0.00    +0.000 OA
ATOM     20  C   UNL     1      -0.983  11.030  18.153  0.00  0.00    +0.000 C 
ATOM     21  C   UNL     1      -1.170   9.929  19.180  0.00  0.00    +0.000 C 
ATOM     22  C   UNL     1      -0.132   9.912  20.301  0.00  0.00    +0.000 C 
ATOM     23  C   UNL     1       1.284  10.177  19.777  0.00  0.00    +0.000 C 
ATOM     24  C   UNL     1       1.274  11.556  19.108  0.00  0.00    +0.000 C 
ATOM     25  N   UNL     1       0.178  11.745  18.175  0.00  0.00    +0.000 N 
ATOM     26  H   UNL     1       0.268  12.424  17.429  0.00  0.00    +0.000 HD
ENDBRANCH   1  23
TORSDOF 3
ENDMDL
MODEL 5
REMARK VINA RESULT:      -8.6      2.941      3.902
REMARK  Name = 
REMARK  3 active torsions:
REMARK  status: ('A' for Active; 'I' for Inactive)
REMARK    1  A    between atoms: C_5  and  C_6
REMARK    2  A    between atoms: C_9  and  C_10
REMARK    3  A    between atoms: C_16  and  C_17
REMARK                            x       y       z     vdW  Elec       q    Type
REMARK                         _______ _______ _______ _____ _____    ______ ____
ROOT
ATOM      1  C   UNL     1       1.941   4.422  18.252  0.00  0.00    +0.000 A 
ATOM      2  N   UNL     1       2.013   5.755  18.346  0.00  0.00    +0.000 NA
ATOM      3  O   UNL     1       3.149   6.062  17.576  0.00  0.00    +0.000 OA
ATOM      4  C   UNL     1       3.635   4.873  17.105  0.00  0.00    +0.000 A 
ATOM      5  N   UNL     1       2.908   3.846  17.477  0.00  0.00    +0.000 NA
ENDROOT
BRANCH   4   6
ATOM      6  C   UNL     1       4.849   4.857  16.317  0.00  0.00    +0.000 A 
ATOM      7  C   UNL     1       5.015   3.929  15.266  0.00  0.00    +0.000 A 
ATOM      8  C   UNL     1       6.189   3.887  14.514  0.00  0.00    +0.000 A 
ATOM      9  C   UNL     1       7.246   4.761  14.781  0.00  0.00    +0.000 A 
ATOM     10  C   UNL     1       7.067   5.667  15.827  0.00  0.00    +0.000 A 
ATOM     11  N   UNL     1       7.890   6.631  16.355  0.00  0.00    +0.000 N 
ATOM     12  C   UNL     1       7.231   7.241  17.392  0.00  0.00    +0.000 A 
ATOM     13  N   UNL     1       6.028   6.724  17.552  0.00  0.00    +0.000 NA
ATOM     14  C   UNL     1       5.906   5.739  16.596  0.00  0.00    +0.000 A 
ATOM     15  H   UNL     1       8.826   6.852  16.046  0.00  0.00    +0.000 HD
BRANCH  12  16
ATOM     16  C   UNL     1       7.870   8.327  18.179  0.00  0.00    +0.000 C 
ATOM     17  F   UNL     1       8.862   7.829  18.966  0.00  0.00    +0.000 F 
ATOM     18  F   UNL     1       8.473   9.226  17.353  0.00  0.00    +0.000 F 
ENDBRANCH  12  16
ENDBRANCH   4   6
BRANCH   1  23
ATOM     19  O   UNL     1       3.793   2.138  21.598  0.00  0.00    +0.000 OA
ATOM     20  C   UNL     1       2.825   2.510  20.939  0.00  0.00    +0.000 C 
ATOM     21  C   UNL     1       2.111   3.815  21.239  0.00  0.00    +0.000 C 
ATOM     22  C   UNL     1       0.814   4.032  20.461  0.00  0.00    +0.000 C 
ATOM     23  C   UNL     1       0.941   3.600  18.996  0.00  0.00    +0.000 C 
ATOM     24  C   UNL     1       1.302   2.110  18.988  0.00  0.00    +0.000 C 
ATOM     25  N   UNL     1       2.399   1.769  19.876  0.00  0.00    +0.000 N 
ATOM     26  H   UNL     1       2.951   0.941  19.693  0.00  0.00    +0.000 HD
ENDBRANCH   1  23
TORSDOF 3
ENDMDL
MODEL 6
REMARK VINA RESULT:      -8.5      4.547      6.103
REMARK  Name = 
REMARK  3 active torsions:
REMARK  status: ('A' for Active; 'I' for Inactive)
REMARK    1  A    between atoms: C_5  and  C_6
REMARK    2  A    between atoms: C_9  and  C_10
REMARK    3  A    between atoms: C_16  and  C_17
REMARK                            x       y       z     vdW  Elec       q    Type
REMARK                         _______ _______ _______ _____ _____    ______ ____
ROOT
ATOM      1  C   UNL     1       1.583   8.929  19.436  0.00  0.00    +0.000 A 
ATOM      2  N   UNL     1       1.848   8.804  18.130  0.00  0.00    +0.000 NA
ATOM      3  O   UNL     1       2.299   7.476  18.028  0.00  0.00    +0.000 OA
ATOM      4  C   UNL     1       2.255   6.950  19.290  0.00  0.00    +0.000 A 
ATOM      5  N   UNL     1       1.798   7.801  20.178  0.00  0.00    +0.000 NA
ENDROOT
BRANCH   4   6
ATOM      6  C   UNL     1       2.719   5.598  19.519  0.00  0.00    +0.000 A 
ATOM      7  C   UNL     1       1.882   4.643  20.136  0.00  0.00    +0.000 A 
ATOM      8  C   UNL     1       2.324   3.343  20.384  0.00  0.00    +0.000 A 
ATOM      9  C   UNL     1       3.617   2.944  20.034  0.00  0.00    +0.000 A 
ATOM     10  C   UNL     1       4.432   3.904  19.431  0.00  0.00    +0.000 A 
ATOM     11  N   UNL     1       5.730   3.853  18.987  0.00  0.00    +0.000 N 
ATOM     12  C   UNL     1       6.061   5.085  18.481  0.00  0.00    +0.000 A 
ATOM     13  N   UNL     1       5.043   5.918  18.571  0.00  0.00    +0.000 NA
ATOM     14  C   UNL     1       4.021   5.209  19.164  0.00  0.00    +0.000 A 
ATOM     15  H   UNL     1       6.347   3.055  19.032  0.00  0.00    +0.000 HD
BRANCH  12  16
ATOM     16  C   UNL     1       7.415   5.354  17.932  0.00  0.00    +0.000 C 
ATOM     17  F   UNL     1       8.170   6.041  18.832  0.00  0.00    +0.000 F 
ATOM     18  F   UNL     1       8.081   4.188  17.707  0.00  0.00    +0.000 F 
ENDBRANCH  12  16
ENDBRANCH   4   6
BRANCH   1  23
ATOM     19  O   UNL     1      -1.825  10.837  17.292  0.00  0.00    +0.000 OA
ATOM     20  C   UNL     1      -1.014  10.778  18.214  0.00  0.00    +0.000 C 
ATOM     21  C   UNL     1      -1.288   9.966  19.465  0.00  0.00    +0.000 C 
ATOM     22  C   UNL     1      -0.275  10.159  20.593  0.00  0.00    +0.000 C 
ATOM     23  C   UNL     1       1.165  10.215  20.069  0.00  0.00    +0.000 C 
ATOM     24  C   UNL     1       1.252  11.393  19.093  0.00  0.00    +0.000 C 
ATOM     25  N   UNL     1       0.188  11.413  18.105  0.00  0.00    +0.000 N 
ATOM     26  H   UNL     1       0.333  11.890  17.224  0.00  0.00    +0.000 HD
ENDBRANCH   1  23
TORSDOF 3
ENDMDL
MODEL 7
REMARK VINA RESULT:      -8.3      5.587      7.316
REMARK  Name = 
REMARK  3 active torsions:
REMARK  status: ('A' for Active; 'I' for Inactive)
REMARK    1  A    between atoms: C_5  and  C_6
REMARK    2  A    between atoms: C_9  and  C_10
REMARK    3  A    between atoms: C_16  and  C_17
REMARK                            x       y       z     vdW  Elec       q    Type
REMARK                         _______ _______ _______ _____ _____    ______ ____
ROOT
ATOM      1  C   UNL     1       3.301   4.505  20.227  0.00  0.00    +0.000 A 
ATOM      2  N   UNL     1       4.402   4.815  19.531  0.00  0.00    +0.000 NA
ATOM      3  O   UNL     1       4.118   6.106  19.055  0.00  0.00    +0.000 OA
ATOM      4  C   UNL     1       2.872   6.430  19.518  0.00  0.00    +0.000 A 
ATOM      5  N   UNL     1       2.347   5.485  20.262  0.00  0.00    +0.000 NA
ENDROOT
BRANCH   4   6
ATOM      6  C   UNL     1       2.274   7.693  19.142  0.00  0.00    +0.000 A 
ATOM      7  C   UNL     1       2.440   8.209  17.838  0.00  0.00    +0.000 A 
ATOM      8  C   UNL     1       1.889   9.437  17.468  0.00  0.00    +0.000 A 
ATOM      9  C   UNL     1       1.157  10.200  18.381  0.00  0.00    +0.000 A 
ATOM     10  C   UNL     1       1.008   9.677  19.666  0.00  0.00    +0.000 A 
ATOM     11  N   UNL     1       0.378  10.163  20.785  0.00  0.00    +0.000 N 
ATOM     12  C   UNL     1       0.540   9.254  21.800  0.00  0.00    +0.000 A 
ATOM     13  N   UNL     1       1.233   8.210  21.389  0.00  0.00    +0.000 NA
ATOM     14  C   UNL     1       1.541   8.453  20.067  0.00  0.00    +0.000 A 
ATOM     15  H   UNL     1      -0.112  11.043  20.860  0.00  0.00    +0.000 HD
BRANCH  12  16
ATOM     16  C   UNL     1      -0.021   9.502  23.153  0.00  0.00    +0.000 C 
ATOM     17  F   UNL     1      -0.403  10.802  23.283  0.00  0.00    +0.000 F 
ATOM     18  F   UNL     1      -1.151   8.766  23.345  0.00  0.00    +0.000 F 
ENDBRANCH  12  16
ENDBRANCH   4   6
BRANCH   1  23
ATOM     19  O   UNL     1      -0.003   2.260  18.255  0.00  0.00    +0.000 OA
ATOM     20  C   UNL     1       0.912   2.358  19.070  0.00  0.00    +0.000 C 
ATOM     21  C   UNL     1       2.348   2.041  18.698  0.00  0.00    +0.000 C 
ATOM     22  C   UNL     1       3.327   2.020  19.870  0.00  0.00    +0.000 C 
ATOM     23  C   UNL     1       3.073   3.169  20.853  0.00  0.00    +0.000 C 
ATOM     24  C   UNL     1       1.641   3.016  21.377  0.00  0.00    +0.000 C 
ATOM     25  N   UNL     1       0.655   2.810  20.331  0.00  0.00    +0.000 N 
ATOM     26  H   UNL     1      -0.312   3.059  20.500  0.00  0.00    +0.000 HD
ENDBRANCH   1  23
TORSDOF 3
ENDMDL
MODEL 8
REMARK VINA RESULT:      -8.3      2.449      3.320
REMARK  Name = 
REMARK  3 active torsions:
REMARK  status: ('A' for Active; 'I' for Inactive)
REMARK    1  A    between atoms: C_5  and  C_6
REMARK    2  A    between atoms: C_9  and  C_10
REMARK    3  A    between atoms: C_16  and  C_17
REMARK                            x       y       z     vdW  Elec       q    Type
REMARK                         _______ _______ _______ _____ _____    ______ ____
ROOT
ATOM      1  C   UNL     1       2.817   2.876  18.486  0.00  0.00    +0.000 A 
ATOM      2  N   UNL     1       1.901   2.977  17.516  0.00  0.00    +0.000 NA
ATOM      3  O   UNL     1       2.659   3.400  16.411  0.00  0.00    +0.000 OA
ATOM      4  C   UNL     1       3.953   3.509  16.843  0.00  0.00    +0.000 A 
ATOM      5  N   UNL     1       4.096   3.173  18.103  0.00  0.00    +0.000 NA
ENDROOT
BRANCH   4   6
ATOM      6  C   UNL     1       4.974   3.986  15.935  0.00  0.00    +0.000 A 
ATOM      7  C   UNL     1       5.085   3.455  14.631  0.00  0.00    +0.000 A 
ATOM      8  C   UNL     1       6.078   3.889  13.753  0.00  0.00    +0.000 A 
ATOM      9  C   UNL     1       7.004   4.862  14.138  0.00  0.00    +0.000 A 
ATOM     10  C   UNL     1       6.883   5.371  15.432  0.00  0.00    +0.000 A 
ATOM     11  N   UNL     1       7.618   6.303  16.122  0.00  0.00    +0.000 N 
ATOM     12  C   UNL     1       7.081   6.433  17.378  0.00  0.00    +0.000 A 
ATOM     13  N   UNL     1       6.039   5.639  17.527  0.00  0.00    +0.000 NA
ATOM     14  C   UNL     1       5.900   4.964  16.333  0.00  0.00    +0.000 A 
ATOM     15  H   UNL     1       8.424   6.804  15.776  0.00  0.00    +0.000 HD
BRANCH  12  16
ATOM     16  C   UNL     1       7.669   7.364  18.375  0.00  0.00    +0.000 C 
ATOM     17  F   UNL     1       8.617   6.733  19.120  0.00  0.00    +0.000 F 
ATOM     18  F   UNL     1       8.314   8.389  17.751  0.00  0.00    +0.000 F 
ENDBRANCH  12  16
ENDBRANCH   4   6
BRANCH   1  23
ATOM     19  O   UNL     1       1.646   6.489  20.814  0.00  0.00    +0.000 OA
ATOM     20  C   UNL     1       1.814   5.277  20.695  0.00  0.00    +0.000 C 
ATOM     21  C   UNL     1       0.731   4.375  20.135  0.00  0.00    +0.000 C 
ATOM     22  C   UNL     1       1.022   2.879  20.240  0.00  0.00    +0.000 C 
ATOM     23  C   UNL     1       2.481   2.551  19.904  0.00  0.00    +0.000 C 
ATOM     24  C   UNL     1       3.363   3.317  20.895  0.00  0.00    +0.000 C 
ATOM     25  N   UNL     1       3.014   4.720  21.025  0.00  0.00    +0.000 N 
ATOM     26  H   UNL     1       3.713   5.382  21.338  0.00  0.00    +0.000 HD
ENDBRANCH   1  23
TORSDOF 3
ENDMDL
MODEL 9
REMARK VINA RESULT:      -8.3      5.500      7.031
REMARK  Name = 
REMARK  3 active torsions:
REMARK  status: ('A' for Active; 'I' for Inactive)
REMARK    1  A    between atoms: C_5  and  C_6
REMARK    2  A    between atoms: C_9  and  C_10
REMARK    3  A    between atoms: C_16  and  C_17
REMARK                            x       y       z     vdW  Elec       q    Type
REMARK                         _______ _______ _______ _____ _____    ______ ____
ROOT
ATOM      1  C   UNL     1       1.514   9.606  18.849  0.00  0.00    +0.000 A 
ATOM      2  N   UNL     1       1.798   9.967  17.592  0.00  0.00    +0.000 NA
ATOM      3  O   UNL     1       2.537   8.873  17.111  0.00  0.00    +0.000 OA
ATOM      4  C   UNL     1       2.617   7.972  18.138  0.00  0.00    +0.000 A 
ATOM      5  N   UNL     1       1.982   8.373  19.213  0.00  0.00    +0.000 NA
ENDROOT
BRANCH   4   6
ATOM      6  C   UNL     1       3.375   6.752  17.963  0.00  0.00    +0.000 A 
ATOM      7  C   UNL     1       4.318   6.632  16.919  0.00  0.00    +0.000 A 
ATOM      8  C   UNL     1       5.040   5.454  16.724  0.00  0.00    +0.000 A 
ATOM      9  C   UNL     1       4.847   4.347  17.554  0.00  0.00    +0.000 A 
ATOM     10  C   UNL     1       3.906   4.481  18.576  0.00  0.00    +0.000 A 
ATOM     11  N   UNL     1       3.468   3.605  19.539  0.00  0.00    +0.000 N 
ATOM     12  C   UNL     1       2.515   4.237  20.297  0.00  0.00    +0.000 A 
ATOM     13  N   UNL     1       2.324   5.472  19.875  0.00  0.00    +0.000 NA
ATOM     14  C   UNL     1       3.172   5.645  18.803  0.00  0.00    +0.000 A 
ATOM     15  H   UNL     1       3.781   2.653  19.667  0.00  0.00    +0.000 HD
BRANCH  12  16
ATOM     16  C   UNL     1       1.836   3.540  21.419  0.00  0.00    +0.000 C 
ATOM     17  F   UNL     1       0.804   2.781  20.958  0.00  0.00    +0.000 F 
ATOM     18  F   UNL     1       2.688   2.670  22.028  0.00  0.00    +0.000 F 
ENDBRANCH  12  16
ENDBRANCH   4   6
BRANCH   1  23
ATOM     19  O   UNL     1      -2.060  11.580  17.071  0.00  0.00    +0.000 OA
ATOM     20  C   UNL     1      -1.311  11.328  18.012  0.00  0.00    +0.000 C 
ATOM     21  C   UNL     1      -1.499  10.091  18.870  0.00  0.00    +0.000 C 
ATOM     22  C   UNL     1      -0.613  10.030  20.113  0.00  0.00    +0.000 C 
ATOM     23  C   UNL     1       0.818  10.498  19.823  0.00  0.00    +0.000 C 
ATOM     24  C   UNL     1       0.735  11.944  19.322  0.00  0.00    +0.000 C 
ATOM     25  N   UNL     1      -0.250  12.144  18.275  0.00  0.00    +0.000 N 
ATOM     26  H   UNL     1      -0.146  12.919  17.632  0.00  0.00    +0.000 HD
ENDBRANCH   1  23
TORSDOF 3
ENDMDL
