MODEL 1
REMARK VINA RESULT:      -7.8      0.000      0.000
REMARK  Name = 
REMARK  9 active torsions:
REMARK  status: ('A' for Active; 'I' for Inactive)
REMARK    1  A    between atoms: C_1  and  C_2
REMARK    2  A    between atoms: C_2  and  N_3
REMARK    3  A    between atoms: N_3  and  C_4
REMARK    4  A    between atoms: C_4  and  C_5
REMARK    5  A    between atoms: C_9  and  N_10
REMARK    6  A    between atoms: C_15  and  C_16
REMARK    7  A    between atoms: C_16  and  O_17
REMARK    8  A    between atoms: O_17  and  N_18
REMARK    9  A    between atoms: C_24  and  C_25
REMARK                            x       y       z     vdW  Elec       q    Type
REMARK                         _______ _______ _______ _____ _____    ______ ____
ROOT
ATOM      1  N   UNL     1       0.158   9.326  20.739  0.00  0.00    +0.000 N 
ATOM      2  C   UNL     1      -1.055   9.296  19.889  0.00  0.00    +0.000 C 
ATOM      3  C   UNL     1      -1.188  10.727  19.472  0.00  0.00    +0.000 A 
ATOM      4  C   UNL     1      -0.567  11.510  20.455  0.00  0.00    +0.000 A 
ATOM      5  C   UNL     1      -0.290  12.858  20.290  0.00  0.00    +0.000 A 
ATOM      6  C   UNL     1      -0.621  13.434  19.064  0.00  0.00    +0.000 A 
ATOM      7  C   UNL     1      -1.235  12.642  18.062  0.00  0.00    +0.000 A 
ATOM      8  C   UNL     1      -1.538  11.277  18.248  0.00  0.00    +0.000 A 
ATOM      9  C   UNL     1       0.220  10.613  21.318  0.00  0.00    +0.000 C 
ATOM     10  O   UNL     1       0.911  10.987  22.242  0.00  0.00    +0.000 OA
ENDROOT
BRANCH   1  15
ATOM     11  C   UNL     1       2.459   6.898  19.258  0.00  0.00    +0.000 A 
ATOM     12  C   UNL     1       2.557   7.467  17.968  0.00  0.00    +0.000 A 
ATOM     13  C   UNL     1       2.124   8.762  17.689  0.00  0.00    +0.000 A 
ATOM     14  C   UNL     1       1.532   9.516  18.691  0.00  0.00    +0.000 A 
ATOM     15  C   UNL     1       1.305   8.937  19.952  0.00  0.00    +0.000 A 
ATOM     16  C   UNL     1       1.849   7.691  20.247  0.00  0.00    +0.000 A 
BRANCH  11  17
ATOM     17  C   UNL     1       2.907   5.415  19.558  0.00  0.00    +0.000 C 
ATOM     18  C   UNL     1       2.757   4.302  18.486  0.00  0.00    +0.000 C 
ATOM     19  O   UNL     1       4.175   4.333  18.191  0.00  0.00    +0.000 OA
ATOM     20  C   UNL     1       4.423   5.085  19.406  0.00  0.00    +0.000 C 
BRANCH  17  21
ATOM     21  N   UNL     1       2.455   4.933  20.887  0.00  0.00    +0.000 NA
ATOM     22  H   UNL     1       3.203   4.536  21.457  0.00  0.00    +0.000 HD
BRANCH  21  24
ATOM     23  C   UNL     1       1.673   2.740  21.647  0.00  0.00    +0.000 C 
ATOM     24  C   UNL     1       1.374   3.948  20.770  0.00  0.00    +0.000 C 
ENDBRANCH  21  24
ENDBRANCH  17  21
ENDBRANCH  11  17
ENDBRANCH   1  15
BRANCH   8  25
ATOM     25  C   UNL     1      -2.038  10.479  17.068  0.00  0.00    +0.000 C 
ATOM     26  F   UNL     1      -2.269  11.220  15.952  0.00  0.00    +0.000 F 
ATOM     27  F   UNL     1      -1.168   9.504  16.696  0.00  0.00    +0.000 F 
ATOM     28  F   UNL     1      -3.212   9.844  17.346  0.00  0.00    +0.000 F 
ENDBRANCH   8  25
BRANCH   6  29
ATOM     29  C   UNL     1      -0.144  14.841  18.767  0.00  0.00    +0.000 C 
BRANCH  29  30
ATOM     30  O   UNL     1       1.160  15.011  19.320  0.00  0.00    +0.000 OA
BRANCH  30  31
ATOM     31  N   UNL     1       2.153  15.037  18.257  0.00  0.00    +0.000 NA
ATOM     32  C   UNL     1       3.059  13.918  18.618  0.00  0.00    +0.000 C 
ATOM     33  C   UNL     1       4.250  14.891  18.553  0.00  0.00    +0.000 C 
ATOM     34  F   UNL     1       4.952  14.901  17.394  0.00  0.00    +0.000 F 
ATOM     35  C   UNL     1       3.188  15.994  18.715  0.00  0.00    +0.000 C 
ENDBRANCH  30  31
ENDBRANCH  29  30
ENDBRANCH   6  29
TORSDOF 8
ENDMDL
MODEL 2
REMARK VINA RESULT:      -7.6      1.693      2.110
REMARK  Name = 
REMARK  9 active torsions:
REMARK  status: ('A' for Active; 'I' for Inactive)
REMARK    1  A    between atoms: C_1  and  C_2
REMARK    2  A    between atoms: C_2  and  N_3
REMARK    3  A    between atoms: N_3  and  C_4
REMARK    4  A    between atoms: C_4  and  C_5
REMARK    5  A    between atoms: C_9  and  N_10
REMARK    6  A    between atoms: C_15  and  C_16
REMARK    7  A    between atoms: C_16  and  O_17
REMARK    8  A    between atoms: O_17  and  N_18
REMARK    9  A    between atoms: C_24  and  C_25
REMARK                            x       y       z     vdW  Elec       q    Type
REMARK                         _______ _______ _______ _____ _____    ______ ____
ROOT
ATOM      1  N   UNL     1       0.748   8.337  21.129  0.00  0.00    +0.000 N 
ATOM      2  C   UNL     1      -0.537   8.569  20.429  0.00  0.00    +0.000 C 
ATOM      3  C   UNL     1      -0.542  10.055  20.258  0.00  0.00    +0.000 A 
ATOM      4  C   UNL     1       0.257  10.598  21.274  0.00  0.00    +0.000 A 
ATOM      5  C   UNL     1       0.671  11.921  21.290  0.00  0.00    +0.000 A 
ATOM      6  C   UNL     1       0.294  12.723  20.215  0.00  0.00    +0.000 A 
ATOM      7  C   UNL     1      -0.502  12.174  19.178  0.00  0.00    +0.000 A 
ATOM      8  C   UNL     1      -0.942  10.835  19.182  0.00  0.00    +0.000 A 
ATOM      9  C   UNL     1       1.014   9.496  21.891  0.00  0.00    +0.000 C 
ATOM     10  O   UNL     1       1.830   9.640  22.777  0.00  0.00    +0.000 OA
ENDROOT
BRANCH   1  15
ATOM     11  C   UNL     1       2.474   6.015  18.890  0.00  0.00    +0.000 A 
ATOM     12  C   UNL     1       2.615   6.871  17.774  0.00  0.00    +0.000 A 
ATOM     13  C   UNL     1       2.421   8.249  17.862  0.00  0.00    +0.000 A 
ATOM     14  C   UNL     1       2.032   8.810  19.069  0.00  0.00    +0.000 A 
ATOM     15  C   UNL     1       1.761   7.973  20.166  0.00  0.00    +0.000 A 
ATOM     16  C   UNL     1       2.073   6.619  20.095  0.00  0.00    +0.000 A 
BRANCH  11  17
ATOM     17  C   UNL     1       2.647   4.451  18.775  0.00  0.00    +0.000 C 
ATOM     18  C   UNL     1       1.496   3.555  18.244  0.00  0.00    +0.000 C 
ATOM     19  O   UNL     1       2.149   3.402  16.959  0.00  0.00    +0.000 OA
ATOM     20  C   UNL     1       3.388   3.909  17.516  0.00  0.00    +0.000 C 
BRANCH  17  21
ATOM     21  N   UNL     1       3.271   3.849  19.980  0.00  0.00    +0.000 NA
ATOM     22  H   UNL     1       4.259   3.621  19.861  0.00  0.00    +0.000 HD
BRANCH  21  24
ATOM     23  C   UNL     1       1.851   2.916  21.743  0.00  0.00    +0.000 C 
ATOM     24  C   UNL     1       2.555   2.646  20.421  0.00  0.00    +0.000 C 
ENDBRANCH  21  24
ENDBRANCH  17  21
ENDBRANCH  11  17
ENDBRANCH   1  15
BRANCH   8  25
ATOM     25  C   UNL     1      -1.643  10.298  17.957  0.00  0.00    +0.000 C 
ATOM     26  F   UNL     1      -2.754   9.565  18.228  0.00  0.00    +0.000 F 
ATOM     27  F   UNL     1      -2.044  11.287  17.116  0.00  0.00    +0.000 F 
ATOM     28  F   UNL     1      -0.830   9.489  17.220  0.00  0.00    +0.000 F 
ENDBRANCH   8  25
BRANCH   6  29
ATOM     29  C   UNL     1       0.899  14.106  20.088  0.00  0.00    +0.000 C 
BRANCH  29  30
ATOM     30  O   UNL     1      -0.154  15.055  19.921  0.00  0.00    +0.000 OA
BRANCH  30  31
ATOM     31  N   UNL     1      -0.074  15.661  18.601  0.00  0.00    +0.000 NA
ATOM     32  C   UNL     1       1.270  16.292  18.602  0.00  0.00    +0.000 C 
ATOM     33  C   UNL     1       0.617  17.629  18.210  0.00  0.00    +0.000 C 
ATOM     34  F   UNL     1       0.628  17.936  16.890  0.00  0.00    +0.000 F 
ATOM     35  C   UNL     1      -0.681  17.004  18.753  0.00  0.00    +0.000 C 
ENDBRANCH  30  31
ENDBRANCH  29  30
ENDBRANCH   6  29
TORSDOF 8
ENDMDL
MODEL 3
REMARK VINA RESULT:      -7.6      1.554      2.126
REMARK  Name = 
REMARK  9 active torsions:
REMARK  status: ('A' for Active; 'I' for Inactive)
REMARK    1  A    between atoms: C_1  and  C_2
REMARK    2  A    between atoms: C_2  and  N_3
REMARK    3  A    between atoms: N_3  and  C_4
REMARK    4  A    between atoms: C_4  and  C_5
REMARK    5  A    between atoms: C_9  and  N_10
REMARK    6  A    between atoms: C_15  and  C_16
REMARK    7  A    between atoms: C_16  and  O_17
REMARK    8  A    between atoms: O_17  and  N_18
REMARK    9  A    between atoms: C_24  and  C_25
REMARK                            x       y       z     vdW  Elec       q    Type
REMARK                         _______ _______ _______ _____ _____    ______ ____
ROOT
ATOM      1  N   UNL     1       0.706   8.339  21.291  0.00  0.00    +0.000 N 
ATOM      2  C   UNL     1      -0.528   8.671  20.542  0.00  0.00    +0.000 C 
ATOM      3  C   UNL     1      -0.328  10.119  20.225  0.00  0.00    +0.000 A 
ATOM      4  C   UNL     1       0.527  10.648  21.200  0.00  0.00    +0.000 A 
ATOM      5  C   UNL     1       1.119  11.898  21.095  0.00  0.00    +0.000 A 
ATOM      6  C   UNL     1       0.865  12.631  19.938  0.00  0.00    +0.000 A 
ATOM      7  C   UNL     1       0.011  12.093  18.942  0.00  0.00    +0.000 A 
ATOM      8  C   UNL     1      -0.607  10.833  19.068  0.00  0.00    +0.000 A 
ATOM      9  C   UNL     1       1.121   9.523  21.941  0.00  0.00    +0.000 C 
ATOM     10  O   UNL     1       1.940   9.644  22.827  0.00  0.00    +0.000 OA
ENDROOT
BRANCH   1  15
ATOM     11  C   UNL     1       2.241   5.548  19.491  0.00  0.00    +0.000 A 
ATOM     12  C   UNL     1       2.391   6.173  18.232  0.00  0.00    +0.000 A 
ATOM     13  C   UNL     1       2.271   7.551  18.064  0.00  0.00    +0.000 A 
ATOM     14  C   UNL     1       1.948   8.348  19.153  0.00  0.00    +0.000 A 
ATOM     15  C   UNL     1       1.668   7.746  20.393  0.00  0.00    +0.000 A 
ATOM     16  C   UNL     1       1.909   6.388  20.570  0.00  0.00    +0.000 A 
BRANCH  11  17
ATOM     17  C   UNL     1       2.330   3.983  19.667  0.00  0.00    +0.000 C 
ATOM     18  C   UNL     1       2.404   3.338  21.077  0.00  0.00    +0.000 C 
ATOM     19  O   UNL     1       1.014   2.932  21.013  0.00  0.00    +0.000 OA
ATOM     20  C   UNL     1       0.996   3.181  19.584  0.00  0.00    +0.000 C 
BRANCH  17  21
ATOM     21  N   UNL     1       3.311   3.354  18.746  0.00  0.00    +0.000 NA
ATOM     22  H   UNL     1       3.054   2.410  18.454  0.00  0.00    +0.000 HD
BRANCH  21  24
ATOM     23  C   UNL     1       5.563   4.305  18.597  0.00  0.00    +0.000 C 
ATOM     24  C   UNL     1       4.658   3.322  19.327  0.00  0.00    +0.000 C 
ENDBRANCH  21  24
ENDBRANCH  17  21
ENDBRANCH  11  17
ENDBRANCH   1  15
BRANCH   8  25
ATOM     25  C   UNL     1      -1.363  10.275  17.886  0.00  0.00    +0.000 C 
ATOM     26  F   UNL     1      -1.759  11.213  16.986  0.00  0.00    +0.000 F 
ATOM     27  F   UNL     1      -0.633   9.369  17.185  0.00  0.00    +0.000 F 
ATOM     28  F   UNL     1      -2.497   9.622  18.271  0.00  0.00    +0.000 F 
ENDBRANCH   8  25
BRANCH   6  29
ATOM     29  C   UNL     1       1.655  13.900  19.689  0.00  0.00    +0.000 C 
BRANCH  29  30
ATOM     30  O   UNL     1       2.597  13.657  18.645  0.00  0.00    +0.000 OA
BRANCH  30  31
ATOM     31  N   UNL     1       3.137  14.918  18.158  0.00  0.00    +0.000 NA
ATOM     32  C   UNL     1       4.602  14.676  18.159  0.00  0.00    +0.000 C 
ATOM     33  C   UNL     1       4.787  15.941  19.016  0.00  0.00    +0.000 C 
ATOM     34  F   UNL     1       5.115  17.073  18.348  0.00  0.00    +0.000 F 
ATOM     35  C   UNL     1       3.298  15.763  19.364  0.00  0.00    +0.000 C 
ENDBRANCH  30  31
ENDBRANCH  29  30
ENDBRANCH   6  29
TORSDOF 8
ENDMDL
MODEL 4
REMARK VINA RESULT:      -7.6      1.038      1.348
REMARK  Name = 
REMARK  9 active torsions:
REMARK  status: ('A' for Active; 'I' for Inactive)
REMARK    1  A    between atoms: C_1  and  C_2
REMARK    2  A    between atoms: C_2  and  N_3
REMARK    3  A    between atoms: N_3  and  C_4
REMARK    4  A    between atoms: C_4  and  C_5
REMARK    5  A    between atoms: C_9  and  N_10
REMARK    6  A    between atoms: C_15  and  C_16
REMARK    7  A    between atoms: C_16  and  O_17
REMARK    8  A    between atoms: O_17  and  N_18
REMARK    9  A    between atoms: C_24  and  C_25
REMARK                            x       y       z     vdW  Elec       q    Type
REMARK                         _______ _______ _______ _____ _____    ______ ____
ROOT
ATOM      1  N   UNL     1       0.635   8.417  21.118  0.00  0.00    +0.000 N 
ATOM      2  C   UNL     1      -0.642   8.610  20.391  0.00  0.00    +0.000 C 
ATOM      3  C   UNL     1      -0.746  10.101  20.320  0.00  0.00    +0.000 A 
ATOM      4  C   UNL     1      -0.017  10.624  21.397  0.00  0.00    +0.000 A 
ATOM      5  C   UNL     1       0.303  11.968  21.516  0.00  0.00    +0.000 A 
ATOM      6  C   UNL     1      -0.097  12.815  20.485  0.00  0.00    +0.000 A 
ATOM      7  C   UNL     1      -0.821  12.287  19.387  0.00  0.00    +0.000 A 
ATOM      8  C   UNL     1      -1.166  10.924  19.286  0.00  0.00    +0.000 A 
ATOM      9  C   UNL     1       0.796   9.536  21.965  0.00  0.00    +0.000 C 
ATOM     10  O   UNL     1       1.573   9.673  22.886  0.00  0.00    +0.000 OA
ENDROOT
BRANCH   1  15
ATOM     11  C   UNL     1       2.665   6.348  18.887  0.00  0.00    +0.000 A 
ATOM     12  C   UNL     1       2.716   7.226  17.781  0.00  0.00    +0.000 A 
ATOM     13  C   UNL     1       2.354   8.568  17.877  0.00  0.00    +0.000 A 
ATOM     14  C   UNL     1       1.881   9.065  19.083  0.00  0.00    +0.000 A 
ATOM     15  C   UNL     1       1.698   8.190  20.168  0.00  0.00    +0.000 A 
ATOM     16  C   UNL     1       2.176   6.886  20.091  0.00  0.00    +0.000 A 
BRANCH  11  17
ATOM     17  C   UNL     1       3.031   4.818  18.761  0.00  0.00    +0.000 C 
ATOM     18  C   UNL     1       3.564   4.229  17.428  0.00  0.00    +0.000 C 
ATOM     19  O   UNL     1       4.919   4.184  17.939  0.00  0.00    +0.000 OA
ATOM     20  C   UNL     1       4.428   4.375  19.290  0.00  0.00    +0.000 C 
BRANCH  17  21
ATOM     21  N   UNL     1       2.002   3.928  19.357  0.00  0.00    +0.000 NA
ATOM     22  H   UNL     1       1.258   4.429  19.845  0.00  0.00    +0.000 HD
BRANCH  21  24
ATOM     23  C   UNL     1       1.863   2.976  21.609  0.00  0.00    +0.000 C 
ATOM     24  C   UNL     1       2.595   2.949  20.275  0.00  0.00    +0.000 C 
ENDBRANCH  21  24
ENDBRANCH  17  21
ENDBRANCH  11  17
ENDBRANCH   1  15
BRANCH   8  25
ATOM     25  C   UNL     1      -1.792  10.428  18.004  0.00  0.00    +0.000 C 
ATOM     26  F   UNL     1      -2.887   9.644  18.186  0.00  0.00    +0.000 F 
ATOM     27  F   UNL     1      -2.190  11.444  17.195  0.00  0.00    +0.000 F 
ATOM     28  F   UNL     1      -0.917   9.685  17.267  0.00  0.00    +0.000 F 
ENDBRANCH   8  25
BRANCH   6  29
ATOM     29  C   UNL     1       0.414  14.242  20.472  0.00  0.00    +0.000 C 
BRANCH  29  30
ATOM     30  O   UNL     1       1.780  14.236  20.061  0.00  0.00    +0.000 OA
BRANCH  30  31
ATOM     31  N   UNL     1       1.889  14.694  18.684  0.00  0.00    +0.000 NA
ATOM     32  C   UNL     1       3.160  14.079  18.226  0.00  0.00    +0.000 C 
ATOM     33  C   UNL     1       3.654  15.474  17.801  0.00  0.00    +0.000 C 
ATOM     34  F   UNL     1       3.499  15.791  16.493  0.00  0.00    +0.000 F 
ATOM     35  C   UNL     1       2.576  16.005  18.763  0.00  0.00    +0.000 C 
ENDBRANCH  30  31
ENDBRANCH  29  30
ENDBRANCH   6  29
TORSDOF 8
ENDMDL
MODEL 5
REMARK VINA RESULT:      -7.6      1.824      2.555
REMARK  Name = 
REMARK  9 active torsions:
REMARK  status: ('A' for Active; 'I' for Inactive)
REMARK    1  A    between atoms: C_1  and  C_2
REMARK    2  A    between atoms: C_2  and  N_3
REMARK    3  A    between atoms: N_3  and  C_4
REMARK    4  A    between atoms: C_4  and  C_5
REMARK    5  A    between atoms: C_9  and  N_10
REMARK    6  A    between atoms: C_15  and  C_16
REMARK    7  A    between atoms: C_16  and  O_17
REMARK    8  A    between atoms: O_17  and  N_18
REMARK    9  A    between atoms: C_24  and  C_25
REMARK                            x       y       z     vdW  Elec       q    Type
REMARK                         _______ _______ _______ _____ _____    ______ ____
ROOT
ATOM      1  N   UNL     1       0.699   8.308  21.268  0.00  0.00    +0.000 N 
ATOM      2  C   UNL     1      -0.552   8.616  20.536  0.00  0.00    +0.000 C 
ATOM      3  C   UNL     1      -0.420  10.085  20.285  0.00  0.00    +0.000 A 
ATOM      4  C   UNL     1       0.413  10.609  21.283  0.00  0.00    +0.000 A 
ATOM      5  C   UNL     1       0.946  11.889  21.234  0.00  0.00    +0.000 A 
ATOM      6  C   UNL     1       0.655  12.661  20.111  0.00  0.00    +0.000 A 
ATOM      7  C   UNL     1      -0.176  12.129  19.093  0.00  0.00    +0.000 A 
ATOM      8  C   UNL     1      -0.736  10.837  19.162  0.00  0.00    +0.000 A 
ATOM      9  C   UNL     1       1.061   9.480  21.970  0.00  0.00    +0.000 C 
ATOM     10  O   UNL     1       1.876   9.598  22.860  0.00  0.00    +0.000 OA
ENDROOT
BRANCH   1  15
ATOM     11  C   UNL     1       2.300   5.693  19.274  0.00  0.00    +0.000 A 
ATOM     12  C   UNL     1       2.466   6.421  18.074  0.00  0.00    +0.000 A 
ATOM     13  C   UNL     1       2.332   7.807  18.018  0.00  0.00    +0.000 A 
ATOM     14  C   UNL     1       1.980   8.507  19.162  0.00  0.00    +0.000 A 
ATOM     15  C   UNL     1       1.685   7.803  20.343  0.00  0.00    +0.000 A 
ATOM     16  C   UNL     1       1.939   6.437  20.412  0.00  0.00    +0.000 A 
BRANCH  11  17
ATOM     17  C   UNL     1       2.406   4.119  19.322  0.00  0.00    +0.000 C 
ATOM     18  C   UNL     1       1.773   3.310  20.485  0.00  0.00    +0.000 C 
ATOM     19  O   UNL     1       0.664   2.892  19.650  0.00  0.00    +0.000 OA
ATOM     20  C   UNL     1       1.385   3.312  18.465  0.00  0.00    +0.000 C 
BRANCH  17  21
ATOM     21  N   UNL     1       3.771   3.623  19.015  0.00  0.00    +0.000 NA
ATOM     22  H   UNL     1       4.491   4.345  19.062  0.00  0.00    +0.000 HD
BRANCH  21  24
ATOM     23  C   UNL     1       4.707   3.795  16.758  0.00  0.00    +0.000 C 
ATOM     24  C   UNL     1       3.831   2.978  17.698  0.00  0.00    +0.000 C 
ENDBRANCH  21  24
ENDBRANCH  17  21
ENDBRANCH  11  17
ENDBRANCH   1  15
BRANCH   8  25
ATOM     25  C   UNL     1      -1.469  10.299  17.957  0.00  0.00    +0.000 C 
ATOM     26  F   UNL     1      -2.606   9.619  18.256  0.00  0.00    +0.000 F 
ATOM     27  F   UNL     1      -1.838  11.282  17.094  0.00  0.00    +0.000 F 
ATOM     28  F   UNL     1      -0.696   9.440  17.234  0.00  0.00    +0.000 F 
ENDBRANCH   8  25
BRANCH   6  29
ATOM     29  C   UNL     1       1.384  13.975  19.919  0.00  0.00    +0.000 C 
BRANCH  29  30
ATOM     30  O   UNL     1       0.429  15.034  19.916  0.00  0.00    +0.000 OA
BRANCH  30  31
ATOM     31  N   UNL     1       0.372  15.650  18.598  0.00  0.00    +0.000 NA
ATOM     32  C   UNL     1       1.675  16.355  18.501  0.00  0.00    +0.000 C 
ATOM     33  C   UNL     1       0.920  17.655  18.172  0.00  0.00    +0.000 C 
ATOM     34  F   UNL     1       0.812  17.968  16.859  0.00  0.00    +0.000 F 
ATOM     35  C   UNL     1      -0.295  16.956  18.808  0.00  0.00    +0.000 C 
ENDBRANCH  30  31
ENDBRANCH  29  30
ENDBRANCH   6  29
TORSDOF 8
ENDMDL
MODEL 6
REMARK VINA RESULT:      -7.5      1.297      1.946
REMARK  Name = 
REMARK  9 active torsions:
REMARK  status: ('A' for Active; 'I' for Inactive)
REMARK    1  A    between atoms: C_1  and  C_2
REMARK    2  A    between atoms: C_2  and  N_3
REMARK    3  A    between atoms: N_3  and  C_4
REMARK    4  A    between atoms: C_4  and  C_5
REMARK    5  A    between atoms: C_9  and  N_10
REMARK    6  A    between atoms: C_15  and  C_16
REMARK    7  A    between atoms: C_16  and  O_17
REMARK    8  A    between atoms: O_17  and  N_18
REMARK    9  A    between atoms: C_24  and  C_25
REMARK                            x       y       z     vdW  Elec       q    Type
REMARK                         _______ _______ _______ _____ _____    ______ ____
ROOT
ATOM      1  N   UNL     1       0.692   8.415  21.117  0.00  0.00    +0.000 N 
ATOM      2  C   UNL     1      -0.578   8.685  20.404  0.00  0.00    +0.000 C 
ATOM      3  C   UNL     1      -0.550  10.173  20.256  0.00  0.00    +0.000 A 
ATOM      4  C   UNL     1       0.246  10.683  21.291  0.00  0.00    +0.000 A 
ATOM      5  C   UNL     1       0.688  11.997  21.333  0.00  0.00    +0.000 A 
ATOM      6  C   UNL     1       0.341  12.823  20.266  0.00  0.00    +0.000 A 
ATOM      7  C   UNL     1      -0.452  12.307  19.211  0.00  0.00    +0.000 A 
ATOM      8  C   UNL     1      -0.919  10.978  19.188  0.00  0.00    +0.000 A 
ATOM      9  C   UNL     1       0.972   9.556  21.900  0.00  0.00    +0.000 C 
ATOM     10  O   UNL     1       1.779   9.669  22.799  0.00  0.00    +0.000 OA
ENDROOT
BRANCH   1  15
ATOM     11  C   UNL     1       2.475   6.062  18.956  0.00  0.00    +0.000 A 
ATOM     12  C   UNL     1       2.583   6.878  17.807  0.00  0.00    +0.000 A 
ATOM     13  C   UNL     1       2.348   8.251  17.843  0.00  0.00    +0.000 A 
ATOM     14  C   UNL     1       1.949   8.846  19.031  0.00  0.00    +0.000 A 
ATOM     15  C   UNL     1       1.710   8.045  20.161  0.00  0.00    +0.000 A 
ATOM     16  C   UNL     1       2.063   6.699  20.140  0.00  0.00    +0.000 A 
BRANCH  11  17
ATOM     17  C   UNL     1       2.695   4.500  18.899  0.00  0.00    +0.000 C 
ATOM     18  C   UNL     1       1.505   3.517  19.067  0.00  0.00    +0.000 C 
ATOM     19  O   UNL     1       1.473   3.244  17.644  0.00  0.00    +0.000 OA
ATOM     20  C   UNL     1       2.783   3.845  17.488  0.00  0.00    +0.000 C 
BRANCH  17  21
ATOM     21  N   UNL     1       3.865   4.053  19.696  0.00  0.00    +0.000 NA
ATOM     22  H   UNL     1       4.039   4.622  20.525  0.00  0.00    +0.000 HD
BRANCH  21  24
ATOM     23  C   UNL     1       5.960   5.219  19.194  0.00  0.00    +0.000 C 
ATOM     24  C   UNL     1       5.089   4.009  18.886  0.00  0.00    +0.000 C 
ENDBRANCH  21  24
ENDBRANCH  17  21
ENDBRANCH  11  17
ENDBRANCH   1  15
BRANCH   8  25
ATOM     25  C   UNL     1      -1.615  10.475  17.945  0.00  0.00    +0.000 C 
ATOM     26  F   UNL     1      -2.766   9.796  18.188  0.00  0.00    +0.000 F 
ATOM     27  F   UNL     1      -1.948  11.482  17.096  0.00  0.00    +0.000 F 
ATOM     28  F   UNL     1      -0.823   9.628  17.227  0.00  0.00    +0.000 F 
ENDBRANCH   8  25
BRANCH   6  29
ATOM     29  C   UNL     1       0.977  14.195  20.169  0.00  0.00    +0.000 C 
BRANCH  29  30
ATOM     30  O   UNL     1       1.594  14.326  18.889  0.00  0.00    +0.000 OA
BRANCH  30  31
ATOM     31  N   UNL     1       2.666  15.308  18.950  0.00  0.00    +0.000 NA
ATOM     32  C   UNL     1       3.338  15.153  17.635  0.00  0.00    +0.000 C 
ATOM     33  C   UNL     1       4.675  14.947  18.369  0.00  0.00    +0.000 C 
ATOM     34  F   UNL     1       5.466  16.040  18.487  0.00  0.00    +0.000 F 
ATOM     35  C   UNL     1       3.802  14.604  19.589  0.00  0.00    +0.000 C 
ENDBRANCH  30  31
ENDBRANCH  29  30
ENDBRANCH   6  29
TORSDOF 8
ENDMDL
MODEL 7
REMARK VINA RESULT:      -7.5      1.272      1.429
REMARK  Name = 
REMARK  9 active torsions:
REMARK  status: ('A' for Active; 'I' for Inactive)
REMARK    1  A    between atoms: C_1  and  C_2
REMARK    2  A    between atoms: C_2  and  N_3
REMARK    3  A    between atoms: N_3  and  C_4
REMARK    4  A    between atoms: C_4  and  C_5
REMARK    5  A    between atoms: C_9  and  N_10
REMARK    6  A    between atoms: C_15  and  C_16
REMARK    7  A    between atoms: C_16  and  O_17
REMARK    8  A    between atoms: O_17  and  N_18
REMARK    9  A    between atoms: C_24  and  C_25
REMARK                            x       y       z     vdW  Elec       q    Type
REMARK                         _______ _______ _______ _____ _____    ______ ____
ROOT
ATOM      1  N   UNL     1       0.802   8.353  21.105  0.00  0.00    +0.000 N 
ATOM      2  C   UNL     1      -0.477   8.615  20.403  0.00  0.00    +0.000 C 
ATOM      3  C   UNL     1      -0.436  10.098  20.210  0.00  0.00    +0.000 A 
ATOM      4  C   UNL     1       0.381  10.631  21.217  0.00  0.00    +0.000 A 
ATOM      5  C   UNL     1       0.836  11.940  21.214  0.00  0.00    +0.000 A 
ATOM      6  C   UNL     1       0.482  12.738  20.127  0.00  0.00    +0.000 A 
ATOM      7  C   UNL     1      -0.331  12.199  19.099  0.00  0.00    +0.000 A 
ATOM      8  C   UNL     1      -0.812  10.874  19.123  0.00  0.00    +0.000 A 
ATOM      9  C   UNL     1       1.104   9.515  21.850  0.00  0.00    +0.000 C 
ATOM     10  O   UNL     1       1.925   9.647  22.733  0.00  0.00    +0.000 OA
ENDROOT
BRANCH   1  15
ATOM     11  C   UNL     1       2.454   5.946  18.902  0.00  0.00    +0.000 A 
ATOM     12  C   UNL     1       2.618   6.780  17.772  0.00  0.00    +0.000 A 
ATOM     13  C   UNL     1       2.466   8.163  17.838  0.00  0.00    +0.000 A 
ATOM     14  C   UNL     1       2.095   8.755  19.036  0.00  0.00    +0.000 A 
ATOM     15  C   UNL     1       1.801   7.944  20.147  0.00  0.00    +0.000 A 
ATOM     16  C   UNL     1       2.073   6.581  20.097  0.00  0.00    +0.000 A 
BRANCH  11  17
ATOM     17  C   UNL     1       2.580   4.375  18.811  0.00  0.00    +0.000 C 
ATOM     18  C   UNL     1       1.422   3.511  18.246  0.00  0.00    +0.000 C 
ATOM     19  O   UNL     1       2.119   3.320  16.989  0.00  0.00    +0.000 OA
ATOM     20  C   UNL     1       3.351   3.794  17.589  0.00  0.00    +0.000 C 
BRANCH  17  21
ATOM     21  N   UNL     1       3.137   3.770  20.047  0.00  0.00    +0.000 NA
ATOM     22  H   UNL     1       4.112   3.481  19.960  0.00  0.00    +0.000 HD
BRANCH  21  24
ATOM     23  C   UNL     1       1.772   2.895  21.882  0.00  0.00    +0.000 C 
ATOM     24  C   UNL     1       2.341   2.622  20.497  0.00  0.00    +0.000 C 
ENDBRANCH  21  24
ENDBRANCH  17  21
ENDBRANCH  11  17
ENDBRANCH   1  15
BRANCH   8  25
ATOM     25  C   UNL     1      -1.531  10.342  17.907  0.00  0.00    +0.000 C 
ATOM     26  F   UNL     1      -1.913  11.300  17.022  0.00  0.00    +0.000 F 
ATOM     27  F   UNL     1      -0.772   9.463  17.200  0.00  0.00    +0.000 F 
ATOM     28  F   UNL     1      -2.667   9.667  18.243  0.00  0.00    +0.000 F 
ENDBRANCH   8  25
BRANCH   6  29
ATOM     29  C   UNL     1       1.130  14.100  19.980  0.00  0.00    +0.000 C 
BRANCH  29  30
ATOM     30  O   UNL     1       1.796  14.157  18.719  0.00  0.00    +0.000 OA
BRANCH  30  31
ATOM     31  N   UNL     1       2.466  15.440  18.567  0.00  0.00    +0.000 NA
ATOM     32  C   UNL     1       3.711  15.084  17.841  0.00  0.00    +0.000 C 
ATOM     33  C   UNL     1       4.526  15.784  18.942  0.00  0.00    +0.000 C 
ATOM     34  F   UNL     1       4.908  17.058  18.686  0.00  0.00    +0.000 F 
ATOM     35  C   UNL     1       3.263  15.611  19.804  0.00  0.00    +0.000 C 
ENDBRANCH  30  31
ENDBRANCH  29  30
ENDBRANCH   6  29
TORSDOF 8
ENDMDL
MODEL 8
REMARK VINA RESULT:      -7.4      4.632      8.056
REMARK  Name = 
REMARK  9 active torsions:
REMARK  status: ('A' for Active; 'I' for Inactive)
REMARK    1  A    between atoms: C_1  and  C_2
REMARK    2  A    between atoms: C_2  and  N_3
REMARK    3  A    between atoms: N_3  and  C_4
REMARK    4  A    between atoms: C_4  and  C_5
REMARK    5  A    between atoms: C_9  and  N_10
REMARK    6  A    between atoms: C_15  and  C_16
REMARK    7  A    between atoms: C_16  and  O_17
REMARK    8  A    between atoms: O_17  and  N_18
REMARK    9  A    between atoms: C_24  and  C_25
REMARK                            x       y       z     vdW  Elec       q    Type
REMARK                         _______ _______ _______ _____ _____    ______ ____
ROOT
ATOM      1  N   UNL     1      -0.213  11.361  18.520  0.00  0.00    +0.000 N 
ATOM      2  C   UNL     1       0.489  10.544  19.537  0.00  0.00    +0.000 C 
ATOM      3  C   UNL     1       0.053  11.184  20.816  0.00  0.00    +0.000 A 
ATOM      4  C   UNL     1      -0.277  12.516  20.529  0.00  0.00    +0.000 A 
ATOM      5  C   UNL     1      -0.941  13.344  21.421  0.00  0.00    +0.000 A 
ATOM      6  C   UNL     1      -1.322  12.794  22.643  0.00  0.00    +0.000 A 
ATOM      7  C   UNL     1      -1.004  11.443  22.932  0.00  0.00    +0.000 A 
ATOM      8  C   UNL     1      -0.305  10.615  22.030  0.00  0.00    +0.000 A 
ATOM      9  C   UNL     1      -0.360  12.655  19.066  0.00  0.00    +0.000 C 
ATOM     10  O   UNL     1      -0.669  13.679  18.493  0.00  0.00    +0.000 OA
ENDROOT
BRANCH   1  15
ATOM     11  C   UNL     1      -3.814  11.214  17.893  0.00  0.00    +0.000 A 
ATOM     12  C   UNL     1      -3.783  10.491  16.678  0.00  0.00    +0.000 A 
ATOM     13  C   UNL     1      -2.644   9.818  16.240  0.00  0.00    +0.000 A 
ATOM     14  C   UNL     1      -1.478   9.887  16.988  0.00  0.00    +0.000 A 
ATOM     15  C   UNL     1      -1.438  10.699  18.135  0.00  0.00    +0.000 A 
ATOM     16  C   UNL     1      -2.612  11.265  18.621  0.00  0.00    +0.000 A 
BRANCH  11  17
ATOM     17  C   UNL     1      -5.092  12.014  18.360  0.00  0.00    +0.000 C 
ATOM     18  C   UNL     1      -6.219  12.378  17.357  0.00  0.00    +0.000 C 
ATOM     19  O   UNL     1      -7.078  11.331  17.875  0.00  0.00    +0.000 OA
ATOM     20  C   UNL     1      -6.230  11.199  19.044  0.00  0.00    +0.000 C 
BRANCH  17  21
ATOM     21  N   UNL     1      -4.761  13.173  19.227  0.00  0.00    +0.000 NA
ATOM     22  H   UNL     1      -3.988  12.998  19.869  0.00  0.00    +0.000 HD
BRANCH  21  24
ATOM     23  C   UNL     1      -6.112  15.127  19.821  0.00  0.00    +0.000 C 
ATOM     24  C   UNL     1      -5.925  13.626  19.997  0.00  0.00    +0.000 C 
ENDBRANCH  21  24
ENDBRANCH  17  21
ENDBRANCH  11  17
ENDBRANCH   1  15
BRANCH   8  25
ATOM     25  C   UNL     1      -0.159   9.148  22.358  0.00  0.00    +0.000 C 
ATOM     26  F   UNL     1      -0.942   8.330  21.608  0.00  0.00    +0.000 F 
ATOM     27  F   UNL     1       1.115   8.705  22.189  0.00  0.00    +0.000 F 
ATOM     28  F   UNL     1      -0.476   8.884  23.657  0.00  0.00    +0.000 F 
ENDBRANCH   8  25
BRANCH   6  29
ATOM     29  C   UNL     1      -2.231  13.596  23.553  0.00  0.00    +0.000 C 
BRANCH  29  30
ATOM     30  O   UNL     1      -3.215  12.723  24.105  0.00  0.00    +0.000 OA
BRANCH  30  31
ATOM     31  N   UNL     1      -4.451  12.818  23.343  0.00  0.00    +0.000 NA
ATOM     32  C   UNL     1      -4.747  14.273  23.366  0.00  0.00    +0.000 C 
ATOM     33  C   UNL     1      -6.147  13.954  23.921  0.00  0.00    +0.000 C 
ATOM     34  F   UNL     1      -7.153  13.906  23.015  0.00  0.00    +0.000 F 
ATOM     35  C   UNL     1      -5.534  12.603  24.331  0.00  0.00    +0.000 C 
ENDBRANCH  30  31
ENDBRANCH  29  30
ENDBRANCH   6  29
TORSDOF 8
ENDMDL
MODEL 9
REMARK VINA RESULT:      -7.4      4.612      8.216
REMARK  Name = 
REMARK  9 active torsions:
REMARK  status: ('A' for Active; 'I' for Inactive)
REMARK    1  A    between atoms: C_1  and  C_2
REMARK    2  A    between atoms: C_2  and  N_3
REMARK    3  A    between atoms: N_3  and  C_4
REMARK    4  A    between atoms: C_4  and  C_5
REMARK    5  A    between atoms: C_9  and  N_10
REMARK    6  A    between atoms: C_15  and  C_16
REMARK    7  A    between atoms: C_16  and  O_17
REMARK    8  A    between atoms: O_17  and  N_18
REMARK    9  A    between atoms: C_24  and  C_25
REMARK                            x       y       z     vdW  Elec       q    Type
REMARK                         _______ _______ _______ _____ _____    ______ ____
ROOT
ATOM      1  N   UNL     1      -0.246  11.337  18.456  0.00  0.00    +0.000 N 
ATOM      2  C   UNL     1       0.513  10.547  19.453  0.00  0.00    +0.000 C 
ATOM      3  C   UNL     1       0.069  11.156  20.746  0.00  0.00    +0.000 A 
ATOM      4  C   UNL     1      -0.329  12.473  20.475  0.00  0.00    +0.000 A 
ATOM      5  C   UNL     1      -1.016  13.261  21.386  0.00  0.00    +0.000 A 
ATOM      6  C   UNL     1      -1.349  12.684  22.609  0.00  0.00    +0.000 A 
ATOM      7  C   UNL     1      -0.962  11.348  22.881  0.00  0.00    +0.000 A 
ATOM      8  C   UNL     1      -0.240  10.561  21.961  0.00  0.00    +0.000 A 
ATOM      9  C   UNL     1      -0.445  12.619  19.015  0.00  0.00    +0.000 C 
ATOM     10  O   UNL     1      -0.812  13.631  18.457  0.00  0.00    +0.000 OA
ENDROOT
BRANCH   1  15
ATOM     11  C   UNL     1      -3.826  11.057  17.756  0.00  0.00    +0.000 A 
ATOM     12  C   UNL     1      -3.747  10.258  16.592  0.00  0.00    +0.000 A 
ATOM     13  C   UNL     1      -2.581   9.588  16.226  0.00  0.00    +0.000 A 
ATOM     14  C   UNL     1      -1.436   9.735  16.995  0.00  0.00    +0.000 A 
ATOM     15  C   UNL     1      -1.444  10.621  18.087  0.00  0.00    +0.000 A 
ATOM     16  C   UNL     1      -2.644  11.186  18.507  0.00  0.00    +0.000 A 
BRANCH  11  17
ATOM     17  C   UNL     1      -5.134  11.852  18.141  0.00  0.00    +0.000 C 
ATOM     18  C   UNL     1      -6.358  11.127  18.760  0.00  0.00    +0.000 C 
ATOM     19  O   UNL     1      -6.045  11.633  20.081  0.00  0.00    +0.000 OA
ATOM     20  C   UNL     1      -5.134  12.603  19.506  0.00  0.00    +0.000 C 
BRANCH  17  21
ATOM     21  N   UNL     1      -5.562  12.803  17.084  0.00  0.00    +0.000 NA
ATOM     22  H   UNL     1      -5.025  13.671  17.070  0.00  0.00    +0.000 HD
BRANCH  21  24
ATOM     23  C   UNL     1      -7.253  14.505  16.597  0.00  0.00    +0.000 C 
ATOM     24  C   UNL     1      -6.989  13.129  17.191  0.00  0.00    +0.000 C 
ENDBRANCH  21  24
ENDBRANCH  17  21
ENDBRANCH  11  17
ENDBRANCH   1  15
BRANCH   8  25
ATOM     25  C   UNL     1      -0.018   9.101  22.273  0.00  0.00    +0.000 C 
ATOM     26  F   UNL     1      -0.307   8.756  23.555  0.00  0.00    +0.000 F 
ATOM     27  F   UNL     1      -0.768   8.284  21.488  0.00  0.00    +0.000 F 
ATOM     28  F   UNL     1       1.278   8.729  22.068  0.00  0.00    +0.000 F 
ENDBRANCH   8  25
BRANCH   6  29
ATOM     29  C   UNL     1      -2.278  13.435  23.542  0.00  0.00    +0.000 C 
BRANCH  29  30
ATOM     30  O   UNL     1      -3.412  12.614  23.820  0.00  0.00    +0.000 OA
BRANCH  30  31
ATOM     31  N   UNL     1      -4.526  13.436  24.266  0.00  0.00    +0.000 NA
ATOM     32  C   UNL     1      -5.479  12.439  24.816  0.00  0.00    +0.000 C 
ATOM     33  C   UNL     1      -6.572  13.009  23.895  0.00  0.00    +0.000 C 
ATOM     34  F   UNL     1      -7.412  13.913  24.454  0.00  0.00    +0.000 F 
ATOM     35  C   UNL     1      -5.400  13.583  23.078  0.00  0.00    +0.000 C 
ENDBRANCH  30  31
ENDBRANCH  29  30
ENDBRANCH   6  29
TORSDOF 8
ENDMDL
