MODEL 1
REMARK VINA RESULT:      -8.9      0.000      0.000
REMARK  Name = 
REMARK  9 active torsions:
REMARK  status: ('A' for Active; 'I' for Inactive)
REMARK    1  A    between atoms: C_1  and  C_2
REMARK    2  A    between atoms: C_5  and  C_6
REMARK    3  A    between atoms: C_7  and  C_8
REMARK    4  A    between atoms: C_8  and  O_9
REMARK    5  A    between atoms: O_9  and  C_10
REMARK    6  A    between atoms: C_14  and  C_15
REMARK    7  A    between atoms: N_17  and  C_18
REMARK    8  A    between atoms: C_18  and  C_19
REMARK    9  A    between atoms: C_18  and  C_20
REMARK                            x       y       z     vdW  Elec       q    Type
REMARK                         _______ _______ _______ _____ _____    ______ ____
ROOT
ATOM      1  C   UNL     1       3.043   5.088  18.518  0.00  0.00    +0.000 A 
ATOM      2  C   UNL     1       2.812   4.126  19.505  0.00  0.00    +0.000 A 
ATOM      3  C   UNL     1       2.126   4.468  20.671  0.00  0.00    +0.000 A 
ATOM      4  C   UNL     1       1.697   5.782  20.867  0.00  0.00    +0.000 A 
ATOM      5  C   UNL     1       1.981   6.767  19.911  0.00  0.00    +0.000 A 
ATOM      6  C   UNL     1       2.645   6.411  18.731  0.00  0.00    +0.000 A 
ENDROOT
BRANCH   5   7
ATOM      7  C   UNL     1       1.528   8.169  20.160  0.00  0.00    +0.000 C 
ATOM      8  O   UNL     1       1.230   8.527  21.289  0.00  0.00    +0.000 OA
ATOM      9  N   UNL     1       1.495   9.010  19.065  0.00  0.00    +0.000 N 
ATOM     10  H   UNL     1       1.975   8.751  18.213  0.00  0.00    +0.000 HD
BRANCH   9  11
ATOM     11  C   UNL     1       1.173  10.422  19.204  0.00  0.00    +0.000 C 
ATOM     12  C   UNL     1       2.135  11.282  18.386  0.00  0.00    +0.000 C 
BRANCH  11  13
ATOM     13  C   UNL     1      -0.238  10.623  18.750  0.00  0.00    +0.000 A 
ATOM     14  C   UNL     1      -1.319  11.310  19.273  0.00  0.00    +0.000 A 
ATOM     15  C   UNL     1      -2.400  11.123  18.369  0.00  0.00    +0.000 A 
ATOM     16  C   UNL     1      -3.748  11.522  18.309  0.00  0.00    +0.000 A 
ATOM     17  C   UNL     1      -4.523  11.114  17.211  0.00  0.00    +0.000 A 
ATOM     18  C   UNL     1      -3.968  10.348  16.182  0.00  0.00    +0.000 A 
ATOM     19  C   UNL     1      -2.627   9.954  16.217  0.00  0.00    +0.000 A 
ATOM     20  C   UNL     1      -1.893  10.348  17.333  0.00  0.00    +0.000 A 
ATOM     21  O   UNL     1      -0.593  10.031  17.569  0.00  0.00    +0.000 OA
ENDBRANCH  11  13
ENDBRANCH   9  11
ENDBRANCH   5   7
BRANCH   1  22
ATOM     22  O   UNL     1       3.667   4.633  17.388  0.00  0.00    +0.000 OA
BRANCH  22  23
ATOM     23  C   UNL     1       4.587   5.551  16.785  0.00  0.00    +0.000 C 
BRANCH  23  30
ATOM     24  C   UNL     1       6.454   5.412  19.438  0.00  0.00    +0.000 C 
ATOM     25  C   UNL     1       6.795   4.994  18.058  0.00  0.00    +0.000 A 
ATOM     26  N   UNL     1       7.992   4.460  17.789  0.00  0.00    +0.000 NA
ATOM     27  O   UNL     1       7.983   4.176  16.438  0.00  0.00    +0.000 OA
ATOM     28  C   UNL     1       6.786   4.535  15.904  0.00  0.00    +0.000 A 
ATOM     29  C   UNL     1       6.608   4.279  14.463  0.00  0.00    +0.000 C 
ATOM     30  C   UNL     1       5.984   5.065  16.893  0.00  0.00    +0.000 A 
ENDBRANCH  23  30
ENDBRANCH  22  23
ENDBRANCH   1  22
TORSDOF 6
ENDMDL
MODEL 2
REMARK VINA RESULT:      -8.8      0.670      1.599
REMARK  Name = 
REMARK  9 active torsions:
REMARK  status: ('A' for Active; 'I' for Inactive)
REMARK    1  A    between atoms: C_1  and  C_2
REMARK    2  A    between atoms: C_5  and  C_6
REMARK    3  A    between atoms: C_7  and  C_8
REMARK    4  A    between atoms: C_8  and  O_9
REMARK    5  A    between atoms: O_9  and  C_10
REMARK    6  A    between atoms: C_14  and  C_15
REMARK    7  A    between atoms: N_17  and  C_18
REMARK    8  A    between atoms: C_18  and  C_19
REMARK    9  A    between atoms: C_18  and  C_20
REMARK                            x       y       z     vdW  Elec       q    Type
REMARK                         _______ _______ _______ _____ _____    ______ ____
ROOT
ATOM      1  C   UNL     1       2.915   5.345  18.289  0.00  0.00    +0.000 A 
ATOM      2  C   UNL     1       2.898   4.371  19.290  0.00  0.00    +0.000 A 
ATOM      3  C   UNL     1       2.384   4.670  20.552  0.00  0.00    +0.000 A 
ATOM      4  C   UNL     1       1.913   5.956  20.825  0.00  0.00    +0.000 A 
ATOM      5  C   UNL     1       1.985   6.957  19.846  0.00  0.00    +0.000 A 
ATOM      6  C   UNL     1       2.477   6.642  18.574  0.00  0.00    +0.000 A 
ENDROOT
BRANCH   5   7
ATOM      7  C   UNL     1       1.495   8.329  20.176  0.00  0.00    +0.000 C 
ATOM      8  O   UNL     1       1.299   8.648  21.339  0.00  0.00    +0.000 OA
ATOM      9  N   UNL     1       1.308   9.190  19.113  0.00  0.00    +0.000 N 
ATOM     10  H   UNL     1       1.708   8.972  18.209  0.00  0.00    +0.000 HD
BRANCH   9  11
ATOM     11  C   UNL     1       0.935  10.580  19.321  0.00  0.00    +0.000 C 
ATOM     12  C   UNL     1       1.939  11.518  18.653  0.00  0.00    +0.000 C 
BRANCH  11  13
ATOM     13  C   UNL     1      -0.437  10.782  18.758  0.00  0.00    +0.000 A 
ATOM     14  C   UNL     1      -1.541  11.502  19.176  0.00  0.00    +0.000 A 
ATOM     15  C   UNL     1      -2.557  11.295  18.203  0.00  0.00    +0.000 A 
ATOM     16  C   UNL     1      -3.891  11.709  18.030  0.00  0.00    +0.000 A 
ATOM     17  C   UNL     1      -4.591  11.270  16.894  0.00  0.00    +0.000 A 
ATOM     18  C   UNL     1      -3.975  10.460  15.936  0.00  0.00    +0.000 A 
ATOM     19  C   UNL     1      -2.646  10.050  16.084  0.00  0.00    +0.000 A 
ATOM     20  C   UNL     1      -1.989  10.476  17.235  0.00  0.00    +0.000 A 
ATOM     21  O   UNL     1      -0.714  10.152  17.576  0.00  0.00    +0.000 OA
ENDBRANCH  11  13
ENDBRANCH   9  11
ENDBRANCH   5   7
BRANCH   1  22
ATOM     22  O   UNL     1       3.381   4.929  17.070  0.00  0.00    +0.000 OA
BRANCH  22  23
ATOM     23  C   UNL     1       4.345   3.871  17.112  0.00  0.00    +0.000 C 
BRANCH  23  30
ATOM     24  C   UNL     1       5.964   3.849  14.297  0.00  0.00    +0.000 C 
ATOM     25  C   UNL     1       6.415   4.376  15.606  0.00  0.00    +0.000 A 
ATOM     26  N   UNL     1       7.616   4.954  15.725  0.00  0.00    +0.000 NA
ATOM     27  O   UNL     1       7.720   5.339  17.047  0.00  0.00    +0.000 OA
ATOM     28  C   UNL     1       6.586   4.996  17.712  0.00  0.00    +0.000 A 
ATOM     29  C   UNL     1       6.530   5.356  19.142  0.00  0.00    +0.000 C 
ATOM     30  C   UNL     1       5.713   4.377  16.842  0.00  0.00    +0.000 A 
ENDBRANCH  23  30
ENDBRANCH  22  23
ENDBRANCH   1  22
TORSDOF 6
ENDMDL
MODEL 3
REMARK VINA RESULT:      -8.8      1.185      2.087
REMARK  Name = 
REMARK  9 active torsions:
REMARK  status: ('A' for Active; 'I' for Inactive)
REMARK    1  A    between atoms: C_1  and  C_2
REMARK    2  A    between atoms: C_5  and  C_6
REMARK    3  A    between atoms: C_7  and  C_8
REMARK    4  A    between atoms: C_8  and  O_9
REMARK    5  A    between atoms: O_9  and  C_10
REMARK    6  A    between atoms: C_14  and  C_15
REMARK    7  A    between atoms: N_17  and  C_18
REMARK    8  A    between atoms: C_18  and  C_19
REMARK    9  A    between atoms: C_18  and  C_20
REMARK                            x       y       z     vdW  Elec       q    Type
REMARK                         _______ _______ _______ _____ _____    ______ ____
ROOT
ATOM      1  C   UNL     1       3.165   5.535  18.244  0.00  0.00    +0.000 A 
ATOM      2  C   UNL     1       3.098   4.512  19.192  0.00  0.00    +0.000 A 
ATOM      3  C   UNL     1       2.481   4.734  20.423  0.00  0.00    +0.000 A 
ATOM      4  C   UNL     1       1.956   5.993  20.721  0.00  0.00    +0.000 A 
ATOM      5  C   UNL     1       2.075   7.044  19.801  0.00  0.00    +0.000 A 
ATOM      6  C   UNL     1       2.672   6.806  18.556  0.00  0.00    +0.000 A 
ENDROOT
BRANCH   5   7
ATOM      7  C   UNL     1       1.524   8.386  20.158  0.00  0.00    +0.000 C 
ATOM      8  O   UNL     1       1.396   8.705  21.330  0.00  0.00    +0.000 OA
ATOM      9  N   UNL     1       1.202   9.220  19.106  0.00  0.00    +0.000 N 
ATOM     10  H   UNL     1       1.546   9.018  18.176  0.00  0.00    +0.000 HD
BRANCH   9  11
ATOM     11  C   UNL     1       0.757  10.586  19.332  0.00  0.00    +0.000 C 
ATOM     12  C   UNL     1       1.699  11.583  18.660  0.00  0.00    +0.000 C 
BRANCH  11  13
ATOM     13  C   UNL     1      -0.632  10.718  18.792  0.00  0.00    +0.000 A 
ATOM     14  C   UNL     1      -1.285  10.174  17.700  0.00  0.00    +0.000 A 
ATOM     15  C   UNL     1      -2.610  10.686  17.718  0.00  0.00    +0.000 A 
ATOM     16  C   UNL     1      -3.756  10.556  16.911  0.00  0.00    +0.000 A 
ATOM     17  C   UNL     1      -4.919  11.255  17.275  0.00  0.00    +0.000 A 
ATOM     18  C   UNL     1      -4.955  12.045  18.427  0.00  0.00    +0.000 A 
ATOM     19  C   UNL     1      -3.831  12.175  19.249  0.00  0.00    +0.000 A 
ATOM     20  C   UNL     1      -2.685  11.495  18.846  0.00  0.00    +0.000 A 
ATOM     21  O   UNL     1      -1.487  11.529  19.486  0.00  0.00    +0.000 OA
ENDBRANCH  11  13
ENDBRANCH   9  11
ENDBRANCH   5   7
BRANCH   1  22
ATOM     22  O   UNL     1       3.735   5.193  17.046  0.00  0.00    +0.000 OA
BRANCH  22  23
ATOM     23  C   UNL     1       4.908   4.377  17.137  0.00  0.00    +0.000 C 
BRANCH  23  30
ATOM     24  C   UNL     1       5.682   3.944  14.013  0.00  0.00    +0.000 C 
ATOM     25  C   UNL     1       6.369   4.791  15.016  0.00  0.00    +0.000 A 
ATOM     26  N   UNL     1       7.436   5.521  14.668  0.00  0.00    +0.000 NA
ATOM     27  O   UNL     1       7.823   6.191  15.812  0.00  0.00    +0.000 OA
ATOM     28  C   UNL     1       6.991   5.866  16.835  0.00  0.00    +0.000 A 
ATOM     29  C   UNL     1       7.261   6.515  18.132  0.00  0.00    +0.000 C 
ATOM     30  C   UNL     1       6.039   4.973  16.387  0.00  0.00    +0.000 A 
ENDBRANCH  23  30
ENDBRANCH  22  23
ENDBRANCH   1  22
TORSDOF 6
ENDMDL
MODEL 4
REMARK VINA RESULT:      -8.7      2.679      8.723
REMARK  Name = 
REMARK  9 active torsions:
REMARK  status: ('A' for Active; 'I' for Inactive)
REMARK    1  A    between atoms: C_1  and  C_2
REMARK    2  A    between atoms: C_5  and  C_6
REMARK    3  A    between atoms: C_7  and  C_8
REMARK    4  A    between atoms: C_8  and  O_9
REMARK    5  A    between atoms: O_9  and  C_10
REMARK    6  A    between atoms: C_14  and  C_15
REMARK    7  A    between atoms: N_17  and  C_18
REMARK    8  A    between atoms: C_18  and  C_19
REMARK    9  A    between atoms: C_18  and  C_20
REMARK                            x       y       z     vdW  Elec       q    Type
REMARK                         _______ _______ _______ _____ _____    ______ ____
ROOT
ATOM      1  C   UNL     1       1.666   5.592  20.463  0.00  0.00    +0.000 A 
ATOM      2  C   UNL     1       1.093   4.326  20.606  0.00  0.00    +0.000 A 
ATOM      3  C   UNL     1       1.819   3.184  20.270  0.00  0.00    +0.000 A 
ATOM      4  C   UNL     1       3.113   3.307  19.760  0.00  0.00    +0.000 A 
ATOM      5  C   UNL     1       3.673   4.575  19.553  0.00  0.00    +0.000 A 
ATOM      6  C   UNL     1       2.948   5.717  19.918  0.00  0.00    +0.000 A 
ENDROOT
BRANCH   5   7
ATOM      7  C   UNL     1       5.051   4.675  18.985  0.00  0.00    +0.000 C 
ATOM      8  O   UNL     1       5.849   3.763  19.145  0.00  0.00    +0.000 OA
ATOM      9  N   UNL     1       5.342   5.819  18.270  0.00  0.00    +0.000 N 
ATOM     10  H   UNL     1       4.594   6.425  17.957  0.00  0.00    +0.000 HD
BRANCH   9  11
ATOM     11  C   UNL     1       6.614   5.980  17.582  0.00  0.00    +0.000 C 
ATOM     12  C   UNL     1       7.748   5.338  18.380  0.00  0.00    +0.000 C 
BRANCH  11  13
ATOM     13  C   UNL     1       6.493   5.353  16.230  0.00  0.00    +0.000 A 
ATOM     14  C   UNL     1       5.593   4.467  15.667  0.00  0.00    +0.000 A 
ATOM     15  C   UNL     1       6.016   4.247  14.328  0.00  0.00    +0.000 A 
ATOM     16  C   UNL     1       5.575   3.467  13.243  0.00  0.00    +0.000 A 
ATOM     17  C   UNL     1       6.294   3.520  12.038  0.00  0.00    +0.000 A 
ATOM     18  C   UNL     1       7.413   4.347  11.902  0.00  0.00    +0.000 A 
ATOM     19  C   UNL     1       7.858   5.139  12.964  0.00  0.00    +0.000 A 
ATOM     20  C   UNL     1       7.143   5.042  14.155  0.00  0.00    +0.000 A 
ATOM     21  O   UNL     1       7.442   5.698  15.306  0.00  0.00    +0.000 OA
ENDBRANCH  11  13
ENDBRANCH   9  11
ENDBRANCH   5   7
BRANCH   1  22
ATOM     22  O   UNL     1       0.892   6.641  20.881  0.00  0.00    +0.000 OA
BRANCH  22  23
ATOM     23  C   UNL     1       1.591   7.874  21.089  0.00  0.00    +0.000 C 
BRANCH  23  30
ATOM     24  C   UNL     1       1.354   9.258  18.161  0.00  0.00    +0.000 C 
ATOM     25  C   UNL     1       0.650   9.634  19.409  0.00  0.00    +0.000 A 
ATOM     26  N   UNL     1      -0.229  10.644  19.412  0.00  0.00    +0.000 NA
ATOM     27  O   UNL     1      -0.705  10.725  20.706  0.00  0.00    +0.000 OA
ATOM     28  C   UNL     1      -0.117   9.767  21.469  0.00  0.00    +0.000 A 
ATOM     29  C   UNL     1      -0.533   9.709  22.883  0.00  0.00    +0.000 C 
ATOM     30  C   UNL     1       0.761   9.038  20.694  0.00  0.00    +0.000 A 
ENDBRANCH  23  30
ENDBRANCH  22  23
ENDBRANCH   1  22
TORSDOF 6
ENDMDL
MODEL 5
REMARK VINA RESULT:      -8.6      2.761      8.489
REMARK  Name = 
REMARK  9 active torsions:
REMARK  status: ('A' for Active; 'I' for Inactive)
REMARK    1  A    between atoms: C_1  and  C_2
REMARK    2  A    between atoms: C_5  and  C_6
REMARK    3  A    between atoms: C_7  and  C_8
REMARK    4  A    between atoms: C_8  and  O_9
REMARK    5  A    between atoms: O_9  and  C_10
REMARK    6  A    between atoms: C_14  and  C_15
REMARK    7  A    between atoms: N_17  and  C_18
REMARK    8  A    between atoms: C_18  and  C_19
REMARK    9  A    between atoms: C_18  and  C_20
REMARK                            x       y       z     vdW  Elec       q    Type
REMARK                         _______ _______ _______ _____ _____    ______ ____
ROOT
ATOM      1  C   UNL     1       1.722   5.591  20.496  0.00  0.00    +0.000 A 
ATOM      2  C   UNL     1       1.269   4.311  20.822  0.00  0.00    +0.000 A 
ATOM      3  C   UNL     1       2.079   3.199  20.588  0.00  0.00    +0.000 A 
ATOM      4  C   UNL     1       3.333   3.363  19.997  0.00  0.00    +0.000 A 
ATOM      5  C   UNL     1       3.768   4.638  19.608  0.00  0.00    +0.000 A 
ATOM      6  C   UNL     1       2.962   5.752  19.871  0.00  0.00    +0.000 A 
ENDROOT
BRANCH   5   7
ATOM      7  C   UNL     1       5.106   4.779  18.957  0.00  0.00    +0.000 C 
ATOM      8  O   UNL     1       5.927   3.879  19.040  0.00  0.00    +0.000 OA
ATOM      9  N   UNL     1       5.332   5.949  18.259  0.00  0.00    +0.000 N 
ATOM     10  H   UNL     1       4.556   6.549  18.012  0.00  0.00    +0.000 HD
BRANCH   9  11
ATOM     11  C   UNL     1       6.555   6.152  17.498  0.00  0.00    +0.000 C 
ATOM     12  C   UNL     1       7.763   5.601  18.254  0.00  0.00    +0.000 C 
BRANCH  11  13
ATOM     13  C   UNL     1       6.398   5.471  16.176  0.00  0.00    +0.000 A 
ATOM     14  C   UNL     1       5.434   4.634  15.643  0.00  0.00    +0.000 A 
ATOM     15  C   UNL     1       5.853   4.313  14.324  0.00  0.00    +0.000 A 
ATOM     16  C   UNL     1       5.361   3.519  13.272  0.00  0.00    +0.000 A 
ATOM     17  C   UNL     1       6.095   3.451  12.076  0.00  0.00    +0.000 A 
ATOM     18  C   UNL     1       7.280   4.176  11.918  0.00  0.00    +0.000 A 
ATOM     19  C   UNL     1       7.778   4.981  12.947  0.00  0.00    +0.000 A 
ATOM     20  C   UNL     1       7.043   5.002  14.129  0.00  0.00    +0.000 A 
ATOM     21  O   UNL     1       7.383   5.689  15.252  0.00  0.00    +0.000 OA
ENDBRANCH  11  13
ENDBRANCH   9  11
ENDBRANCH   5   7
BRANCH   1  22
ATOM     22  O   UNL     1       0.876   6.617  20.825  0.00  0.00    +0.000 OA
BRANCH  22  23
ATOM     23  C   UNL     1       1.516   7.831  21.235  0.00  0.00    +0.000 C 
BRANCH  23  30
ATOM     24  C   UNL     1      -0.356  10.044  22.700  0.00  0.00    +0.000 C 
ATOM     25  C   UNL     1       0.053   9.990  21.276  0.00  0.00    +0.000 A 
ATOM     26  N   UNL     1      -0.334  10.948  20.425  0.00  0.00    +0.000 NA
ATOM     27  O   UNL     1       0.215  10.611  19.204  0.00  0.00    +0.000 OA
ATOM     28  C   UNL     1       0.929   9.461  19.327  0.00  0.00    +0.000 A 
ATOM     29  C   UNL     1       1.598   8.972  18.107  0.00  0.00    +0.000 C 
ATOM     30  C   UNL     1       0.862   9.016  20.631  0.00  0.00    +0.000 A 
ENDBRANCH  23  30
ENDBRANCH  22  23
ENDBRANCH   1  22
TORSDOF 6
ENDMDL
MODEL 6
REMARK VINA RESULT:      -8.5      1.089      1.576
REMARK  Name = 
REMARK  9 active torsions:
REMARK  status: ('A' for Active; 'I' for Inactive)
REMARK    1  A    between atoms: C_1  and  C_2
REMARK    2  A    between atoms: C_5  and  C_6
REMARK    3  A    between atoms: C_7  and  C_8
REMARK    4  A    between atoms: C_8  and  O_9
REMARK    5  A    between atoms: O_9  and  C_10
REMARK    6  A    between atoms: C_14  and  C_15
REMARK    7  A    between atoms: N_17  and  C_18
REMARK    8  A    between atoms: C_18  and  C_19
REMARK    9  A    between atoms: C_18  and  C_20
REMARK                            x       y       z     vdW  Elec       q    Type
REMARK                         _______ _______ _______ _____ _____    ______ ____
ROOT
ATOM      1  C   UNL     1       3.060   6.251  18.456  0.00  0.00    +0.000 A 
ATOM      2  C   UNL     1       2.906   5.128  19.271  0.00  0.00    +0.000 A 
ATOM      3  C   UNL     1       2.152   5.209  20.442  0.00  0.00    +0.000 A 
ATOM      4  C   UNL     1       1.576   6.424  20.817  0.00  0.00    +0.000 A 
ATOM      5  C   UNL     1       1.779   7.571  20.038  0.00  0.00    +0.000 A 
ATOM      6  C   UNL     1       2.514   7.477  18.849  0.00  0.00    +0.000 A 
ENDROOT
BRANCH   5   7
ATOM      7  C   UNL     1       1.169   8.863  20.477  0.00  0.00    +0.000 C 
ATOM      8  O   UNL     1       1.101   9.137  21.665  0.00  0.00    +0.000 OA
ATOM      9  N   UNL     1       0.723   9.706  19.478  0.00  0.00    +0.000 N 
ATOM     10  H   UNL     1       1.015   9.555  18.521  0.00  0.00    +0.000 HD
BRANCH   9  11
ATOM     11  C   UNL     1       0.209  11.032  19.780  0.00  0.00    +0.000 C 
ATOM     12  C   UNL     1       1.175  12.113  19.299  0.00  0.00    +0.000 C 
BRANCH  11  13
ATOM     13  C   UNL     1      -1.124  11.175  19.116  0.00  0.00    +0.000 A 
ATOM     14  C   UNL     1      -1.627  10.770  17.893  0.00  0.00    +0.000 A 
ATOM     15  C   UNL     1      -2.979  11.208  17.840  0.00  0.00    +0.000 A 
ATOM     16  C   UNL     1      -4.026  11.146  16.903  0.00  0.00    +0.000 A 
ATOM     17  C   UNL     1      -5.263  11.724  17.234  0.00  0.00    +0.000 A 
ATOM     18  C   UNL     1      -5.465  12.329  18.478  0.00  0.00    +0.000 A 
ATOM     19  C   UNL     1      -4.441  12.389  19.427  0.00  0.00    +0.000 A 
ATOM     20  C   UNL     1      -3.218  11.834  19.058  0.00  0.00    +0.000 A 
ATOM     21  O   UNL     1      -2.095  11.830  19.823  0.00  0.00    +0.000 OA
ENDBRANCH  11  13
ENDBRANCH   9  11
ENDBRANCH   5   7
BRANCH   1  22
ATOM     22  O   UNL     1       3.764   6.047  17.299  0.00  0.00    +0.000 OA
BRANCH  22  23
ATOM     23  C   UNL     1       4.221   4.706  17.088  0.00  0.00    +0.000 C 
BRANCH  23  30
ATOM     24  C   UNL     1       6.516   5.264  19.317  0.00  0.00    +0.000 C 
ATOM     25  C   UNL     1       6.695   4.891  17.894  0.00  0.00    +0.000 A 
ATOM     26  N   UNL     1       7.923   4.718  17.389  0.00  0.00    +0.000 NA
ATOM     27  O   UNL     1       7.740   4.371  16.065  0.00  0.00    +0.000 OA
ATOM     28  C   UNL     1       6.412   4.334  15.782  0.00  0.00    +0.000 A 
ATOM     29  C   UNL     1       6.045   3.960  14.403  0.00  0.00    +0.000 C 
ATOM     30  C   UNL     1       5.692   4.657  16.914  0.00  0.00    +0.000 A 
ENDBRANCH  23  30
ENDBRANCH  22  23
ENDBRANCH   1  22
TORSDOF 6
ENDMDL
MODEL 7
REMARK VINA RESULT:      -8.3      1.209      1.936
REMARK  Name = 
REMARK  9 active torsions:
REMARK  status: ('A' for Active; 'I' for Inactive)
REMARK    1  A    between atoms: C_1  and  C_2
REMARK    2  A    between atoms: C_5  and  C_6
REMARK    3  A    between atoms: C_7  and  C_8
REMARK    4  A    between atoms: C_8  and  O_9
REMARK    5  A    between atoms: O_9  and  C_10
REMARK    6  A    between atoms: C_14  and  C_15
REMARK    7  A    between atoms: N_17  and  C_18
REMARK    8  A    between atoms: C_18  and  C_19
REMARK    9  A    between atoms: C_18  and  C_20
REMARK                            x       y       z     vdW  Elec       q    Type
REMARK                         _______ _______ _______ _____ _____    ______ ____
ROOT
ATOM      1  C   UNL     1       3.064   4.383  17.479  0.00  0.00    +0.000 A 
ATOM      2  C   UNL     1       2.405   3.375  18.186  0.00  0.00    +0.000 A 
ATOM      3  C   UNL     1       1.575   3.697  19.259  0.00  0.00    +0.000 A 
ATOM      4  C   UNL     1       1.426   5.030  19.649  0.00  0.00    +0.000 A 
ATOM      5  C   UNL     1       2.134   6.042  18.985  0.00  0.00    +0.000 A 
ATOM      6  C   UNL     1       2.944   5.714  17.892  0.00  0.00    +0.000 A 
ENDROOT
BRANCH   5   7
ATOM      7  C   UNL     1       1.972   7.456  19.440  0.00  0.00    +0.000 C 
ATOM      8  O   UNL     1       2.191   7.756  20.604  0.00  0.00    +0.000 OA
ATOM      9  N   UNL     1       1.594   8.373  18.479  0.00  0.00    +0.000 N 
ATOM     10  H   UNL     1       1.662   8.136  17.498  0.00  0.00    +0.000 HD
BRANCH   9  11
ATOM     11  C   UNL     1       1.508   9.794  18.781  0.00  0.00    +0.000 C 
ATOM     12  C   UNL     1       2.447  10.598  17.884  0.00  0.00    +0.000 C 
BRANCH  11  13
ATOM     13  C   UNL     1       0.088  10.224  18.587  0.00  0.00    +0.000 A 
ATOM     14  C   UNL     1      -0.766  11.043  19.303  0.00  0.00    +0.000 A 
ATOM     15  C   UNL     1      -2.002  11.060  18.602  0.00  0.00    +0.000 A 
ATOM     16  C   UNL     1      -3.262  11.659  18.786  0.00  0.00    +0.000 A 
ATOM     17  C   UNL     1      -4.268  11.421  17.836  0.00  0.00    +0.000 A 
ATOM     18  C   UNL     1      -4.024  10.627  16.712  0.00  0.00    +0.000 A 
ATOM     19  C   UNL     1      -2.775  10.034  16.504  0.00  0.00    +0.000 A 
ATOM     20  C   UNL     1      -1.808  10.264  17.479  0.00  0.00    +0.000 A 
ATOM     21  O   UNL     1      -0.552   9.745  17.477  0.00  0.00    +0.000 OA
ENDBRANCH  11  13
ENDBRANCH   9  11
ENDBRANCH   5   7
BRANCH   1  22
ATOM     22  O   UNL     1       3.803   3.964  16.405  0.00  0.00    +0.000 OA
BRANCH  22  23
ATOM     23  C   UNL     1       5.140   3.547  16.707  0.00  0.00    +0.000 C 
BRANCH  23  30
ATOM     24  C   UNL     1       6.157   3.620  13.624  0.00  0.00    +0.000 C 
ATOM     25  C   UNL     1       6.574   4.495  14.744  0.00  0.00    +0.000 A 
ATOM     26  N   UNL     1       7.458   5.480  14.542  0.00  0.00    +0.000 NA
ATOM     27  O   UNL     1       7.618   6.101  15.765  0.00  0.00    +0.000 OA
ATOM     28  C   UNL     1       6.831   5.493  16.691  0.00  0.00    +0.000 A 
ATOM     29  C   UNL     1       6.874   6.052  18.055  0.00  0.00    +0.000 C 
ATOM     30  C   UNL     1       6.139   4.457  16.097  0.00  0.00    +0.000 A 
ENDBRANCH  23  30
ENDBRANCH  22  23
ENDBRANCH   1  22
TORSDOF 6
ENDMDL
MODEL 8
REMARK VINA RESULT:      -8.2      1.338      2.118
REMARK  Name = 
REMARK  9 active torsions:
REMARK  status: ('A' for Active; 'I' for Inactive)
REMARK    1  A    between atoms: C_1  and  C_2
REMARK    2  A    between atoms: C_5  and  C_6
REMARK    3  A    between atoms: C_7  and  C_8
REMARK    4  A    between atoms: C_8  and  O_9
REMARK    5  A    between atoms: O_9  and  C_10
REMARK    6  A    between atoms: C_14  and  C_15
REMARK    7  A    between atoms: N_17  and  C_18
REMARK    8  A    between atoms: C_18  and  C_19
REMARK    9  A    between atoms: C_18  and  C_20
REMARK                            x       y       z     vdW  Elec       q    Type
REMARK                         _______ _______ _______ _____ _____    ______ ____
ROOT
ATOM      1  C   UNL     1       3.374   5.032  18.666  0.00  0.00    +0.000 A 
ATOM      2  C   UNL     1       3.056   4.092  19.649  0.00  0.00    +0.000 A 
ATOM      3  C   UNL     1       2.243   4.449  20.724  0.00  0.00    +0.000 A 
ATOM      4  C   UNL     1       1.770   5.758  20.836  0.00  0.00    +0.000 A 
ATOM      5  C   UNL     1       2.137   6.724  19.889  0.00  0.00    +0.000 A 
ATOM      6  C   UNL     1       2.931   6.352  18.797  0.00  0.00    +0.000 A 
ENDROOT
BRANCH   5   7
ATOM      7  C   UNL     1       1.634   8.122  20.048  0.00  0.00    +0.000 C 
ATOM      8  O   UNL     1       1.268   8.522  21.143  0.00  0.00    +0.000 OA
ATOM      9  N   UNL     1       1.633   8.910  18.914  0.00  0.00    +0.000 N 
ATOM     10  H   UNL     1       2.163   8.626  18.100  0.00  0.00    +0.000 HD
BRANCH   9  11
ATOM     11  C   UNL     1       1.266  10.316  18.970  0.00  0.00    +0.000 C 
ATOM     12  C   UNL     1       2.162  11.149  18.055  0.00  0.00    +0.000 C 
BRANCH  11  13
ATOM     13  C   UNL     1      -0.169  10.438  18.563  0.00  0.00    +0.000 A 
ATOM     14  C   UNL     1      -0.945   9.809  17.606  0.00  0.00    +0.000 A 
ATOM     15  C   UNL     1      -2.250  10.362  17.708  0.00  0.00    +0.000 A 
ATOM     16  C   UNL     1      -3.477  10.190  17.040  0.00  0.00    +0.000 A 
ATOM     17  C   UNL     1      -4.580  10.958  17.447  0.00  0.00    +0.000 A 
ATOM     18  C   UNL     1      -4.477  11.860  18.509  0.00  0.00    +0.000 A 
ATOM     19  C   UNL     1      -3.270  12.036  19.194  0.00  0.00    +0.000 A 
ATOM     20  C   UNL     1      -2.188  11.282  18.747  0.00  0.00    +0.000 A 
ATOM     21  O   UNL     1      -0.928  11.341  19.255  0.00  0.00    +0.000 OA
ENDBRANCH  11  13
ENDBRANCH   9  11
ENDBRANCH   5   7
BRANCH   1  22
ATOM     22  O   UNL     1       4.125   4.562  17.622  0.00  0.00    +0.000 OA
BRANCH  22  23
ATOM     23  C   UNL     1       5.503   4.312  17.923  0.00  0.00    +0.000 C 
BRANCH  23  30
ATOM     24  C   UNL     1       5.268   6.530  15.563  0.00  0.00    +0.000 C 
ATOM     25  C   UNL     1       6.215   6.505  16.702  0.00  0.00    +0.000 A 
ATOM     26  N   UNL     1       7.101   7.494  16.868  0.00  0.00    +0.000 NA
ATOM     27  O   UNL     1       7.811   7.177  18.009  0.00  0.00    +0.000 OA
ATOM     28  C   UNL     1       7.349   6.007  18.523  0.00  0.00    +0.000 A 
ATOM     29  C   UNL     1       7.997   5.535  19.761  0.00  0.00    +0.000 C 
ATOM     30  C   UNL     1       6.327   5.529  17.730  0.00  0.00    +0.000 A 
ENDBRANCH  23  30
ENDBRANCH  22  23
ENDBRANCH   1  22
TORSDOF 6
ENDMDL
MODEL 9
REMARK VINA RESULT:      -8.1      2.484      4.527
REMARK  Name = 
REMARK  9 active torsions:
REMARK  status: ('A' for Active; 'I' for Inactive)
REMARK    1  A    between atoms: C_1  and  C_2
REMARK    2  A    between atoms: C_5  and  C_6
REMARK    3  A    between atoms: C_7  and  C_8
REMARK    4  A    between atoms: C_8  and  O_9
REMARK    5  A    between atoms: O_9  and  C_10
REMARK    6  A    between atoms: C_14  and  C_15
REMARK    7  A    between atoms: N_17  and  C_18
REMARK    8  A    between atoms: C_18  and  C_19
REMARK    9  A    between atoms: C_18  and  C_20
REMARK                            x       y       z     vdW  Elec       q    Type
REMARK                         _______ _______ _______ _____ _____    ______ ____
ROOT
ATOM      1  C   UNL     1       2.134   7.890  19.086  0.00  0.00    +0.000 A 
ATOM      2  C   UNL     1       1.972   7.640  20.451  0.00  0.00    +0.000 A 
ATOM      3  C   UNL     1       1.045   8.372  21.193  0.00  0.00    +0.000 A 
ATOM      4  C   UNL     1       0.298   9.378  20.577  0.00  0.00    +0.000 A 
ATOM      5  C   UNL     1       0.501   9.678  19.223  0.00  0.00    +0.000 A 
ATOM      6  C   UNL     1       1.414   8.922  18.478  0.00  0.00    +0.000 A 
ENDROOT
BRANCH   5   7
ATOM      7  C   UNL     1      -0.297  10.776  18.597  0.00  0.00    +0.000 C 
ATOM      8  O   UNL     1       0.196  11.884  18.446  0.00  0.00    +0.000 OA
ATOM      9  N   UNL     1      -1.578  10.455  18.193  0.00  0.00    +0.000 N 
ATOM     10  H   UNL     1      -1.855   9.485  18.111  0.00  0.00    +0.000 HD
BRANCH   9  11
ATOM     11  C   UNL     1      -2.408  11.412  17.478  0.00  0.00    +0.000 C 
ATOM     12  C   UNL     1      -2.614  10.975  16.028  0.00  0.00    +0.000 C 
BRANCH  11  13
ATOM     13  C   UNL     1      -3.717  11.516  18.193  0.00  0.00    +0.000 A 
ATOM     14  C   UNL     1      -4.989  11.039  17.929  0.00  0.00    +0.000 A 
ATOM     15  C   UNL     1      -5.820  11.474  18.996  0.00  0.00    +0.000 A 
ATOM     16  C   UNL     1      -7.182  11.356  19.330  0.00  0.00    +0.000 A 
ATOM     17  C   UNL     1      -7.640  11.954  20.516  0.00  0.00    +0.000 A 
ATOM     18  C   UNL     1      -6.763  12.633  21.365  0.00  0.00    +0.000 A 
ATOM     19  C   UNL     1      -5.404  12.750  21.058  0.00  0.00    +0.000 A 
ATOM     20  C   UNL     1      -4.987  12.172  19.861  0.00  0.00    +0.000 A 
ATOM     21  O   UNL     1      -3.720  12.213  19.370  0.00  0.00    +0.000 OA
ENDBRANCH  11  13
ENDBRANCH   9  11
ENDBRANCH   5   7
BRANCH   1  22
ATOM     22  O   UNL     1       3.024   7.073  18.440  0.00  0.00    +0.000 OA
BRANCH  22  23
ATOM     23  C   UNL     1       3.428   5.909  19.170  0.00  0.00    +0.000 C 
BRANCH  23  30
ATOM     24  C   UNL     1       4.328   4.243  16.532  0.00  0.00    +0.000 C 
ATOM     25  C   UNL     1       3.214   3.947  17.464  0.00  0.00    +0.000 A 
ATOM     26  N   UNL     1       2.450   2.863  17.283  0.00  0.00    +0.000 NA
ATOM     27  O   UNL     1       1.530   2.875  18.312  0.00  0.00    +0.000 OA
ATOM     28  C   UNL     1       1.746   3.957  19.105  0.00  0.00    +0.000 A 
ATOM     29  C   UNL     1       0.851   4.107  20.268  0.00  0.00    +0.000 C 
ATOM     30  C   UNL     1       2.812   4.681  18.612  0.00  0.00    +0.000 A 
ENDBRANCH  23  30
ENDBRANCH  22  23
ENDBRANCH   1  22
TORSDOF 6
ENDMDL
