MODEL 1
REMARK VINA RESULT:      -8.3      0.000      0.000
REMARK  Name = 
REMARK  4 active torsions:
REMARK  status: ('A' for Active; 'I' for Inactive)
REMARK    1  A    between atoms: C_1  and  N_2
REMARK    2  A    between atoms: C_7  and  C_9
REMARK    3  A    between atoms: C_12  and  C_13
REMARK    4  A    between atoms: N_16  and  C_17
REMARK                            x       y       z     vdW  Elec       q    Type
REMARK                         _______ _______ _______ _____ _____    ______ ____
ROOT
ATOM      1  C   UNL     1       2.182   7.276  18.697  0.00  0.00    +0.000 A 
ATOM      2  C   UNL     1       2.207   8.294  17.760  0.00  0.00    +0.000 A 
ATOM      3  S   UNL     1       1.577   9.738  18.423  0.00  0.00    +0.000 S 
ATOM      4  C   UNL     1       1.332   8.936  19.919  0.00  0.00    +0.000 A 
ATOM      5  N   UNL     1       1.707   7.677  19.948  0.00  0.00    +0.000 NA
ENDROOT
BRANCH   1  12
ATOM      6  C   UNL     1       7.864   6.416  18.809  0.00  0.00    +0.000 C 
ATOM      7  N   UNL     1       7.667   5.660  17.574  0.00  0.00    +0.000 NA
ATOM      8  C   UNL     1       6.803   4.486  17.790  0.00  0.00    +0.000 C 
ATOM      9  C   UNL     1       5.647   4.574  16.793  0.00  0.00    +0.000 C 
ATOM     10  C   UNL     1       4.264   4.369  17.401  0.00  0.00    +0.000 C 
ATOM     11  N   UNL     1       3.762   5.699  17.689  0.00  0.00    +0.000 N 
ATOM     12  C   UNL     1       2.579   5.892  18.385  0.00  0.00    +0.000 C 
ATOM     13  O   UNL     1       1.871   4.944  18.724  0.00  0.00    +0.000 OA
ATOM     14  C   UNL     1       4.683   6.728  17.253  0.00  0.00    +0.000 C 
ATOM     15  C   UNL     1       5.656   6.022  16.322  0.00  0.00    +0.000 C 
ATOM     16  C   UNL     1       7.094   6.462  16.487  0.00  0.00    +0.000 C 
ENDBRANCH   1  12
BRANCH   4  17
ATOM     17  C   UNL     1       0.721   9.590  21.107  0.00  0.00    +0.000 A 
ATOM     18  C   UNL     1       0.824   9.247  22.460  0.00  0.00    +0.000 A 
ATOM     19  N   UNL     1       0.169  10.100  23.252  0.00  0.00    +0.000 NA
ATOM     20  N   UNL     1      -0.399  10.996  22.398  0.00  0.00    +0.000 N 
ATOM     21  C   UNL     1      -0.069  10.713  21.091  0.00  0.00    +0.000 A 
BRANCH  20  22
ATOM     22  C   UNL     1      -1.232  12.043  22.875  0.00  0.00    +0.000 A 
ATOM     23  C   UNL     1      -2.530  11.749  23.326  0.00  0.00    +0.000 A 
ATOM     24  C   UNL     1      -3.361  12.779  23.777  0.00  0.00    +0.000 A 
ATOM     25  C   UNL     1      -2.903  14.095  23.772  0.00  0.00    +0.000 A 
ATOM     26  C   UNL     1      -1.614  14.389  23.331  0.00  0.00    +0.000 A 
ATOM     27  C   UNL     1      -0.779  13.366  22.893  0.00  0.00    +0.000 A 
ENDBRANCH  20  22
ENDBRANCH   4  17
TORSDOF 3
ENDMDL
MODEL 2
REMARK VINA RESULT:      -8.3      1.957      3.418
REMARK  Name = 
REMARK  4 active torsions:
REMARK  status: ('A' for Active; 'I' for Inactive)
REMARK    1  A    between atoms: C_1  and  N_2
REMARK    2  A    between atoms: C_7  and  C_9
REMARK    3  A    between atoms: C_12  and  C_13
REMARK    4  A    between atoms: N_16  and  C_17
REMARK                            x       y       z     vdW  Elec       q    Type
REMARK                         _______ _______ _______ _____ _____    ______ ____
ROOT
ATOM      1  C   UNL     1       2.474   7.868  18.685  0.00  0.00    +0.000 A 
ATOM      2  C   UNL     1       1.770   8.473  17.658  0.00  0.00    +0.000 A 
ATOM      3  S   UNL     1       0.603   9.554  18.283  0.00  0.00    +0.000 S 
ATOM      4  C   UNL     1       1.116   9.176  19.876  0.00  0.00    +0.000 A 
ATOM      5  N   UNL     1       2.106   8.314  19.956  0.00  0.00    +0.000 NA
ENDROOT
BRANCH   1  12
ATOM      6  C   UNL     1       0.348   2.530  18.848  0.00  0.00    +0.000 C 
ATOM      7  N   UNL     1       1.528   2.198  19.644  0.00  0.00    +0.000 NA
ATOM      8  C   UNL     1       2.772   2.407  18.882  0.00  0.00    +0.000 C 
ATOM      9  C   UNL     1       3.663   3.342  19.699  0.00  0.00    +0.000 C 
ATOM     10  C   UNL     1       4.247   4.511  18.915  0.00  0.00    +0.000 C 
ATOM     11  N   UNL     1       3.341   5.622  19.136  0.00  0.00    +0.000 N 
ATOM     12  C   UNL     1       3.484   6.820  18.453  0.00  0.00    +0.000 C 
ATOM     13  O   UNL     1       4.427   7.015  17.687  0.00  0.00    +0.000 OA
ATOM     14  C   UNL     1       2.271   5.271  20.046  0.00  0.00    +0.000 C 
ATOM     15  C   UNL     1       2.723   3.981  20.712  0.00  0.00    +0.000 C 
ATOM     16  C   UNL     1       1.618   2.963  20.894  0.00  0.00    +0.000 C 
ENDBRANCH   1  12
BRANCH   4  17
ATOM     17  C   UNL     1       0.489   9.750  21.095  0.00  0.00    +0.000 A 
ATOM     18  C   UNL     1       0.551   9.303  22.419  0.00  0.00    +0.000 A 
ATOM     19  N   UNL     1      -0.107  10.107  23.259  0.00  0.00    +0.000 NA
ATOM     20  N   UNL     1      -0.636  11.077  22.464  0.00  0.00    +0.000 N 
ATOM     21  C   UNL     1      -0.279  10.888  21.147  0.00  0.00    +0.000 A 
BRANCH  20  22
ATOM     22  C   UNL     1      -1.460  12.103  22.999  0.00  0.00    +0.000 A 
ATOM     23  C   UNL     1      -0.948  13.406  23.134  0.00  0.00    +0.000 A 
ATOM     24  C   UNL     1      -1.748  14.414  23.680  0.00  0.00    +0.000 A 
ATOM     25  C   UNL     1      -3.047  14.125  24.095  0.00  0.00    +0.000 A 
ATOM     26  C   UNL     1      -3.558  12.836  23.956  0.00  0.00    +0.000 A 
ATOM     27  C   UNL     1      -2.771  11.831  23.403  0.00  0.00    +0.000 A 
ENDBRANCH  20  22
ENDBRANCH   4  17
TORSDOF 3
ENDMDL
MODEL 3
REMARK VINA RESULT:      -8.0      0.947      1.266
REMARK  Name = 
REMARK  4 active torsions:
REMARK  status: ('A' for Active; 'I' for Inactive)
REMARK    1  A    between atoms: C_1  and  N_2
REMARK    2  A    between atoms: C_7  and  C_9
REMARK    3  A    between atoms: C_12  and  C_13
REMARK    4  A    between atoms: N_16  and  C_17
REMARK                            x       y       z     vdW  Elec       q    Type
REMARK                         _______ _______ _______ _____ _____    ______ ____
ROOT
ATOM      1  C   UNL     1       2.311   7.117  19.581  0.00  0.00    +0.000 A 
ATOM      2  C   UNL     1       2.249   7.911  18.449  0.00  0.00    +0.000 A 
ATOM      3  S   UNL     1       1.374   9.345  18.765  0.00  0.00    +0.000 S 
ATOM      4  C   UNL     1       1.150   8.841  20.390  0.00  0.00    +0.000 A 
ATOM      5  N   UNL     1       1.701   7.689  20.701  0.00  0.00    +0.000 NA
ENDROOT
BRANCH   1  12
ATOM      6  C   UNL     1       7.724   7.044  17.650  0.00  0.00    +0.000 C 
ATOM      7  N   UNL     1       7.330   5.851  16.906  0.00  0.00    +0.000 NA
ATOM      8  C   UNL     1       6.921   4.760  17.808  0.00  0.00    +0.000 C 
ATOM      9  C   UNL     1       5.518   4.317  17.391  0.00  0.00    +0.000 C 
ATOM     10  C   UNL     1       4.519   4.202  18.536  0.00  0.00    +0.000 C 
ATOM     11  N   UNL     1       3.815   5.471  18.570  0.00  0.00    +0.000 N 
ATOM     12  C   UNL     1       2.924   5.778  19.586  0.00  0.00    +0.000 C 
ATOM     13  O   UNL     1       2.640   4.960  20.460  0.00  0.00    +0.000 OA
ATOM     14  C   UNL     1       4.240   6.351  17.500  0.00  0.00    +0.000 C 
ATOM     15  C   UNL     1       4.996   5.458  16.529  0.00  0.00    +0.000 C 
ATOM     16  C   UNL     1       6.242   6.094  15.952  0.00  0.00    +0.000 C 
ENDBRANCH   1  12
BRANCH   4  17
ATOM     17  C   UNL     1       0.374   9.622  21.389  0.00  0.00    +0.000 A 
ATOM     18  C   UNL     1       0.343   9.499  22.782  0.00  0.00    +0.000 A 
ATOM     19  N   UNL     1      -0.443  10.413  23.357  0.00  0.00    +0.000 NA
ATOM     20  N   UNL     1      -0.961  11.124  22.318  0.00  0.00    +0.000 N 
ATOM     21  C   UNL     1      -0.472  10.669  21.113  0.00  0.00    +0.000 A 
BRANCH  20  22
ATOM     22  C   UNL     1      -1.900  12.168  22.533  0.00  0.00    +0.000 A 
ATOM     23  C   UNL     1      -1.848  13.325  21.735  0.00  0.00    +0.000 A 
ATOM     24  C   UNL     1      -2.755  14.364  21.957  0.00  0.00    +0.000 A 
ATOM     25  C   UNL     1      -3.705  14.256  22.971  0.00  0.00    +0.000 A 
ATOM     26  C   UNL     1      -3.762  13.108  23.759  0.00  0.00    +0.000 A 
ATOM     27  C   UNL     1      -2.869  12.064  23.535  0.00  0.00    +0.000 A 
ENDBRANCH  20  22
ENDBRANCH   4  17
TORSDOF 3
ENDMDL
MODEL 4
REMARK VINA RESULT:      -7.9      2.732     10.182
REMARK  Name = 
REMARK  4 active torsions:
REMARK  status: ('A' for Active; 'I' for Inactive)
REMARK    1  A    between atoms: C_1  and  N_2
REMARK    2  A    between atoms: C_7  and  C_9
REMARK    3  A    between atoms: C_12  and  C_13
REMARK    4  A    between atoms: N_16  and  C_17
REMARK                            x       y       z     vdW  Elec       q    Type
REMARK                         _______ _______ _______ _____ _____    ______ ____
ROOT
ATOM      1  C   UNL     1      -1.084  11.566  18.929  0.00  0.00    +0.000 A 
ATOM      2  C   UNL     1      -0.092  12.531  18.884  0.00  0.00    +0.000 A 
ATOM      3  S   UNL     1       1.455  11.805  18.890  0.00  0.00    +0.000 S 
ATOM      4  C   UNL     1       0.720  10.255  18.928  0.00  0.00    +0.000 A 
ATOM      5  N   UNL     1      -0.595  10.258  18.918  0.00  0.00    +0.000 NA
ENDROOT
BRANCH   1  12
ATOM      6  C   UNL     1      -2.242  15.770  22.675  0.00  0.00    +0.000 C 
ATOM      7  N   UNL     1      -3.351  14.927  23.116  0.00  0.00    +0.000 NA
ATOM      8  C   UNL     1      -4.324  14.702  22.032  0.00  0.00    +0.000 C 
ATOM      9  C   UNL     1      -4.495  13.191  21.871  0.00  0.00    +0.000 C 
ATOM     10  C   UNL     1      -4.391  12.688  20.436  0.00  0.00    +0.000 C 
ATOM     11  N   UNL     1      -3.010  12.277  20.264  0.00  0.00    +0.000 N 
ATOM     12  C   UNL     1      -2.516  11.896  19.026  0.00  0.00    +0.000 C 
ATOM     13  O   UNL     1      -3.247  11.822  18.039  0.00  0.00    +0.000 OA
ATOM     14  C   UNL     1      -2.251  12.417  21.490  0.00  0.00    +0.000 C 
ATOM     15  C   UNL     1      -3.291  12.591  22.584  0.00  0.00    +0.000 C 
ATOM     16  C   UNL     1      -2.920  13.621  23.628  0.00  0.00    +0.000 C 
ENDBRANCH   1  12
BRANCH   4  17
ATOM     17  C   UNL     1       1.491   8.986  18.990  0.00  0.00    +0.000 A 
ATOM     18  C   UNL     1       1.699   8.126  20.074  0.00  0.00    +0.000 A 
ATOM     19  N   UNL     1       2.413   7.048  19.739  0.00  0.00    +0.000 NA
ATOM     20  N   UNL     1       2.705   7.224  18.420  0.00  0.00    +0.000 N 
ATOM     21  C   UNL     1       2.146   8.388  17.940  0.00  0.00    +0.000 A 
BRANCH  20  22
ATOM     22  C   UNL     1       3.508   6.292  17.711  0.00  0.00    +0.000 A 
ATOM     23  C   UNL     1       4.589   6.752  16.939  0.00  0.00    +0.000 A 
ATOM     24  C   UNL     1       5.370   5.841  16.222  0.00  0.00    +0.000 A 
ATOM     25  C   UNL     1       5.072   4.480  16.269  0.00  0.00    +0.000 A 
ATOM     26  C   UNL     1       4.005   4.021  17.040  0.00  0.00    +0.000 A 
ATOM     27  C   UNL     1       3.231   4.923  17.764  0.00  0.00    +0.000 A 
ENDBRANCH  20  22
ENDBRANCH   4  17
TORSDOF 3
ENDMDL
MODEL 5
REMARK VINA RESULT:      -7.8      2.875     10.523
REMARK  Name = 
REMARK  4 active torsions:
REMARK  status: ('A' for Active; 'I' for Inactive)
REMARK    1  A    between atoms: C_1  and  N_2
REMARK    2  A    between atoms: C_7  and  C_9
REMARK    3  A    between atoms: C_12  and  C_13
REMARK    4  A    between atoms: N_16  and  C_17
REMARK                            x       y       z     vdW  Elec       q    Type
REMARK                         _______ _______ _______ _____ _____    ______ ____
ROOT
ATOM      1  C   UNL     1      -0.270  11.746  22.004  0.00  0.00    +0.000 A 
ATOM      2  C   UNL     1      -0.658  10.689  22.810  0.00  0.00    +0.000 A 
ATOM      3  S   UNL     1      -0.186   9.199  22.119  0.00  0.00    +0.000 S 
ATOM      4  C   UNL     1       0.527  10.042  20.806  0.00  0.00    +0.000 A 
ATOM      5  N   UNL     1       0.444  11.353  20.870  0.00  0.00    +0.000 NA
ENDROOT
BRANCH   1  12
ATOM      6  C   UNL     1      -5.419  12.373  24.482  0.00  0.00    +0.000 C 
ATOM      7  N   UNL     1      -5.611  13.486  23.555  0.00  0.00    +0.000 NA
ATOM      8  C   UNL     1      -4.620  14.554  23.778  0.00  0.00    +0.000 C 
ATOM      9  C   UNL     1      -3.918  14.817  22.446  0.00  0.00    +0.000 C 
ATOM     10  C   UNL     1      -2.396  14.856  22.526  0.00  0.00    +0.000 C 
ATOM     11  N   UNL     1      -1.951  13.517  22.187  0.00  0.00    +0.000 N 
ATOM     12  C   UNL     1      -0.620  13.146  22.298  0.00  0.00    +0.000 C 
ATOM     13  O   UNL     1       0.248  13.957  22.619  0.00  0.00    +0.000 OA
ATOM     14  C   UNL     1      -3.060  12.655  21.836  0.00  0.00    +0.000 C 
ATOM     15  C   UNL     1      -4.233  13.593  21.597  0.00  0.00    +0.000 C 
ATOM     16  C   UNL     1      -5.549  13.084  22.145  0.00  0.00    +0.000 C 
ENDBRANCH   1  12
BRANCH   4  17
ATOM     17  C   UNL     1       1.177   9.363  19.654  0.00  0.00    +0.000 A 
ATOM     18  C   UNL     1       1.361   9.817  18.344  0.00  0.00    +0.000 A 
ATOM     19  N   UNL     1       2.035   8.943  17.592  0.00  0.00    +0.000 NA
ATOM     20  N   UNL     1       2.267   7.886  18.417  0.00  0.00    +0.000 N 
ATOM     21  C   UNL     1       1.765   8.121  19.678  0.00  0.00    +0.000 A 
BRANCH  20  22
ATOM     22  C   UNL     1       2.927   6.717  17.952  0.00  0.00    +0.000 A 
ATOM     23  C   UNL     1       2.310   5.463  18.103  0.00  0.00    +0.000 A 
ATOM     24  C   UNL     1       2.964   4.308  17.666  0.00  0.00    +0.000 A 
ATOM     25  C   UNL     1       4.229   4.401  17.087  0.00  0.00    +0.000 A 
ATOM     26  C   UNL     1       4.840   5.643  16.930  0.00  0.00    +0.000 A 
ATOM     27  C   UNL     1       4.188   6.798  17.353  0.00  0.00    +0.000 A 
ENDBRANCH  20  22
ENDBRANCH   4  17
TORSDOF 3
ENDMDL
MODEL 6
REMARK VINA RESULT:      -7.7      5.858      8.668
REMARK  Name = 
REMARK  4 active torsions:
REMARK  status: ('A' for Active; 'I' for Inactive)
REMARK    1  A    between atoms: C_1  and  N_2
REMARK    2  A    between atoms: C_7  and  C_9
REMARK    3  A    between atoms: C_12  and  C_13
REMARK    4  A    between atoms: N_16  and  C_17
REMARK                            x       y       z     vdW  Elec       q    Type
REMARK                         _______ _______ _______ _____ _____    ______ ____
ROOT
ATOM      1  C   UNL     1       6.046   5.118  17.584  0.00  0.00    +0.000 A 
ATOM      2  C   UNL     1       6.948   4.493  18.427  0.00  0.00    +0.000 A 
ATOM      3  S   UNL     1       8.113   5.607  18.995  0.00  0.00    +0.000 S 
ATOM      4  C   UNL     1       7.339   6.857  18.110  0.00  0.00    +0.000 A 
ATOM      5  N   UNL     1       6.268   6.490  17.442  0.00  0.00    +0.000 NA
ENDROOT
BRANCH   1  12
ATOM      6  C   UNL     1       1.137   4.709  20.546  0.00  0.00    +0.000 C 
ATOM      7  N   UNL     1       1.112   3.315  20.107  0.00  0.00    +0.000 NA
ATOM      8  C   UNL     1       1.025   3.212  18.639  0.00  0.00    +0.000 C 
ATOM      9  C   UNL     1       2.189   2.340  18.169  0.00  0.00    +0.000 C 
ATOM     10  C   UNL     1       2.993   2.922  17.011  0.00  0.00    +0.000 C 
ATOM     11  N   UNL     1       4.113   3.615  17.622  0.00  0.00    +0.000 N 
ATOM     12  C   UNL     1       4.982   4.390  16.870  0.00  0.00    +0.000 C 
ATOM     13  O   UNL     1       4.882   4.464  15.646  0.00  0.00    +0.000 OA
ATOM     14  C   UNL     1       4.118   3.463  19.062  0.00  0.00    +0.000 C 
ATOM     15  C   UNL     1       3.155   2.321  19.345  0.00  0.00    +0.000 C 
ATOM     16  C   UNL     1       2.276   2.544  20.557  0.00  0.00    +0.000 C 
ENDBRANCH   1  12
BRANCH   4  17
ATOM     17  C   UNL     1       7.836   8.257  18.066  0.00  0.00    +0.000 A 
ATOM     18  C   UNL     1       7.356   9.347  17.333  0.00  0.00    +0.000 A 
ATOM     19  N   UNL     1       8.035  10.470  17.586  0.00  0.00    +0.000 NA
ATOM     20  N   UNL     1       8.996  10.098  18.475  0.00  0.00    +0.000 N 
ATOM     21  C   UNL     1       8.889   8.761  18.791  0.00  0.00    +0.000 A 
BRANCH  20  22
ATOM     22  C   UNL     1       9.961  11.026  18.949  0.00  0.00    +0.000 A 
ATOM     23  C   UNL     1       9.905  11.468  20.283  0.00  0.00    +0.000 A 
ATOM     24  C   UNL     1      10.840  12.397  20.748  0.00  0.00    +0.000 A 
ATOM     25  C   UNL     1      11.822  12.887  19.888  0.00  0.00    +0.000 A 
ATOM     26  C   UNL     1      11.883  12.446  18.568  0.00  0.00    +0.000 A 
ATOM     27  C   UNL     1      10.962  11.512  18.102  0.00  0.00    +0.000 A 
ENDBRANCH  20  22
ENDBRANCH   4  17
TORSDOF 3
ENDMDL
MODEL 7
REMARK VINA RESULT:      -7.7      3.068      3.744
REMARK  Name = 
REMARK  4 active torsions:
REMARK  status: ('A' for Active; 'I' for Inactive)
REMARK    1  A    between atoms: C_1  and  N_2
REMARK    2  A    between atoms: C_7  and  C_9
REMARK    3  A    between atoms: C_12  and  C_13
REMARK    4  A    between atoms: N_16  and  C_17
REMARK                            x       y       z     vdW  Elec       q    Type
REMARK                         _______ _______ _______ _____ _____    ______ ____
ROOT
ATOM      1  C   UNL     1       2.174   6.711  18.764  0.00  0.00    +0.000 A 
ATOM      2  C   UNL     1       2.109   6.628  20.145  0.00  0.00    +0.000 A 
ATOM      3  S   UNL     1       1.585   8.112  20.812  0.00  0.00    +0.000 S 
ATOM      4  C   UNL     1       1.451   8.768  19.233  0.00  0.00    +0.000 A 
ATOM      5  N   UNL     1       1.755   7.942  18.256  0.00  0.00    +0.000 NA
ENDROOT
BRANCH   1  12
ATOM      6  C   UNL     1       7.823   5.795  19.304  0.00  0.00    +0.000 C 
ATOM      7  N   UNL     1       7.837   5.688  17.847  0.00  0.00    +0.000 NA
ATOM      8  C   UNL     1       7.012   4.560  17.379  0.00  0.00    +0.000 C 
ATOM      9  C   UNL     1       6.002   5.112  16.373  0.00  0.00    +0.000 C 
ATOM     10  C   UNL     1       4.561   4.677  16.613  0.00  0.00    +0.000 C 
ATOM     11  N   UNL     1       3.956   5.739  17.394  0.00  0.00    +0.000 N 
ATOM     12  C   UNL     1       2.680   5.614  17.921  0.00  0.00    +0.000 C 
ATOM     13  O   UNL     1       1.982   4.628  17.687  0.00  0.00    +0.000 OA
ATOM     14  C   UNL     1       4.874   6.838  17.611  0.00  0.00    +0.000 C 
ATOM     15  C   UNL     1       6.002   6.615  16.615  0.00  0.00    +0.000 C 
ATOM     16  C   UNL     1       7.379   6.907  17.170  0.00  0.00    +0.000 C 
ENDBRANCH   1  12
BRANCH   4  17
ATOM     17  C   UNL     1       1.043  10.171  18.961  0.00  0.00    +0.000 A 
ATOM     18  C   UNL     1      -0.228  10.690  18.692  0.00  0.00    +0.000 A 
ATOM     19  N   UNL     1      -0.215  12.018  18.544  0.00  0.00    +0.000 NA
ATOM     20  N   UNL     1       1.094  12.367  18.686  0.00  0.00    +0.000 N 
ATOM     21  C   UNL     1       1.876  11.265  18.951  0.00  0.00    +0.000 A 
BRANCH  20  22
ATOM     22  C   UNL     1       1.518  13.715  18.540  0.00  0.00    +0.000 A 
ATOM     23  C   UNL     1       0.645  14.760  18.891  0.00  0.00    +0.000 A 
ATOM     24  C   UNL     1       1.050  16.088  18.729  0.00  0.00    +0.000 A 
ATOM     25  C   UNL     1       2.313  16.374  18.215  0.00  0.00    +0.000 A 
ATOM     26  C   UNL     1       3.182  15.339  17.872  0.00  0.00    +0.000 A 
ATOM     27  C   UNL     1       2.789  14.015  18.042  0.00  0.00    +0.000 A 
ENDBRANCH  20  22
ENDBRANCH   4  17
TORSDOF 3
ENDMDL
MODEL 8
REMARK VINA RESULT:      -7.7      3.567      9.119
REMARK  Name = 
REMARK  4 active torsions:
REMARK  status: ('A' for Active; 'I' for Inactive)
REMARK    1  A    between atoms: C_1  and  N_2
REMARK    2  A    between atoms: C_7  and  C_9
REMARK    3  A    between atoms: C_12  and  C_13
REMARK    4  A    between atoms: N_16  and  C_17
REMARK                            x       y       z     vdW  Elec       q    Type
REMARK                         _______ _______ _______ _____ _____    ______ ____
ROOT
ATOM      1  C   UNL     1       0.170  11.032  20.084  0.00  0.00    +0.000 A 
ATOM      2  C   UNL     1      -0.128  10.734  21.402  0.00  0.00    +0.000 A 
ATOM      3  S   UNL     1       0.483   9.195  21.825  0.00  0.00    +0.000 S 
ATOM      4  C   UNL     1       1.127   9.025  20.244  0.00  0.00    +0.000 A 
ATOM      5  N   UNL     1       0.926  10.048  19.443  0.00  0.00    +0.000 NA
ENDROOT
BRANCH   1  12
ATOM      6  C   UNL     1       4.393  14.549  18.399  0.00  0.00    +0.000 C 
ATOM      7  N   UNL     1       3.565  15.627  18.933  0.00  0.00    +0.000 NA
ATOM      8  C   UNL     1       2.279  15.726  18.220  0.00  0.00    +0.000 C 
ATOM      9  C   UNL     1       1.165  15.644  19.264  0.00  0.00    +0.000 C 
ATOM     10  C   UNL     1       0.053  14.655  18.932  0.00  0.00    +0.000 C 
ATOM     11  N   UNL     1       0.410  13.423  19.610  0.00  0.00    +0.000 N 
ATOM     12  C   UNL     1      -0.308  12.254  19.413  0.00  0.00    +0.000 C 
ATOM     13  O   UNL     1      -1.319  12.231  18.711  0.00  0.00    +0.000 OA
ATOM     14  C   UNL     1       1.618  13.571  20.395  0.00  0.00    +0.000 C 
ATOM     15  C   UNL     1       1.840  15.072  20.502  0.00  0.00    +0.000 C 
ATOM     16  C   UNL     1       3.288  15.490  20.368  0.00  0.00    +0.000 C 
ENDBRANCH   1  12
BRANCH   4  17
ATOM     17  C   UNL     1       1.847   7.809  19.780  0.00  0.00    +0.000 A 
ATOM     18  C   UNL     1       1.930   6.546  20.375  0.00  0.00    +0.000 A 
ATOM     19  N   UNL     1       2.634   5.682  19.640  0.00  0.00    +0.000 NA
ATOM     20  N   UNL     1       3.045   6.403  18.560  0.00  0.00    +0.000 N 
ATOM     21  C   UNL     1       2.570   7.695  18.618  0.00  0.00    +0.000 A 
BRANCH  20  22
ATOM     22  C   UNL     1       3.875   5.829  17.561  0.00  0.00    +0.000 A 
ATOM     23  C   UNL     1       4.592   6.665  16.687  0.00  0.00    +0.000 A 
ATOM     24  C   UNL     1       5.394   6.105  15.689  0.00  0.00    +0.000 A 
ATOM     25  C   UNL     1       5.477   4.720  15.558  0.00  0.00    +0.000 A 
ATOM     26  C   UNL     1       4.773   3.889  16.427  0.00  0.00    +0.000 A 
ATOM     27  C   UNL     1       3.982   4.441  17.430  0.00  0.00    +0.000 A 
ENDBRANCH  20  22
ENDBRANCH   4  17
TORSDOF 3
ENDMDL
MODEL 9
REMARK VINA RESULT:      -7.6      3.192      9.297
REMARK  Name = 
REMARK  4 active torsions:
REMARK  status: ('A' for Active; 'I' for Inactive)
REMARK    1  A    between atoms: C_1  and  N_2
REMARK    2  A    between atoms: C_7  and  C_9
REMARK    3  A    between atoms: C_12  and  C_13
REMARK    4  A    between atoms: N_16  and  C_17
REMARK                            x       y       z     vdW  Elec       q    Type
REMARK                         _______ _______ _______ _____ _____    ______ ____
ROOT
ATOM      1  C   UNL     1       0.457  10.278  19.773  0.00  0.00    +0.000 A 
ATOM      2  C   UNL     1       0.265   9.952  21.104  0.00  0.00    +0.000 A 
ATOM      3  S   UNL     1       1.021   8.465  21.475  0.00  0.00    +0.000 S 
ATOM      4  C   UNL     1       1.578   8.352  19.857  0.00  0.00    +0.000 A 
ATOM      5  N   UNL     1       1.248   9.359  19.079  0.00  0.00    +0.000 NA
ENDROOT
BRANCH   1  12
ATOM      6  C   UNL     1       4.120  14.638  18.986  0.00  0.00    +0.000 C 
ATOM      7  N   UNL     1       3.044  15.492  19.485  0.00  0.00    +0.000 NA
ATOM      8  C   UNL     1       1.860  15.439  18.609  0.00  0.00    +0.000 C 
ATOM      9  C   UNL     1       0.662  15.053  19.477  0.00  0.00    +0.000 C 
ATOM     10  C   UNL     1      -0.195  13.925  18.913  0.00  0.00    +0.000 C 
ATOM     11  N   UNL     1       0.300  12.710  19.532  0.00  0.00    +0.000 N 
ATOM     12  C   UNL     1      -0.155  11.461  19.142  0.00  0.00    +0.000 C 
ATOM     13  O   UNL     1      -1.050  11.335  18.307  0.00  0.00    +0.000 OA
ATOM     14  C   UNL     1       1.353  12.985  20.489  0.00  0.00    +0.000 C 
ATOM     15  C   UNL     1       1.275  14.481  20.747  0.00  0.00    +0.000 C 
ATOM     16  C   UNL     1       2.624  15.158  20.851  0.00  0.00    +0.000 C 
ENDBRANCH   1  12
BRANCH   4  17
ATOM     17  C   UNL     1       2.361   7.199  19.340  0.00  0.00    +0.000 A 
ATOM     18  C   UNL     1       2.537   5.926  19.893  0.00  0.00    +0.000 A 
ATOM     19  N   UNL     1       3.276   5.131  19.115  0.00  0.00    +0.000 NA
ATOM     20  N   UNL     1       3.616   5.909  18.051  0.00  0.00    +0.000 N 
ATOM     21  C   UNL     1       3.063   7.166  18.159  0.00  0.00    +0.000 A 
BRANCH  20  22
ATOM     22  C   UNL     1       4.457   5.418  17.017  0.00  0.00    +0.000 A 
ATOM     23  C   UNL     1       4.735   4.042  16.940  0.00  0.00    +0.000 A 
ATOM     24  C   UNL     1       5.578   3.558  15.937  0.00  0.00    +0.000 A 
ATOM     25  C   UNL     1       6.148   4.439  15.019  0.00  0.00    +0.000 A 
ATOM     26  C   UNL     1       5.869   5.802  15.090  0.00  0.00    +0.000 A 
ATOM     27  C   UNL     1       5.021   6.289  16.079  0.00  0.00    +0.000 A 
ENDBRANCH  20  22
ENDBRANCH   4  17
TORSDOF 3
ENDMDL
