MODEL 1
REMARK VINA RESULT:      -9.3      0.000      0.000
REMARK  Name = 
REMARK  6 active torsions:
REMARK  status: ('A' for Active; 'I' for Inactive)
REMARK    1  A    between atoms: C_1  and  C_2
REMARK    2  A    between atoms: C_4  and  N_5
REMARK    3  A    between atoms: C_6  and  C_8
REMARK    4  A    between atoms: C_8  and  C_9
REMARK    5  A    between atoms: N_18  and  C_19
REMARK    6  A    between atoms: C_23  and  C_24
REMARK                            x       y       z     vdW  Elec       q    Type
REMARK                         _______ _______ _______ _____ _____    ______ ____
ROOT
ATOM      1  C   UNL     1       1.749   2.337  21.318  0.00  0.00    +0.000 C 
ATOM      2  C   UNL     1       2.407   3.533  20.724  0.00  0.00    +0.000 A 
ATOM      3  C   UNL     1       2.075   4.888  20.886  0.00  0.00    +0.000 A 
ATOM      4  C   UNL     1       2.911   5.581  20.049  0.00  0.00    +0.000 A 
ATOM      5  N   UNL     1       3.799   4.646  19.513  0.00  0.00    +0.000 N 
ATOM      6  N   UNL     1       3.441   3.387  19.883  0.00  0.00    +0.000 NA
ENDROOT
BRANCH   5   7
ATOM      7  C   UNL     1       4.988   4.853  18.748  0.00  0.00    +0.000 A 
ATOM      8  C   UNL     1       6.129   5.341  19.414  0.00  0.00    +0.000 A 
ATOM      9  C   UNL     1       7.310   5.565  18.704  0.00  0.00    +0.000 A 
ATOM     10  C   UNL     1       7.366   5.299  17.337  0.00  0.00    +0.000 A 
ATOM     11  C   UNL     1       6.234   4.827  16.664  0.00  0.00    +0.000 A 
ATOM     12  C   UNL     1       5.039   4.633  17.381  0.00  0.00    +0.000 A 
BRANCH  11  13
ATOM     13  C   UNL     1       6.263   4.517  15.187  0.00  0.00    +0.000 C 
ATOM     14  F   UNL     1       6.095   3.202  14.892  0.00  0.00    +0.000 F 
ATOM     15  F   UNL     1       5.287   5.188  14.513  0.00  0.00    +0.000 F 
ATOM     16  F   UNL     1       7.436   4.897  14.609  0.00  0.00    +0.000 F 
ENDBRANCH  11  13
ENDBRANCH   5   7
BRANCH   4  17
ATOM     17  N   UNL     1       2.814   6.953  19.812  0.00  0.00    +0.000 N 
ATOM     18  C   UNL     1       2.302   7.477  18.567  0.00  0.00    +0.000 C 
ATOM     19  O   UNL     1       1.836   6.700  17.743  0.00  0.00    +0.000 OA
ATOM     20  H   UNL     1       3.089   7.602  20.550  0.00  0.00    +0.000 HD
BRANCH  18  21
ATOM     21  C   UNL     1       2.205   8.965  18.399  0.00  0.00    +0.000 C 
BRANCH  21  22
ATOM     22  C   UNL     1       1.035   9.563  19.076  0.00  0.00    +0.000 A 
ATOM     23  N   UNL     1       0.075  10.120  18.322  0.00  0.00    +0.000 NA
ATOM     24  O   UNL     1      -0.767  10.759  19.218  0.00  0.00    +0.000 OA
ATOM     25  C   UNL     1      -0.380  10.469  20.487  0.00  0.00    +0.000 A 
ATOM     26  C   UNL     1      -0.987  10.917  21.653  0.00  0.00    +0.000 A 
ATOM     27  C   UNL     1      -0.639  10.225  22.813  0.00  0.00    +0.000 A 
ATOM     28  C   UNL     1       0.494   9.411  22.838  0.00  0.00    +0.000 A 
ATOM     29  C   UNL     1       1.268   9.210  21.684  0.00  0.00    +0.000 A 
ATOM     30  C   UNL     1       0.733   9.647  20.459  0.00  0.00    +0.000 A 
ENDBRANCH  21  22
ENDBRANCH  18  21
ENDBRANCH   4  17
TORSDOF 5
ENDMDL
MODEL 2
REMARK VINA RESULT:      -9.1      1.638      2.188
REMARK  Name = 
REMARK  6 active torsions:
REMARK  status: ('A' for Active; 'I' for Inactive)
REMARK    1  A    between atoms: C_1  and  C_2
REMARK    2  A    between atoms: C_4  and  N_5
REMARK    3  A    between atoms: C_6  and  C_8
REMARK    4  A    between atoms: C_8  and  C_9
REMARK    5  A    between atoms: N_18  and  C_19
REMARK    6  A    between atoms: C_23  and  C_24
REMARK                            x       y       z     vdW  Elec       q    Type
REMARK                         _______ _______ _______ _____ _____    ______ ____
ROOT
ATOM      1  C   UNL     1       1.785   3.029  21.640  0.00  0.00    +0.000 C 
ATOM      2  C   UNL     1       2.330   3.981  20.634  0.00  0.00    +0.000 A 
ATOM      3  C   UNL     1       1.774   5.186  20.175  0.00  0.00    +0.000 A 
ATOM      4  C   UNL     1       2.605   5.627  19.178  0.00  0.00    +0.000 A 
ATOM      5  N   UNL     1       3.694   4.753  19.156  0.00  0.00    +0.000 N 
ATOM      6  N   UNL     1       3.485   3.713  20.007  0.00  0.00    +0.000 NA
ENDROOT
BRANCH   5   7
ATOM      7  C   UNL     1       4.935   4.861  18.457  0.00  0.00    +0.000 A 
ATOM      8  C   UNL     1       6.089   5.184  19.197  0.00  0.00    +0.000 A 
ATOM      9  C   UNL     1       7.322   5.308  18.553  0.00  0.00    +0.000 A 
ATOM     10  C   UNL     1       7.416   5.105  17.178  0.00  0.00    +0.000 A 
ATOM     11  C   UNL     1       6.273   4.798  16.431  0.00  0.00    +0.000 A 
ATOM     12  C   UNL     1       5.030   4.705  17.083  0.00  0.00    +0.000 A 
BRANCH  11  13
ATOM     13  C   UNL     1       6.342   4.561  14.942  0.00  0.00    +0.000 C 
ATOM     14  F   UNL     1       6.307   3.250  14.586  0.00  0.00    +0.000 F 
ATOM     15  F   UNL     1       5.308   5.161  14.289  0.00  0.00    +0.000 F 
ATOM     16  F   UNL     1       7.474   5.080  14.393  0.00  0.00    +0.000 F 
ENDBRANCH  11  13
ENDBRANCH   5   7
BRANCH   4  17
ATOM     17  N   UNL     1       2.334   6.730  18.367  0.00  0.00    +0.000 N 
ATOM     18  C   UNL     1       1.943   8.006  18.922  0.00  0.00    +0.000 C 
ATOM     19  O   UNL     1       1.961   8.155  20.136  0.00  0.00    +0.000 OA
ATOM     20  H   UNL     1       2.439   6.637  17.356  0.00  0.00    +0.000 HD
BRANCH  18  21
ATOM     21  C   UNL     1       1.694   9.150  17.984  0.00  0.00    +0.000 C 
BRANCH  21  22
ATOM     22  C   UNL     1       0.745  10.153  18.511  0.00  0.00    +0.000 A 
ATOM     23  N   UNL     1       1.188  11.043  19.412  0.00  0.00    +0.000 NA
ATOM     24  O   UNL     1       0.055  11.703  19.860  0.00  0.00    +0.000 OA
ATOM     25  C   UNL     1      -1.020  11.299  19.134  0.00  0.00    +0.000 A 
ATOM     26  C   UNL     1      -2.325  11.747  19.284  0.00  0.00    +0.000 A 
ATOM     27  C   UNL     1      -3.182  11.459  18.221  0.00  0.00    +0.000 A 
ATOM     28  C   UNL     1      -2.839  10.488  17.279  0.00  0.00    +0.000 A 
ATOM     29  C   UNL     1      -1.598   9.832  17.333  0.00  0.00    +0.000 A 
ATOM     30  C   UNL     1      -0.625  10.353  18.205  0.00  0.00    +0.000 A 
ENDBRANCH  21  22
ENDBRANCH  18  21
ENDBRANCH   4  17
TORSDOF 5
ENDMDL
MODEL 3
REMARK VINA RESULT:      -9.0      4.175      5.955
REMARK  Name = 
REMARK  6 active torsions:
REMARK  status: ('A' for Active; 'I' for Inactive)
REMARK    1  A    between atoms: C_1  and  C_2
REMARK    2  A    between atoms: C_4  and  N_5
REMARK    3  A    between atoms: C_6  and  C_8
REMARK    4  A    between atoms: C_8  and  C_9
REMARK    5  A    between atoms: N_18  and  C_19
REMARK    6  A    between atoms: C_23  and  C_24
REMARK                            x       y       z     vdW  Elec       q    Type
REMARK                         _______ _______ _______ _____ _____    ______ ____
ROOT
ATOM      1  C   UNL     1       7.135   4.297  12.535  0.00  0.00    +0.000 C 
ATOM      2  C   UNL     1       6.652   4.653  13.898  0.00  0.00    +0.000 A 
ATOM      3  C   UNL     1       5.410   4.370  14.489  0.00  0.00    +0.000 A 
ATOM      4  C   UNL     1       5.420   5.005  15.704  0.00  0.00    +0.000 A 
ATOM      5  N   UNL     1       6.702   5.535  15.862  0.00  0.00    +0.000 N 
ATOM      6  N   UNL     1       7.428   5.369  14.724  0.00  0.00    +0.000 NA
ENDROOT
BRANCH   5   7
ATOM      7  C   UNL     1       7.313   6.113  17.017  0.00  0.00    +0.000 A 
ATOM      8  C   UNL     1       7.588   5.273  18.114  0.00  0.00    +0.000 A 
ATOM      9  C   UNL     1       8.176   5.798  19.267  0.00  0.00    +0.000 A 
ATOM     10  C   UNL     1       8.502   7.151  19.332  0.00  0.00    +0.000 A 
ATOM     11  C   UNL     1       8.221   7.996  18.253  0.00  0.00    +0.000 A 
ATOM     12  C   UNL     1       7.599   7.466  17.108  0.00  0.00    +0.000 A 
BRANCH  11  13
ATOM     13  C   UNL     1       8.571   9.464  18.286  0.00  0.00    +0.000 C 
ATOM     14  F   UNL     1       9.564   9.818  17.430  0.00  0.00    +0.000 F 
ATOM     15  F   UNL     1       7.499  10.244  17.970  0.00  0.00    +0.000 F 
ATOM     16  F   UNL     1       8.966   9.868  19.525  0.00  0.00    +0.000 F 
ENDBRANCH  11  13
ENDBRANCH   5   7
BRANCH   4  17
ATOM     17  N   UNL     1       4.314   5.084  16.551  0.00  0.00    +0.000 N 
ATOM     18  C   UNL     1       3.798   6.352  17.015  0.00  0.00    +0.000 C 
ATOM     19  O   UNL     1       4.271   7.386  16.562  0.00  0.00    +0.000 OA
ATOM     20  H   UNL     1       3.843   4.223  16.831  0.00  0.00    +0.000 HD
BRANCH  18  21
ATOM     21  C   UNL     1       2.589   6.354  17.903  0.00  0.00    +0.000 C 
BRANCH  21  22
ATOM     22  C   UNL     1       2.122   5.002  18.273  0.00  0.00    +0.000 A 
ATOM     23  N   UNL     1       1.721   4.173  17.296  0.00  0.00    +0.000 NA
ATOM     24  O   UNL     1       1.163   3.085  17.949  0.00  0.00    +0.000 OA
ATOM     25  C   UNL     1       1.355   3.213  19.287  0.00  0.00    +0.000 A 
ATOM     26  C   UNL     1       0.947   2.315  20.264  0.00  0.00    +0.000 A 
ATOM     27  C   UNL     1       1.546   2.477  21.513  0.00  0.00    +0.000 A 
ATOM     28  C   UNL     1       2.205   3.664  21.833  0.00  0.00    +0.000 A 
ATOM     29  C   UNL     1       2.347   4.692  20.887  0.00  0.00    +0.000 A 
ATOM     30  C   UNL     1       2.027   4.393  19.551  0.00  0.00    +0.000 A 
ENDBRANCH  21  22
ENDBRANCH  18  21
ENDBRANCH   4  17
TORSDOF 5
ENDMDL
MODEL 4
REMARK VINA RESULT:      -8.7      0.815      1.180
REMARK  Name = 
REMARK  6 active torsions:
REMARK  status: ('A' for Active; 'I' for Inactive)
REMARK    1  A    between atoms: C_1  and  C_2
REMARK    2  A    between atoms: C_4  and  N_5
REMARK    3  A    between atoms: C_6  and  C_8
REMARK    4  A    between atoms: C_8  and  C_9
REMARK    5  A    between atoms: N_18  and  C_19
REMARK    6  A    between atoms: C_23  and  C_24
REMARK                            x       y       z     vdW  Elec       q    Type
REMARK                         _______ _______ _______ _____ _____    ______ ____
ROOT
ATOM      1  C   UNL     1       1.497   2.532  21.204  0.00  0.00    +0.000 C 
ATOM      2  C   UNL     1       2.205   3.704  20.620  0.00  0.00    +0.000 A 
ATOM      3  C   UNL     1       1.908   5.069  20.765  0.00  0.00    +0.000 A 
ATOM      4  C   UNL     1       2.784   5.733  19.945  0.00  0.00    +0.000 A 
ATOM      5  N   UNL     1       3.658   4.769  19.438  0.00  0.00    +0.000 N 
ATOM      6  N   UNL     1       3.255   3.523  19.806  0.00  0.00    +0.000 NA
ENDROOT
BRANCH   5   7
ATOM      7  C   UNL     1       4.871   4.936  18.703  0.00  0.00    +0.000 A 
ATOM      8  C   UNL     1       6.023   5.341  19.405  0.00  0.00    +0.000 A 
ATOM      9  C   UNL     1       7.228   5.525  18.725  0.00  0.00    +0.000 A 
ATOM     10  C   UNL     1       7.299   5.300  17.352  0.00  0.00    +0.000 A 
ATOM     11  C   UNL     1       6.157   4.911  16.643  0.00  0.00    +0.000 A 
ATOM     12  C   UNL     1       4.939   4.758  17.330  0.00  0.00    +0.000 A 
BRANCH  11  13
ATOM     13  C   UNL     1       6.200   4.648  15.157  0.00  0.00    +0.000 C 
ATOM     14  F   UNL     1       7.300   5.148  14.536  0.00  0.00    +0.000 F 
ATOM     15  F   UNL     1       6.179   3.314  14.881  0.00  0.00    +0.000 F 
ATOM     16  F   UNL     1       5.121   5.173  14.514  0.00  0.00    +0.000 F 
ENDBRANCH  11  13
ENDBRANCH   5   7
BRANCH   4  17
ATOM     17  N   UNL     1       2.732   7.105  19.697  0.00  0.00    +0.000 N 
ATOM     18  C   UNL     1       2.347   7.633  18.408  0.00  0.00    +0.000 C 
ATOM     19  O   UNL     1       1.947   6.860  17.546  0.00  0.00    +0.000 OA
ATOM     20  H   UNL     1       2.948   7.753  20.456  0.00  0.00    +0.000 HD
BRANCH  18  21
ATOM     21  C   UNL     1       2.290   9.121  18.229  0.00  0.00    +0.000 C 
BRANCH  21  22
ATOM     22  C   UNL     1       0.951   9.697  18.468  0.00  0.00    +0.000 A 
ATOM     23  N   UNL     1       0.016   9.563  17.514  0.00  0.00    +0.000 NA
ATOM     24  O   UNL     1      -1.041  10.359  17.926  0.00  0.00    +0.000 OA
ATOM     25  C   UNL     1      -0.783  10.846  19.167  0.00  0.00    +0.000 A 
ATOM     26  C   UNL     1      -1.613  11.671  19.913  0.00  0.00    +0.000 A 
ATOM     27  C   UNL     1      -1.306  11.760  21.271  0.00  0.00    +0.000 A 
ATOM     28  C   UNL     1      -0.058  11.352  21.742  0.00  0.00    +0.000 A 
ATOM     29  C   UNL     1       0.889  10.775  20.879  0.00  0.00    +0.000 A 
ATOM     30  C   UNL     1       0.454  10.399  19.596  0.00  0.00    +0.000 A 
ENDBRANCH  21  22
ENDBRANCH  18  21
ENDBRANCH   4  17
TORSDOF 5
ENDMDL
MODEL 5
REMARK VINA RESULT:      -8.7      1.443      1.926
REMARK  Name = 
REMARK  6 active torsions:
REMARK  status: ('A' for Active; 'I' for Inactive)
REMARK    1  A    between atoms: C_1  and  C_2
REMARK    2  A    between atoms: C_4  and  N_5
REMARK    3  A    between atoms: C_6  and  C_8
REMARK    4  A    between atoms: C_8  and  C_9
REMARK    5  A    between atoms: N_18  and  C_19
REMARK    6  A    between atoms: C_23  and  C_24
REMARK                            x       y       z     vdW  Elec       q    Type
REMARK                         _______ _______ _______ _____ _____    ______ ____
ROOT
ATOM      1  C   UNL     1       1.492   2.513  21.468  0.00  0.00    +0.000 C 
ATOM      2  C   UNL     1       2.106   3.675  20.767  0.00  0.00    +0.000 A 
ATOM      3  C   UNL     1       1.938   5.044  21.027  0.00  0.00    +0.000 A 
ATOM      4  C   UNL     1       2.627   5.700  20.039  0.00  0.00    +0.000 A 
ATOM      5  N   UNL     1       3.289   4.718  19.299  0.00  0.00    +0.000 N 
ATOM      6  N   UNL     1       2.912   3.478  19.714  0.00  0.00    +0.000 NA
ENDROOT
BRANCH   5   7
ATOM      7  C   UNL     1       4.294   4.857  18.293  0.00  0.00    +0.000 A 
ATOM      8  C   UNL     1       4.260   3.977  17.195  0.00  0.00    +0.000 A 
ATOM      9  C   UNL     1       5.228   4.073  16.193  0.00  0.00    +0.000 A 
ATOM     10  C   UNL     1       6.224   5.043  16.272  0.00  0.00    +0.000 A 
ATOM     11  C   UNL     1       6.274   5.914  17.366  0.00  0.00    +0.000 A 
ATOM     12  C   UNL     1       5.313   5.791  18.387  0.00  0.00    +0.000 A 
BRANCH  11  13
ATOM     13  C   UNL     1       7.332   6.984  17.479  0.00  0.00    +0.000 C 
ATOM     14  F   UNL     1       8.120   7.104  16.378  0.00  0.00    +0.000 F 
ATOM     15  F   UNL     1       6.785   8.213  17.692  0.00  0.00    +0.000 F 
ATOM     16  F   UNL     1       8.169   6.767  18.530  0.00  0.00    +0.000 F 
ENDBRANCH  11  13
ENDBRANCH   5   7
BRANCH   4  17
ATOM     17  N   UNL     1       2.600   7.083  19.857  0.00  0.00    +0.000 N 
ATOM     18  C   UNL     1       2.095   7.684  18.644  0.00  0.00    +0.000 C 
ATOM     19  O   UNL     1       1.573   6.967  17.800  0.00  0.00    +0.000 OA
ATOM     20  H   UNL     1       2.924   7.687  20.614  0.00  0.00    +0.000 HD
BRANCH  18  21
ATOM     21  C   UNL     1       2.076   9.180  18.536  0.00  0.00    +0.000 C 
BRANCH  21  22
ATOM     22  C   UNL     1       0.936   9.811  19.232  0.00  0.00    +0.000 A 
ATOM     23  N   UNL     1       0.029  10.477  18.502  0.00  0.00    +0.000 NA
ATOM     24  O   UNL     1      -0.786  11.113  19.425  0.00  0.00    +0.000 OA
ATOM     25  C   UNL     1      -0.443  10.718  20.678  0.00  0.00    +0.000 A 
ATOM     26  C   UNL     1      -1.042  11.131  21.861  0.00  0.00    +0.000 A 
ATOM     27  C   UNL     1      -0.762  10.345  22.979  0.00  0.00    +0.000 A 
ATOM     28  C   UNL     1       0.315   9.458  22.969  0.00  0.00    +0.000 A 
ATOM     29  C   UNL     1       1.096   9.279  21.816  0.00  0.00    +0.000 A 
ATOM     30  C   UNL     1       0.614   9.827  20.614  0.00  0.00    +0.000 A 
ENDBRANCH  21  22
ENDBRANCH  18  21
ENDBRANCH   4  17
TORSDOF 5
ENDMDL
MODEL 6
REMARK VINA RESULT:      -8.5      1.186      1.510
REMARK  Name = 
REMARK  6 active torsions:
REMARK  status: ('A' for Active; 'I' for Inactive)
REMARK    1  A    between atoms: C_1  and  C_2
REMARK    2  A    between atoms: C_4  and  N_5
REMARK    3  A    between atoms: C_6  and  C_8
REMARK    4  A    between atoms: C_8  and  C_9
REMARK    5  A    between atoms: N_18  and  C_19
REMARK    6  A    between atoms: C_23  and  C_24
REMARK                            x       y       z     vdW  Elec       q    Type
REMARK                         _______ _______ _______ _____ _____    ______ ____
ROOT
ATOM      1  C   UNL     1       1.737   3.015  21.682  0.00  0.00    +0.000 C 
ATOM      2  C   UNL     1       2.304   4.015  20.735  0.00  0.00    +0.000 A 
ATOM      3  C   UNL     1       1.793   5.273  20.379  0.00  0.00    +0.000 A 
ATOM      4  C   UNL     1       2.623   5.750  19.397  0.00  0.00    +0.000 A 
ATOM      5  N   UNL     1       3.670   4.833  19.284  0.00  0.00    +0.000 N 
ATOM      6  N   UNL     1       3.432   3.744  20.063  0.00  0.00    +0.000 NA
ENDROOT
BRANCH   5   7
ATOM      7  C   UNL     1       4.900   4.939  18.565  0.00  0.00    +0.000 A 
ATOM      8  C   UNL     1       6.056   5.314  19.277  0.00  0.00    +0.000 A 
ATOM      9  C   UNL     1       7.278   5.438  18.612  0.00  0.00    +0.000 A 
ATOM     10  C   UNL     1       7.360   5.181  17.245  0.00  0.00    +0.000 A 
ATOM     11  C   UNL     1       6.214   4.821  16.526  0.00  0.00    +0.000 A 
ATOM     12  C   UNL     1       4.981   4.729  17.198  0.00  0.00    +0.000 A 
BRANCH  11  13
ATOM     13  C   UNL     1       6.269   4.525  15.047  0.00  0.00    +0.000 C 
ATOM     14  F   UNL     1       5.249   5.068  14.334  0.00  0.00    +0.000 F 
ATOM     15  F   UNL     1       7.419   4.990  14.483  0.00  0.00    +0.000 F 
ATOM     16  F   UNL     1       6.250   3.188  14.792  0.00  0.00    +0.000 F 
ENDBRANCH  11  13
ENDBRANCH   5   7
BRANCH   4  17
ATOM     17  N   UNL     1       2.385   6.920  18.676  0.00  0.00    +0.000 N 
ATOM     18  C   UNL     1       1.894   8.122  19.312  0.00  0.00    +0.000 C 
ATOM     19  O   UNL     1       1.793   8.148  20.531  0.00  0.00    +0.000 OA
ATOM     20  H   UNL     1       2.587   6.934  17.675  0.00  0.00    +0.000 HD
BRANCH  18  21
ATOM     21  C   UNL     1       1.689   9.347  18.471  0.00  0.00    +0.000 C 
BRANCH  21  22
ATOM     22  C   UNL     1       0.379   9.998  18.681  0.00  0.00    +0.000 A 
ATOM     23  N   UNL     1      -0.586   9.805  17.769  0.00  0.00    +0.000 NA
ATOM     24  O   UNL     1      -1.601  10.681  18.122  0.00  0.00    +0.000 OA
ATOM     25  C   UNL     1      -1.290  11.282  19.299  0.00  0.00    +0.000 A 
ATOM     26  C   UNL     1      -2.068  12.212  19.976  0.00  0.00    +0.000 A 
ATOM     27  C   UNL     1      -1.720  12.427  21.309  0.00  0.00    +0.000 A 
ATOM     28  C   UNL     1      -0.475  12.018  21.790  0.00  0.00    +0.000 A 
ATOM     29  C   UNL     1       0.425  11.319  20.969  0.00  0.00    +0.000 A 
ATOM     30  C   UNL     1      -0.059  10.831  19.743  0.00  0.00    +0.000 A 
ENDBRANCH  21  22
ENDBRANCH  18  21
ENDBRANCH   4  17
TORSDOF 5
ENDMDL
MODEL 7
REMARK VINA RESULT:      -8.5      1.705      2.195
REMARK  Name = 
REMARK  6 active torsions:
REMARK  status: ('A' for Active; 'I' for Inactive)
REMARK    1  A    between atoms: C_1  and  C_2
REMARK    2  A    between atoms: C_4  and  N_5
REMARK    3  A    between atoms: C_6  and  C_8
REMARK    4  A    between atoms: C_8  and  C_9
REMARK    5  A    between atoms: N_18  and  C_19
REMARK    6  A    between atoms: C_23  and  C_24
REMARK                            x       y       z     vdW  Elec       q    Type
REMARK                         _______ _______ _______ _____ _____    ______ ____
ROOT
ATOM      1  C   UNL     1       1.604   2.621  21.379  0.00  0.00    +0.000 C 
ATOM      2  C   UNL     1       2.140   3.634  20.429  0.00  0.00    +0.000 A 
ATOM      3  C   UNL     1       1.539   4.822  19.981  0.00  0.00    +0.000 A 
ATOM      4  C   UNL     1       2.389   5.339  19.038  0.00  0.00    +0.000 A 
ATOM      5  N   UNL     1       3.524   4.527  19.040  0.00  0.00    +0.000 N 
ATOM      6  N   UNL     1       3.335   3.450  19.849  0.00  0.00    +0.000 NA
ENDROOT
BRANCH   5   7
ATOM      7  C   UNL     1       4.788   4.726  18.404  0.00  0.00    +0.000 A 
ATOM      8  C   UNL     1       5.883   5.104  19.204  0.00  0.00    +0.000 A 
ATOM      9  C   UNL     1       7.134   5.317  18.622  0.00  0.00    +0.000 A 
ATOM     10  C   UNL     1       7.306   5.148  17.250  0.00  0.00    +0.000 A 
ATOM     11  C   UNL     1       6.221   4.785  16.444  0.00  0.00    +0.000 A 
ATOM     12  C   UNL     1       4.957   4.603  17.034  0.00  0.00    +0.000 A 
BRANCH  11  13
ATOM     13  C   UNL     1       6.374   4.582  14.956  0.00  0.00    +0.000 C 
ATOM     14  F   UNL     1       6.350   3.281  14.568  0.00  0.00    +0.000 F 
ATOM     15  F   UNL     1       5.384   5.207  14.259  0.00  0.00    +0.000 F 
ATOM     16  F   UNL     1       7.540   5.104  14.487  0.00  0.00    +0.000 F 
ENDBRANCH  11  13
ENDBRANCH   5   7
BRANCH   4  17
ATOM     17  N   UNL     1       2.093   6.452  18.250  0.00  0.00    +0.000 N 
ATOM     18  C   UNL     1       2.045   7.787  18.801  0.00  0.00    +0.000 C 
ATOM     19  O   UNL     1       2.385   7.960  19.965  0.00  0.00    +0.000 OA
ATOM     20  H   UNL     1       1.930   6.320  17.250  0.00  0.00    +0.000 HD
BRANCH  18  21
ATOM     21  C   UNL     1       1.746   8.934  17.882  0.00  0.00    +0.000 C 
BRANCH  21  22
ATOM     22  C   UNL     1       1.105  10.083  18.555  0.00  0.00    +0.000 A 
ATOM     23  N   UNL     1       0.001   9.863  19.286  0.00  0.00    +0.000 NA
ATOM     24  O   UNL     1      -0.474  11.123  19.615  0.00  0.00    +0.000 OA
ATOM     25  C   UNL     1       0.412  12.063  19.198  0.00  0.00    +0.000 A 
ATOM     26  C   UNL     1       0.287  13.436  19.359  0.00  0.00    +0.000 A 
ATOM     27  C   UNL     1       1.458  14.170  19.167  0.00  0.00    +0.000 A 
ATOM     28  C   UNL     1       2.549  13.602  18.509  0.00  0.00    +0.000 A 
ATOM     29  C   UNL     1       2.525  12.262  18.091  0.00  0.00    +0.000 A 
ATOM     30  C   UNL     1       1.482  11.450  18.569  0.00  0.00    +0.000 A 
ENDBRANCH  21  22
ENDBRANCH  18  21
ENDBRANCH   4  17
TORSDOF 5
ENDMDL
MODEL 8
REMARK VINA RESULT:      -8.4      2.244      2.994
REMARK  Name = 
REMARK  6 active torsions:
REMARK  status: ('A' for Active; 'I' for Inactive)
REMARK    1  A    between atoms: C_1  and  C_2
REMARK    2  A    between atoms: C_4  and  N_5
REMARK    3  A    between atoms: C_6  and  C_8
REMARK    4  A    between atoms: C_8  and  C_9
REMARK    5  A    between atoms: N_18  and  C_19
REMARK    6  A    between atoms: C_23  and  C_24
REMARK                            x       y       z     vdW  Elec       q    Type
REMARK                         _______ _______ _______ _____ _____    ______ ____
ROOT
ATOM      1  C   UNL     1       1.652   2.902  21.290  0.00  0.00    +0.000 C 
ATOM      2  C   UNL     1       2.148   3.898  20.300  0.00  0.00    +0.000 A 
ATOM      3  C   UNL     1       1.561   5.113  19.910  0.00  0.00    +0.000 A 
ATOM      4  C   UNL     1       2.347   5.601  18.898  0.00  0.00    +0.000 A 
ATOM      5  N   UNL     1       3.444   4.741  18.799  0.00  0.00    +0.000 N 
ATOM      6  N   UNL     1       3.279   3.667  19.618  0.00  0.00    +0.000 NA
ENDROOT
BRANCH   5   7
ATOM      7  C   UNL     1       4.655   4.890  18.057  0.00  0.00    +0.000 A 
ATOM      8  C   UNL     1       4.993   3.887  17.129  0.00  0.00    +0.000 A 
ATOM      9  C   UNL     1       6.172   3.988  16.387  0.00  0.00    +0.000 A 
ATOM     10  C   UNL     1       7.013   5.085  16.557  0.00  0.00    +0.000 A 
ATOM     11  C   UNL     1       6.693   6.081  17.486  0.00  0.00    +0.000 A 
ATOM     12  C   UNL     1       5.518   5.956  18.251  0.00  0.00    +0.000 A 
BRANCH  11  13
ATOM     13  C   UNL     1       7.575   7.289  17.687  0.00  0.00    +0.000 C 
ATOM     14  F   UNL     1       8.439   7.179  18.730  0.00  0.00    +0.000 F 
ATOM     15  F   UNL     1       8.336   7.545  16.586  0.00  0.00    +0.000 F 
ATOM     16  F   UNL     1       6.850   8.421  17.903  0.00  0.00    +0.000 F 
ENDBRANCH  11  13
ENDBRANCH   5   7
BRANCH   4  17
ATOM     17  N   UNL     1       2.033   6.730  18.142  0.00  0.00    +0.000 N 
ATOM     18  C   UNL     1       1.918   8.041  18.740  0.00  0.00    +0.000 C 
ATOM     19  O   UNL     1       2.216   8.183  19.919  0.00  0.00    +0.000 OA
ATOM     20  H   UNL     1       1.905   6.630  17.134  0.00  0.00    +0.000 HD
BRANCH  18  21
ATOM     21  C   UNL     1       1.602   9.210  17.854  0.00  0.00    +0.000 C 
BRANCH  21  22
ATOM     22  C   UNL     1       0.646  10.165  18.450  0.00  0.00    +0.000 A 
ATOM     23  N   UNL     1       1.093  11.019  19.384  0.00  0.00    +0.000 NA
ATOM     24  O   UNL     1      -0.043  11.633  19.889  0.00  0.00    +0.000 OA
ATOM     25  C   UNL     1      -1.126  11.242  19.169  0.00  0.00    +0.000 A 
ATOM     26  C   UNL     1      -2.436  11.654  19.369  0.00  0.00    +0.000 A 
ATOM     27  C   UNL     1      -3.311  11.400  18.313  0.00  0.00    +0.000 A 
ATOM     28  C   UNL     1      -2.971  10.484  17.317  0.00  0.00    +0.000 A 
ATOM     29  C   UNL     1      -1.717   9.852  17.311  0.00  0.00    +0.000 A 
ATOM     30  C   UNL     1      -0.735  10.351  18.185  0.00  0.00    +0.000 A 
ENDBRANCH  21  22
ENDBRANCH  18  21
ENDBRANCH   4  17
TORSDOF 5
ENDMDL
MODEL 9
REMARK VINA RESULT:      -8.4      1.424      2.009
REMARK  Name = 
REMARK  6 active torsions:
REMARK  status: ('A' for Active; 'I' for Inactive)
REMARK    1  A    between atoms: C_1  and  C_2
REMARK    2  A    between atoms: C_4  and  N_5
REMARK    3  A    between atoms: C_6  and  C_8
REMARK    4  A    between atoms: C_8  and  C_9
REMARK    5  A    between atoms: N_18  and  C_19
REMARK    6  A    between atoms: C_23  and  C_24
REMARK                            x       y       z     vdW  Elec       q    Type
REMARK                         _______ _______ _______ _____ _____    ______ ____
ROOT
ATOM      1  C   UNL     1       1.509   2.813  21.529  0.00  0.00    +0.000 C 
ATOM      2  C   UNL     1       2.212   3.899  20.792  0.00  0.00    +0.000 A 
ATOM      3  C   UNL     1       1.936   5.276  20.788  0.00  0.00    +0.000 A 
ATOM      4  C   UNL     1       2.794   5.827  19.871  0.00  0.00    +0.000 A 
ATOM      5  N   UNL     1       3.639   4.798  19.451  0.00  0.00    +0.000 N 
ATOM      6  N   UNL     1       3.233   3.609  19.973  0.00  0.00    +0.000 NA
ENDROOT
BRANCH   5   7
ATOM      7  C   UNL     1       4.830   4.860  18.665  0.00  0.00    +0.000 A 
ATOM      8  C   UNL     1       6.043   5.151  19.319  0.00  0.00    +0.000 A 
ATOM      9  C   UNL     1       7.230   5.230  18.589  0.00  0.00    +0.000 A 
ATOM     10  C   UNL     1       7.221   5.013  17.213  0.00  0.00    +0.000 A 
ATOM     11  C   UNL     1       6.019   4.737  16.551  0.00  0.00    +0.000 A 
ATOM     12  C   UNL     1       4.823   4.690  17.291  0.00  0.00    +0.000 A 
BRANCH  11  13
ATOM     13  C   UNL     1       5.974   4.486  15.064  0.00  0.00    +0.000 C 
ATOM     14  F   UNL     1       6.591   5.441  14.320  0.00  0.00    +0.000 F 
ATOM     15  F   UNL     1       6.566   3.304  14.734  0.00  0.00    +0.000 F 
ATOM     16  F   UNL     1       4.697   4.399  14.598  0.00  0.00    +0.000 F 
ENDBRANCH  11  13
ENDBRANCH   5   7
BRANCH   4  17
ATOM     17  N   UNL     1       2.751   7.162  19.468  0.00  0.00    +0.000 N 
ATOM     18  C   UNL     1       2.245   7.552  18.171  0.00  0.00    +0.000 C 
ATOM     19  O   UNL     1       1.737   6.701  17.453  0.00  0.00    +0.000 OA
ATOM     20  H   UNL     1       3.062   7.885  20.118  0.00  0.00    +0.000 HD
BRANCH  18  21
ATOM     21  C   UNL     1       2.208   9.011  17.823  0.00  0.00    +0.000 C 
BRANCH  21  22
ATOM     22  C   UNL     1       1.466   9.835  18.799  0.00  0.00    +0.000 A 
ATOM     23  N   UNL     1       0.685   9.216  19.698  0.00  0.00    +0.000 NA
ATOM     24  O   UNL     1      -0.020  10.230  20.327  0.00  0.00    +0.000 OA
ATOM     25  C   UNL     1       0.439  11.434  19.897  0.00  0.00    +0.000 A 
ATOM     26  C   UNL     1      -0.014  12.679  20.310  0.00  0.00    +0.000 A 
ATOM     27  C   UNL     1       0.822  13.752  20.002  0.00  0.00    +0.000 A 
ATOM     28  C   UNL     1       1.827  13.614  19.043  0.00  0.00    +0.000 A 
ATOM     29  C   UNL     1       2.068  12.379  18.420  0.00  0.00    +0.000 A 
ATOM     30  C   UNL     1       1.443  11.244  18.964  0.00  0.00    +0.000 A 
ENDBRANCH  21  22
ENDBRANCH  18  21
ENDBRANCH   4  17
TORSDOF 5
ENDMDL
