MODEL 1
REMARK VINA RESULT:      -9.0      0.000      0.000
REMARK  Name = 
REMARK  6 active torsions:
REMARK  status: ('A' for Active; 'I' for Inactive)
REMARK    1  A    between atoms: C_1  and  O_2
REMARK    2  A    between atoms: O_2  and  C_3
REMARK    3  A    between atoms: C_6  and  N_7
REMARK    4  A    between atoms: C_8  and  C_10
REMARK    5  A    between atoms: C_10  and  O_11
REMARK    6  A    between atoms: O_11  and  C_12
REMARK                            x       y       z     vdW  Elec       q    Type
REMARK                         _______ _______ _______ _____ _____    ______ ____
ROOT
ATOM      1  O   UNL     1       7.084   6.769  16.819  0.00  0.00    +0.000 OA
ENDROOT
BRANCH   1   2
ATOM      2  C   UNL     1       5.958   6.017  17.032  0.00  0.00    +0.000 A 
ATOM      3  C   UNL     1       5.842   4.651  16.760  0.00  0.00    +0.000 A 
ATOM      4  C   UNL     1       4.620   3.980  16.948  0.00  0.00    +0.000 A 
ATOM      5  C   UNL     1       3.565   4.663  17.583  0.00  0.00    +0.000 A 
ATOM      6  C   UNL     1       3.773   5.987  17.962  0.00  0.00    +0.000 A 
ATOM      7  C   UNL     1       4.887   6.731  17.574  0.00  0.00    +0.000 A 
ATOM      8  N   UNL     1       2.777   6.291  18.861  0.00  0.00    +0.000 N 
ATOM      9  C   UNL     1       2.162   5.118  19.232  0.00  0.00    +0.000 A 
ATOM     10  C   UNL     1       1.551   4.718  20.419  0.00  0.00    +0.000 A 
ATOM     11  C   UNL     1       0.927   3.468  20.409  0.00  0.00    +0.000 A 
ATOM     12  C   UNL     1       0.811   2.728  19.229  0.00  0.00    +0.000 A 
ATOM     13  C   UNL     1       1.514   3.104  18.081  0.00  0.00    +0.000 A 
ATOM     14  C   UNL     1       2.321   4.253  18.153  0.00  0.00    +0.000 A 
ATOM     15  H   UNL     1       2.732   7.154  19.382  0.00  0.00    +0.000 HD
ENDBRANCH   1   2
BRANCH   1  16
ATOM     16  C   UNL     1       7.831   7.104  17.982  0.00  0.00    +0.000 C 
BRANCH  16  18
ATOM     17  N   UNL     1       8.972   9.018  18.964  0.00  0.00    +0.000 N 
ATOM     18  C   UNL     1       8.055   8.622  17.988  0.00  0.00    +0.000 C 
ATOM     19  O   UNL     1       7.452   9.349  17.221  0.00  0.00    +0.000 OA
ATOM     20  H   UNL     1       9.397   8.287  19.511  0.00  0.00    +0.000 HD
BRANCH  17  24
ATOM     21  C   UNL     1      10.299  12.981  19.688  0.00  0.00    +0.000 A 
ATOM     22  C   UNL     1       9.856  12.203  20.753  0.00  0.00    +0.000 A 
ATOM     23  C   UNL     1       9.418  10.890  20.533  0.00  0.00    +0.000 A 
ATOM     24  C   UNL     1       9.389  10.339  19.251  0.00  0.00    +0.000 A 
ATOM     25  C   UNL     1       9.824  11.129  18.179  0.00  0.00    +0.000 A 
ATOM     26  C   UNL     1      10.281  12.433  18.403  0.00  0.00    +0.000 A 
BRANCH  21  28
ATOM     27  C   UNL     1       9.773  15.291  19.892  0.00  0.00    +0.000 C 
ATOM     28  O   UNL     1      10.756  14.267  19.768  0.00  0.00    +0.000 OA
ENDBRANCH  21  28
ENDBRANCH  17  24
ENDBRANCH  16  18
ENDBRANCH   1  16
TORSDOF 5
ENDMDL
MODEL 2
REMARK VINA RESULT:      -8.9      0.411      1.025
REMARK  Name = 
REMARK  6 active torsions:
REMARK  status: ('A' for Active; 'I' for Inactive)
REMARK    1  A    between atoms: C_1  and  O_2
REMARK    2  A    between atoms: O_2  and  C_3
REMARK    3  A    between atoms: C_6  and  N_7
REMARK    4  A    between atoms: C_8  and  C_10
REMARK    5  A    between atoms: C_10  and  O_11
REMARK    6  A    between atoms: O_11  and  C_12
REMARK                            x       y       z     vdW  Elec       q    Type
REMARK                         _______ _______ _______ _____ _____    ______ ____
ROOT
ATOM      1  O   UNL     1       7.101   6.803  16.859  0.00  0.00    +0.000 OA
ENDROOT
BRANCH   1   2
ATOM      2  C   UNL     1       5.971   6.056  17.070  0.00  0.00    +0.000 A 
ATOM      3  C   UNL     1       5.846   4.693  16.790  0.00  0.00    +0.000 A 
ATOM      4  C   UNL     1       4.619   4.029  16.976  0.00  0.00    +0.000 A 
ATOM      5  C   UNL     1       3.570   4.715  17.618  0.00  0.00    +0.000 A 
ATOM      6  C   UNL     1       3.788   6.036  18.005  0.00  0.00    +0.000 A 
ATOM      7  C   UNL     1       4.905   6.774  17.619  0.00  0.00    +0.000 A 
ATOM      8  N   UNL     1       2.796   6.340  18.907  0.00  0.00    +0.000 N 
ATOM      9  C   UNL     1       2.174   5.169  19.273  0.00  0.00    +0.000 A 
ATOM     10  C   UNL     1       1.563   4.766  20.459  0.00  0.00    +0.000 A 
ATOM     11  C   UNL     1       0.930   3.520  20.442  0.00  0.00    +0.000 A 
ATOM     12  C   UNL     1       0.807   2.788  19.258  0.00  0.00    +0.000 A 
ATOM     13  C   UNL     1       1.510   3.166  18.111  0.00  0.00    +0.000 A 
ATOM     14  C   UNL     1       2.324   4.309  18.188  0.00  0.00    +0.000 A 
ATOM     15  H   UNL     1       2.758   7.200  19.434  0.00  0.00    +0.000 HD
ENDBRANCH   1   2
BRANCH   1  16
ATOM     16  C   UNL     1       7.842   7.142  18.024  0.00  0.00    +0.000 C 
BRANCH  16  18
ATOM     17  N   UNL     1       9.018   9.051  18.975  0.00  0.00    +0.000 N 
ATOM     18  C   UNL     1       8.082   8.658  18.017  0.00  0.00    +0.000 C 
ATOM     19  O   UNL     1       7.474   9.386  17.254  0.00  0.00    +0.000 OA
ATOM     20  H   UNL     1       9.444   8.320  19.520  0.00  0.00    +0.000 HD
BRANCH  17  24
ATOM     21  C   UNL     1      10.241  12.999  19.926  0.00  0.00    +0.000 A 
ATOM     22  C   UNL     1      10.288  12.569  18.604  0.00  0.00    +0.000 A 
ATOM     23  C   UNL     1       9.884  11.269  18.270  0.00  0.00    +0.000 A 
ATOM     24  C   UNL     1       9.452  10.369  19.246  0.00  0.00    +0.000 A 
ATOM     25  C   UNL     1       9.417  10.803  20.579  0.00  0.00    +0.000 A 
ATOM     26  C   UNL     1       9.801  12.107  20.907  0.00  0.00    +0.000 A 
BRANCH  21  28
ATOM     27  C   UNL     1      10.115  14.616  21.665  0.00  0.00    +0.000 C 
ATOM     28  O   UNL     1      10.599  14.238  20.380  0.00  0.00    +0.000 OA
ENDBRANCH  21  28
ENDBRANCH  17  24
ENDBRANCH  16  18
ENDBRANCH   1  16
TORSDOF 5
ENDMDL
MODEL 3
REMARK VINA RESULT:      -8.6      1.307      1.971
REMARK  Name = 
REMARK  6 active torsions:
REMARK  status: ('A' for Active; 'I' for Inactive)
REMARK    1  A    between atoms: C_1  and  O_2
REMARK    2  A    between atoms: O_2  and  C_3
REMARK    3  A    between atoms: C_6  and  N_7
REMARK    4  A    between atoms: C_8  and  C_10
REMARK    5  A    between atoms: C_10  and  O_11
REMARK    6  A    between atoms: O_11  and  C_12
REMARK                            x       y       z     vdW  Elec       q    Type
REMARK                         _______ _______ _______ _____ _____    ______ ____
ROOT
ATOM      1  O   UNL     1       7.257   7.157  17.183  0.00  0.00    +0.000 OA
ENDROOT
BRANCH   1   2
ATOM      2  C   UNL     1       6.093   6.562  17.594  0.00  0.00    +0.000 A 
ATOM      3  C   UNL     1       4.809   6.972  17.225  0.00  0.00    +0.000 A 
ATOM      4  C   UNL     1       3.671   6.338  17.757  0.00  0.00    +0.000 A 
ATOM      5  C   UNL     1       3.844   5.170  18.524  0.00  0.00    +0.000 A 
ATOM      6  C   UNL     1       5.142   4.719  18.751  0.00  0.00    +0.000 A 
ATOM      7  C   UNL     1       6.279   5.461  18.434  0.00  0.00    +0.000 A 
ATOM      8  N   UNL     1       5.027   3.417  19.178  0.00  0.00    +0.000 N 
ATOM      9  C   UNL     1       3.737   3.001  18.945  0.00  0.00    +0.000 A 
ATOM     10  C   UNL     1       3.199   1.754  18.635  0.00  0.00    +0.000 A 
ATOM     11  C   UNL     1       1.806   1.675  18.567  0.00  0.00    +0.000 A 
ATOM     12  C   UNL     1       1.002   2.761  18.925  0.00  0.00    +0.000 A 
ATOM     13  C   UNL     1       1.564   4.023  19.136  0.00  0.00    +0.000 A 
ATOM     14  C   UNL     1       2.957   4.153  18.993  0.00  0.00    +0.000 A 
ATOM     15  H   UNL     1       5.813   2.801  19.324  0.00  0.00    +0.000 HD
ENDBRANCH   1   2
BRANCH   1  16
ATOM     16  C   UNL     1       8.178   7.488  18.215  0.00  0.00    +0.000 C 
BRANCH  16  18
ATOM     17  N   UNL     1       9.291   9.429  19.178  0.00  0.00    +0.000 N 
ATOM     18  C   UNL     1       8.346   9.014  18.238  0.00  0.00    +0.000 C 
ATOM     19  O   UNL     1       7.682   9.729  17.511  0.00  0.00    +0.000 OA
ATOM     20  H   UNL     1       9.767   8.705  19.693  0.00  0.00    +0.000 HD
BRANCH  17  24
ATOM     21  C   UNL     1      10.336  13.415  20.180  0.00  0.00    +0.000 A 
ATOM     22  C   UNL     1      10.534  12.963  18.879  0.00  0.00    +0.000 A 
ATOM     23  C   UNL     1      10.191  11.649  18.529  0.00  0.00    +0.000 A 
ATOM     24  C   UNL     1       9.670  10.759  19.470  0.00  0.00    +0.000 A 
ATOM     25  C   UNL     1       9.483  11.215  20.781  0.00  0.00    +0.000 A 
ATOM     26  C   UNL     1       9.807  12.532  21.124  0.00  0.00    +0.000 A 
BRANCH  21  28
ATOM     27  C   UNL     1      11.695  15.359  20.015  0.00  0.00    +0.000 C 
ATOM     28  O   UNL     1      10.621  14.668  20.646  0.00  0.00    +0.000 OA
ENDBRANCH  21  28
ENDBRANCH  17  24
ENDBRANCH  16  18
ENDBRANCH   1  16
TORSDOF 5
ENDMDL
MODEL 4
REMARK VINA RESULT:      -8.4      1.067      1.141
REMARK  Name = 
REMARK  6 active torsions:
REMARK  status: ('A' for Active; 'I' for Inactive)
REMARK    1  A    between atoms: C_1  and  O_2
REMARK    2  A    between atoms: O_2  and  C_3
REMARK    3  A    between atoms: C_6  and  N_7
REMARK    4  A    between atoms: C_8  and  C_10
REMARK    5  A    between atoms: C_10  and  O_11
REMARK    6  A    between atoms: O_11  and  C_12
REMARK                            x       y       z     vdW  Elec       q    Type
REMARK                         _______ _______ _______ _____ _____    ______ ____
ROOT
ATOM      1  O   UNL     1       7.603   5.927  17.636  0.00  0.00    +0.000 OA
ENDROOT
BRANCH   1   2
ATOM      2  C   UNL     1       6.341   5.399  17.733  0.00  0.00    +0.000 A 
ATOM      3  C   UNL     1       5.871   4.306  17.002  0.00  0.00    +0.000 A 
ATOM      4  C   UNL     1       4.535   3.881  17.122  0.00  0.00    +0.000 A 
ATOM      5  C   UNL     1       3.729   4.459  18.120  0.00  0.00    +0.000 A 
ATOM      6  C   UNL     1       4.286   5.455  18.920  0.00  0.00    +0.000 A 
ATOM      7  C   UNL     1       5.521   6.046  18.661  0.00  0.00    +0.000 A 
ATOM      8  N   UNL     1       3.459   5.577  20.012  0.00  0.00    +0.000 N 
ATOM      9  C   UNL     1       2.597   4.506  20.020  0.00  0.00    +0.000 A 
ATOM     10  C   UNL     1       1.985   3.806  21.059  0.00  0.00    +0.000 A 
ATOM     11  C   UNL     1       1.069   2.818  20.690  0.00  0.00    +0.000 A 
ATOM     12  C   UNL     1       0.694   2.641  19.356  0.00  0.00    +0.000 A 
ATOM     13  C   UNL     1       1.391   3.286  18.329  0.00  0.00    +0.000 A 
ATOM     14  C   UNL     1       2.462   4.122  18.689  0.00  0.00    +0.000 A 
ATOM     15  H   UNL     1       3.666   6.155  20.813  0.00  0.00    +0.000 HD
ENDBRANCH   1   2
BRANCH   1  16
ATOM     16  C   UNL     1       7.992   6.794  18.694  0.00  0.00    +0.000 C 
BRANCH  16  18
ATOM     17  N   UNL     1       8.883   9.037  19.020  0.00  0.00    +0.000 N 
ATOM     18  C   UNL     1       8.279   8.180  18.099  0.00  0.00    +0.000 C 
ATOM     19  O   UNL     1       7.967   8.448  16.953  0.00  0.00    +0.000 OA
ATOM     20  H   UNL     1       9.090   8.654  19.929  0.00  0.00    +0.000 HD
BRANCH  17  24
ATOM     21  C   UNL     1       9.921  13.076  18.250  0.00  0.00    +0.000 A 
ATOM     22  C   UNL     1      10.737  12.306  19.073  0.00  0.00    +0.000 A 
ATOM     23  C   UNL     1      10.412  10.968  19.336  0.00  0.00    +0.000 A 
ATOM     24  C   UNL     1       9.260  10.383  18.806  0.00  0.00    +0.000 A 
ATOM     25  C   UNL     1       8.435  11.166  17.987  0.00  0.00    +0.000 A 
ATOM     26  C   UNL     1       8.772  12.495  17.709  0.00  0.00    +0.000 A 
BRANCH  21  28
ATOM     27  C   UNL     1       9.293  15.351  18.540  0.00  0.00    +0.000 C 
ATOM     28  O   UNL     1      10.129  14.385  17.912  0.00  0.00    +0.000 OA
ENDBRANCH  21  28
ENDBRANCH  17  24
ENDBRANCH  16  18
ENDBRANCH   1  16
TORSDOF 5
ENDMDL
MODEL 5
REMARK VINA RESULT:      -8.4      1.036      1.104
REMARK  Name = 
REMARK  6 active torsions:
REMARK  status: ('A' for Active; 'I' for Inactive)
REMARK    1  A    between atoms: C_1  and  O_2
REMARK    2  A    between atoms: O_2  and  C_3
REMARK    3  A    between atoms: C_6  and  N_7
REMARK    4  A    between atoms: C_8  and  C_10
REMARK    5  A    between atoms: C_10  and  O_11
REMARK    6  A    between atoms: O_11  and  C_12
REMARK                            x       y       z     vdW  Elec       q    Type
REMARK                         _______ _______ _______ _____ _____    ______ ____
ROOT
ATOM      1  O   UNL     1       6.095   7.472  16.687  0.00  0.00    +0.000 OA
ENDROOT
BRANCH   1   2
ATOM      2  C   UNL     1       5.130   6.543  16.983  0.00  0.00    +0.000 A 
ATOM      3  C   UNL     1       5.151   5.207  16.577  0.00  0.00    +0.000 A 
ATOM      4  C   UNL     1       4.077   4.347  16.873  0.00  0.00    +0.000 A 
ATOM      5  C   UNL     1       3.064   4.805  17.737  0.00  0.00    +0.000 A 
ATOM      6  C   UNL     1       3.157   6.105  18.229  0.00  0.00    +0.000 A 
ATOM      7  C   UNL     1       4.081   7.038  17.762  0.00  0.00    +0.000 A 
ATOM      8  N   UNL     1       2.295   6.173  19.299  0.00  0.00    +0.000 N 
ATOM      9  C   UNL     1       1.912   4.892  19.624  0.00  0.00    +0.000 A 
ATOM     10  C   UNL     1       1.568   4.299  20.837  0.00  0.00    +0.000 A 
ATOM     11  C   UNL     1       1.121   2.977  20.779  0.00  0.00    +0.000 A 
ATOM     12  C   UNL     1       0.906   2.339  19.555  0.00  0.00    +0.000 A 
ATOM     13  C   UNL     1       1.350   2.919  18.363  0.00  0.00    +0.000 A 
ATOM     14  C   UNL     1       1.998   4.163  18.441  0.00  0.00    +0.000 A 
ATOM     15  H   UNL     1       2.226   6.968  19.916  0.00  0.00    +0.000 HD
ENDBRANCH   1   2
BRANCH   1  16
ATOM     16  C   UNL     1       7.439   7.036  16.848  0.00  0.00    +0.000 C 
BRANCH  16  18
ATOM     17  N   UNL     1       8.176   9.233  17.596  0.00  0.00    +0.000 N 
ATOM     18  C   UNL     1       8.090   7.885  17.948  0.00  0.00    +0.000 C 
ATOM     19  O   UNL     1       8.490   7.377  18.979  0.00  0.00    +0.000 OA
ATOM     20  H   UNL     1       7.782   9.497  16.707  0.00  0.00    +0.000 HD
BRANCH  17  24
ATOM     21  C   UNL     1       9.878  12.449  19.776  0.00  0.00    +0.000 A 
ATOM     22  C   UNL     1       9.834  11.182  20.349  0.00  0.00    +0.000 A 
ATOM     23  C   UNL     1       9.279  10.106  19.642  0.00  0.00    +0.000 A 
ATOM     24  C   UNL     1       8.737  10.278  18.367  0.00  0.00    +0.000 A 
ATOM     25  C   UNL     1       8.773  11.558  17.797  0.00  0.00    +0.000 A 
ATOM     26  C   UNL     1       9.346  12.626  18.496  0.00  0.00    +0.000 A 
BRANCH  21  28
ATOM     27  C   UNL     1       9.729  14.066  21.513  0.00  0.00    +0.000 C 
ATOM     28  O   UNL     1      10.396  13.574  20.354  0.00  0.00    +0.000 OA
ENDBRANCH  21  28
ENDBRANCH  17  24
ENDBRANCH  16  18
ENDBRANCH   1  16
TORSDOF 5
ENDMDL
MODEL 6
REMARK VINA RESULT:      -8.4      1.206      1.542
REMARK  Name = 
REMARK  6 active torsions:
REMARK  status: ('A' for Active; 'I' for Inactive)
REMARK    1  A    between atoms: C_1  and  O_2
REMARK    2  A    between atoms: O_2  and  C_3
REMARK    3  A    between atoms: C_6  and  N_7
REMARK    4  A    between atoms: C_8  and  C_10
REMARK    5  A    between atoms: C_10  and  O_11
REMARK    6  A    between atoms: O_11  and  C_12
REMARK                            x       y       z     vdW  Elec       q    Type
REMARK                         _______ _______ _______ _____ _____    ______ ____
ROOT
ATOM      1  O   UNL     1       6.039   7.099  16.435  0.00  0.00    +0.000 OA
ENDROOT
BRANCH   1   2
ATOM      2  C   UNL     1       5.052   6.225  16.813  0.00  0.00    +0.000 A 
ATOM      3  C   UNL     1       4.984   4.881  16.440  0.00  0.00    +0.000 A 
ATOM      4  C   UNL     1       3.891   4.081  16.823  0.00  0.00    +0.000 A 
ATOM      5  C   UNL     1       2.957   4.606  17.736  0.00  0.00    +0.000 A 
ATOM      6  C   UNL     1       3.142   5.911  18.189  0.00  0.00    +0.000 A 
ATOM      7  C   UNL     1       4.078   6.788  17.642  0.00  0.00    +0.000 A 
ATOM      8  N   UNL     1       2.354   6.044  19.308  0.00  0.00    +0.000 N 
ATOM      9  C   UNL     1       1.931   4.791  19.687  0.00  0.00    +0.000 A 
ATOM     10  C   UNL     1       1.636   4.242  20.933  0.00  0.00    +0.000 A 
ATOM     11  C   UNL     1       1.124   2.942  20.937  0.00  0.00    +0.000 A 
ATOM     12  C   UNL     1       0.803   2.289  19.744  0.00  0.00    +0.000 A 
ATOM     13  C   UNL     1       1.198   2.820  18.512  0.00  0.00    +0.000 A 
ATOM     14  C   UNL     1       1.909   4.033  18.520  0.00  0.00    +0.000 A 
ATOM     15  H   UNL     1       2.361   6.855  19.908  0.00  0.00    +0.000 HD
ENDBRANCH   1   2
BRANCH   1  16
ATOM     16  C   UNL     1       7.370   6.679  16.706  0.00  0.00    +0.000 C 
BRANCH  16  18
ATOM     17  N   UNL     1       8.045   8.926  17.360  0.00  0.00    +0.000 N 
ATOM     18  C   UNL     1       7.954   7.600  17.786  0.00  0.00    +0.000 C 
ATOM     19  O   UNL     1       8.303   7.158  18.865  0.00  0.00    +0.000 OA
ATOM     20  H   UNL     1       7.696   9.131  16.437  0.00  0.00    +0.000 HD
BRANCH  17  24
ATOM     21  C   UNL     1       9.563  12.122  19.697  0.00  0.00    +0.000 A 
ATOM     22  C   UNL     1       9.002  12.392  18.453  0.00  0.00    +0.000 A 
ATOM     23  C   UNL     1       8.492  11.348  17.668  0.00  0.00    +0.000 A 
ATOM     24  C   UNL     1       8.553  10.021  18.096  0.00  0.00    +0.000 A 
ATOM     25  C   UNL     1       9.129   9.752  19.344  0.00  0.00    +0.000 A 
ATOM     26  C   UNL     1       9.620  10.797  20.135  0.00  0.00    +0.000 A 
BRANCH  21  28
ATOM     27  C   UNL     1       9.349  13.306  21.749  0.00  0.00    +0.000 C 
ATOM     28  O   UNL     1      10.087  13.045  20.559  0.00  0.00    +0.000 OA
ENDBRANCH  21  28
ENDBRANCH  17  24
ENDBRANCH  16  18
ENDBRANCH   1  16
TORSDOF 5
ENDMDL
MODEL 7
REMARK VINA RESULT:      -8.3      1.342      1.742
REMARK  Name = 
REMARK  6 active torsions:
REMARK  status: ('A' for Active; 'I' for Inactive)
REMARK    1  A    between atoms: C_1  and  O_2
REMARK    2  A    between atoms: O_2  and  C_3
REMARK    3  A    between atoms: C_6  and  N_7
REMARK    4  A    between atoms: C_8  and  C_10
REMARK    5  A    between atoms: C_10  and  O_11
REMARK    6  A    between atoms: O_11  and  C_12
REMARK                            x       y       z     vdW  Elec       q    Type
REMARK                         _______ _______ _______ _____ _____    ______ ____
ROOT
ATOM      1  O   UNL     1       7.575   6.848  17.493  0.00  0.00    +0.000 OA
ENDROOT
BRANCH   1   2
ATOM      2  C   UNL     1       6.348   6.327  17.811  0.00  0.00    +0.000 A 
ATOM      3  C   UNL     1       5.127   6.788  17.312  0.00  0.00    +0.000 A 
ATOM      4  C   UNL     1       3.913   6.231  17.754  0.00  0.00    +0.000 A 
ATOM      5  C   UNL     1       3.952   5.084  18.570  0.00  0.00    +0.000 A 
ATOM      6  C   UNL     1       5.198   4.577  18.931  0.00  0.00    +0.000 A 
ATOM      7  C   UNL     1       6.397   5.249  18.698  0.00  0.00    +0.000 A 
ATOM      8  N   UNL     1       4.975   3.298  19.385  0.00  0.00    +0.000 N 
ATOM      9  C   UNL     1       3.691   2.940  19.045  0.00  0.00    +0.000 A 
ATOM     10  C   UNL     1       3.118   1.711  18.725  0.00  0.00    +0.000 A 
ATOM     11  C   UNL     1       1.735   1.700  18.530  0.00  0.00    +0.000 A 
ATOM     12  C   UNL     1       0.961   2.837  18.777  0.00  0.00    +0.000 A 
ATOM     13  C   UNL     1       1.568   4.076  19.001  0.00  0.00    +0.000 A 
ATOM     14  C   UNL     1       2.973   4.130  18.985  0.00  0.00    +0.000 A 
ATOM     15  H   UNL     1       5.710   2.649  19.622  0.00  0.00    +0.000 HD
ENDBRANCH   1   2
BRANCH   1  16
ATOM     16  C   UNL     1       8.311   7.400  18.578  0.00  0.00    +0.000 C 
BRANCH  16  18
ATOM     17  N   UNL     1       9.299   9.521  19.253  0.00  0.00    +0.000 N 
ATOM     18  C   UNL     1       8.391   8.920  18.380  0.00  0.00    +0.000 C 
ATOM     19  O   UNL     1       7.696   9.483  17.554  0.00  0.00    +0.000 OA
ATOM     20  H   UNL     1       9.810   8.909  19.869  0.00  0.00    +0.000 HD
BRANCH  17  24
ATOM     21  C   UNL     1      10.217  13.659  19.387  0.00  0.00    +0.000 A 
ATOM     22  C   UNL     1      10.303  12.902  20.552  0.00  0.00    +0.000 A 
ATOM     23  C   UNL     1      10.007  11.532  20.526  0.00  0.00    +0.000 A 
ATOM     24  C   UNL     1       9.598  10.900  19.350  0.00  0.00    +0.000 A 
ATOM     25  C   UNL     1       9.501  11.668  18.182  0.00  0.00    +0.000 A 
ATOM     26  C   UNL     1       9.817  13.031  18.206  0.00  0.00    +0.000 A 
BRANCH  21  28
ATOM     27  C   UNL     1       9.464  15.809  18.706  0.00  0.00    +0.000 C 
ATOM     28  O   UNL     1      10.484  14.996  19.278  0.00  0.00    +0.000 OA
ENDBRANCH  21  28
ENDBRANCH  17  24
ENDBRANCH  16  18
ENDBRANCH   1  16
TORSDOF 5
ENDMDL
MODEL 8
REMARK VINA RESULT:      -8.3      5.219      7.192
REMARK  Name = 
REMARK  6 active torsions:
REMARK  status: ('A' for Active; 'I' for Inactive)
REMARK    1  A    between atoms: C_1  and  O_2
REMARK    2  A    between atoms: O_2  and  C_3
REMARK    3  A    between atoms: C_6  and  N_7
REMARK    4  A    between atoms: C_8  and  C_10
REMARK    5  A    between atoms: C_10  and  O_11
REMARK    6  A    between atoms: O_11  and  C_12
REMARK                            x       y       z     vdW  Elec       q    Type
REMARK                         _______ _______ _______ _____ _____    ______ ____
ROOT
ATOM      1  O   UNL     1       2.230   2.528  20.685  0.00  0.00    +0.000 OA
ENDROOT
BRANCH   1   2
ATOM      2  C   UNL     1       2.927   2.747  19.524  0.00  0.00    +0.000 A 
ATOM      3  C   UNL     1       2.368   2.758  18.243  0.00  0.00    +0.000 A 
ATOM      4  C   UNL     1       3.180   2.924  17.106  0.00  0.00    +0.000 A 
ATOM      5  C   UNL     1       4.536   3.257  17.285  0.00  0.00    +0.000 A 
ATOM      6  C   UNL     1       5.018   3.371  18.588  0.00  0.00    +0.000 A 
ATOM      7  C   UNL     1       4.291   2.982  19.712  0.00  0.00    +0.000 A 
ATOM      8  N   UNL     1       6.212   4.048  18.498  0.00  0.00    +0.000 N 
ATOM      9  C   UNL     1       6.311   4.576  17.231  0.00  0.00    +0.000 A 
ATOM     10  C   UNL     1       6.921   5.731  16.746  0.00  0.00    +0.000 A 
ATOM     11  C   UNL     1       6.914   5.904  15.360  0.00  0.00    +0.000 A 
ATOM     12  C   UNL     1       6.438   4.904  14.508  0.00  0.00    +0.000 A 
ATOM     13  C   UNL     1       5.745   3.803  15.021  0.00  0.00    +0.000 A 
ATOM     14  C   UNL     1       5.562   3.735  16.414  0.00  0.00    +0.000 A 
ATOM     15  H   UNL     1       6.741   4.364  19.296  0.00  0.00    +0.000 HD
ENDBRANCH   1   2
BRANCH   1  16
ATOM     16  C   UNL     1       2.135   3.640  21.566  0.00  0.00    +0.000 C 
BRANCH  16  18
ATOM     17  N   UNL     1       2.298   5.928  20.745  0.00  0.00    +0.000 N 
ATOM     18  C   UNL     1       1.477   4.800  20.805  0.00  0.00    +0.000 C 
ATOM     19  O   UNL     1       0.352   4.695  20.351  0.00  0.00    +0.000 OA
ATOM     20  H   UNL     1       3.212   5.846  21.159  0.00  0.00    +0.000 HD
BRANCH  17  24
ATOM     21  C   UNL     1       1.272   9.674  19.042  0.00  0.00    +0.000 A 
ATOM     22  C   UNL     1       1.945   8.733  18.269  0.00  0.00    +0.000 A 
ATOM     23  C   UNL     1       2.289   7.488  18.813  0.00  0.00    +0.000 A 
ATOM     24  C   UNL     1       1.992   7.168  20.140  0.00  0.00    +0.000 A 
ATOM     25  C   UNL     1       1.325   8.123  20.919  0.00  0.00    +0.000 A 
ATOM     26  C   UNL     1       0.964   9.357  20.367  0.00  0.00    +0.000 A 
BRANCH  21  28
ATOM     27  C   UNL     1       0.622  11.879  19.648  0.00  0.00    +0.000 C 
ATOM     28  O   UNL     1       0.876  10.916  18.630  0.00  0.00    +0.000 OA
ENDBRANCH  21  28
ENDBRANCH  17  24
ENDBRANCH  16  18
ENDBRANCH   1  16
TORSDOF 5
ENDMDL
MODEL 9
REMARK VINA RESULT:      -8.3      2.134     10.564
REMARK  Name = 
REMARK  6 active torsions:
REMARK  status: ('A' for Active; 'I' for Inactive)
REMARK    1  A    between atoms: C_1  and  O_2
REMARK    2  A    between atoms: O_2  and  C_3
REMARK    3  A    between atoms: C_6  and  N_7
REMARK    4  A    between atoms: C_8  and  C_10
REMARK    5  A    between atoms: C_10  and  O_11
REMARK    6  A    between atoms: O_11  and  C_12
REMARK                            x       y       z     vdW  Elec       q    Type
REMARK                         _______ _______ _______ _____ _____    ______ ____
ROOT
ATOM      1  O   UNL     1       8.933   9.043  18.846  0.00  0.00    +0.000 OA
ENDROOT
BRANCH   1   2
ATOM      2  C   UNL     1       9.273  10.344  19.111  0.00  0.00    +0.000 A 
ATOM      3  C   UNL     1       9.782  10.809  20.326  0.00  0.00    +0.000 A 
ATOM      4  C   UNL     1      10.035  12.179  20.523  0.00  0.00    +0.000 A 
ATOM      5  C   UNL     1       9.939  13.050  19.421  0.00  0.00    +0.000 A 
ATOM      6  C   UNL     1       9.560  12.515  18.192  0.00  0.00    +0.000 A 
ATOM      7  C   UNL     1       9.081  11.215  18.035  0.00  0.00    +0.000 A 
ATOM      8  N   UNL     1       9.898  13.453  17.244  0.00  0.00    +0.000 N 
ATOM      9  C   UNL     1      10.709  14.391  17.839  0.00  0.00    +0.000 A 
ATOM     10  C   UNL     1      11.751  15.173  17.345  0.00  0.00    +0.000 A 
ATOM     11  C   UNL     1      12.295  16.114  18.223  0.00  0.00    +0.000 A 
ATOM     12  C   UNL     1      11.728  16.342  19.480  0.00  0.00    +0.000 A 
ATOM     13  C   UNL     1      10.750  15.480  19.987  0.00  0.00    +0.000 A 
ATOM     14  C   UNL     1      10.352  14.397  19.184  0.00  0.00    +0.000 A 
ATOM     15  H   UNL     1       9.832  13.298  16.250  0.00  0.00    +0.000 HD
ENDBRANCH   1   2
BRANCH   1  16
ATOM     16  C   UNL     1       8.126   8.839  17.692  0.00  0.00    +0.000 C 
BRANCH  16  18
ATOM     17  N   UNL     1       6.277   7.383  17.067  0.00  0.00    +0.000 N 
ATOM     18  C   UNL     1       7.454   7.464  17.814  0.00  0.00    +0.000 C 
ATOM     19  O   UNL     1       7.928   6.593  18.519  0.00  0.00    +0.000 OA
ATOM     20  H   UNL     1       6.028   8.193  16.522  0.00  0.00    +0.000 HD
BRANCH  17  24
ATOM     21  C   UNL     1       3.599   4.097  16.926  0.00  0.00    +0.000 A 
ATOM     22  C   UNL     1       4.761   4.065  16.161  0.00  0.00    +0.000 A 
ATOM     23  C   UNL     1       5.660   5.140  16.198  0.00  0.00    +0.000 A 
ATOM     24  C   UNL     1       5.406   6.273  16.974  0.00  0.00    +0.000 A 
ATOM     25  C   UNL     1       4.229   6.306  17.734  0.00  0.00    +0.000 A 
ATOM     26  C   UNL     1       3.343   5.223  17.712  0.00  0.00    +0.000 A 
BRANCH  21  28
ATOM     27  C   UNL     1       2.720   2.217  18.086  0.00  0.00    +0.000 C 
ATOM     28  O   UNL     1       2.649   3.116  16.983  0.00  0.00    +0.000 OA
ENDBRANCH  21  28
ENDBRANCH  17  24
ENDBRANCH  16  18
ENDBRANCH   1  16
TORSDOF 5
ENDMDL
