MODEL 1
REMARK VINA RESULT:      -8.5      0.000      0.000
REMARK  Name = 
REMARK  7 active torsions:
REMARK  status: ('A' for Active; 'I' for Inactive)
REMARK    1  A    between atoms: C_1  and  C_2
REMARK    2  A    between atoms: C_4  and  N_5
REMARK    3  A    between atoms: C_6  and  C_8
REMARK    4  A    between atoms: C_8  and  S_9
REMARK    5  A    between atoms: S_9  and  C_10
REMARK    6  A    between atoms: N_14  and  C_15
REMARK    7  A    between atoms: N_21  and  C_22
REMARK                            x       y       z     vdW  Elec       q    Type
REMARK                         _______ _______ _______ _____ _____    ______ ____
ROOT
ATOM      1  N   UNL     1       4.302   5.593  17.329  0.00  0.00    +0.000 N 
ATOM      2  C   UNL     1       5.508   5.286  18.038  0.00  0.00    +0.000 C 
ATOM      3  O   UNL     1       5.740   5.810  19.117  0.00  0.00    +0.000 OA
ATOM      4  H   UNL     1       4.087   5.134  16.446  0.00  0.00    +0.000 HD
ENDROOT
BRANCH   1   8
ATOM      5  C   UNL     1       1.775   9.719  18.407  0.00  0.00    +0.000 C 
ATOM      6  C   UNL     1       2.287   8.328  18.358  0.00  0.00    +0.000 A 
ATOM      7  C   UNL     1       3.247   7.795  17.475  0.00  0.00    +0.000 A 
ATOM      8  C   UNL     1       3.366   6.477  17.837  0.00  0.00    +0.000 A 
ATOM      9  N   UNL     1       2.468   6.258  18.872  0.00  0.00    +0.000 N 
ATOM     10  N   UNL     1       1.853   7.415  19.237  0.00  0.00    +0.000 NA
BRANCH   9  11
ATOM     11  C   UNL     1       2.119   5.017  19.476  0.00  0.00    +0.000 A 
ATOM     12  C   UNL     1       2.417   4.800  20.827  0.00  0.00    +0.000 A 
ATOM     13  C   UNL     1       2.091   3.586  21.434  0.00  0.00    +0.000 A 
ATOM     14  C   UNL     1       1.442   2.590  20.709  0.00  0.00    +0.000 A 
ATOM     15  C   UNL     1       1.114   2.806  19.371  0.00  0.00    +0.000 A 
ATOM     16  C   UNL     1       1.451   4.017  18.756  0.00  0.00    +0.000 A 
ENDBRANCH   9  11
ENDBRANCH   1   8
BRANCH   2  17
ATOM     17  C   UNL     1       6.454   4.358  17.317  0.00  0.00    +0.000 C 
BRANCH  17  18
ATOM     18  S   UNL     1       5.759   3.791  15.756  0.00  0.00    +0.000 S 
BRANCH  18  19
ATOM     19  C   UNL     1       6.756   4.605  14.591  0.00  0.00    +0.000 A 
ATOM     20  N   UNL     1       7.707   5.448  14.921  0.00  0.00    +0.000 NA
ATOM     21  N   UNL     1       8.368   5.806  13.779  0.00  0.00    +0.000 NA
ATOM     22  C   UNL     1       7.827   5.138  12.785  0.00  0.00    +0.000 A 
ATOM     23  N   UNL     1       6.786   4.350  13.228  0.00  0.00    +0.000 N 
BRANCH  23  24
ATOM     24  C   UNL     1       6.017   3.452  12.438  0.00  0.00    +0.000 A 
ATOM     25  C   UNL     1       4.705   3.794  12.088  0.00  0.00    +0.000 A 
ATOM     26  C   UNL     1       3.989   2.989  11.197  0.00  0.00    +0.000 A 
ATOM     27  C   UNL     1       4.565   1.834  10.675  0.00  0.00    +0.000 A 
ATOM     28  C   UNL     1       5.844   1.454  11.071  0.00  0.00    +0.000 A 
ATOM     29  C   UNL     1       6.564   2.255  11.959  0.00  0.00    +0.000 A 
ENDBRANCH  23  24
ENDBRANCH  18  19
ENDBRANCH  17  18
ENDBRANCH   2  17
TORSDOF 6
ENDMDL
MODEL 2
REMARK VINA RESULT:      -8.2      2.193      7.738
REMARK  Name = 
REMARK  7 active torsions:
REMARK  status: ('A' for Active; 'I' for Inactive)
REMARK    1  A    between atoms: C_1  and  C_2
REMARK    2  A    between atoms: C_4  and  N_5
REMARK    3  A    between atoms: C_6  and  C_8
REMARK    4  A    between atoms: C_8  and  S_9
REMARK    5  A    between atoms: S_9  and  C_10
REMARK    6  A    between atoms: N_14  and  C_15
REMARK    7  A    between atoms: N_21  and  C_22
REMARK                            x       y       z     vdW  Elec       q    Type
REMARK                         _______ _______ _______ _____ _____    ______ ____
ROOT
ATOM      1  N   UNL     1       4.804   3.866  16.900  0.00  0.00    +0.000 N 
ATOM      2  C   UNL     1       4.435   3.097  18.050  0.00  0.00    +0.000 C 
ATOM      3  O   UNL     1       5.057   3.213  19.095  0.00  0.00    +0.000 OA
ATOM      4  H   UNL     1       4.269   3.800  16.036  0.00  0.00    +0.000 HD
ENDROOT
BRANCH   1   8
ATOM      5  C   UNL     1       8.060   7.305  18.363  0.00  0.00    +0.000 C 
ATOM      6  C   UNL     1       7.266   6.334  17.574  0.00  0.00    +0.000 A 
ATOM      7  C   UNL     1       6.295   5.430  18.049  0.00  0.00    +0.000 A 
ATOM      8  C   UNL     1       5.861   4.759  16.933  0.00  0.00    +0.000 A 
ATOM      9  N   UNL     1       6.595   5.244  15.858  0.00  0.00    +0.000 N 
ATOM     10  N   UNL     1       7.410   6.261  16.245  0.00  0.00    +0.000 NA
BRANCH   9  11
ATOM     11  C   UNL     1       6.610   4.754  14.522  0.00  0.00    +0.000 A 
ATOM     12  C   UNL     1       5.583   3.909  14.085  0.00  0.00    +0.000 A 
ATOM     13  C   UNL     1       5.585   3.412  12.781  0.00  0.00    +0.000 A 
ATOM     14  C   UNL     1       6.596   3.773  11.894  0.00  0.00    +0.000 A 
ATOM     15  C   UNL     1       7.608   4.637  12.308  0.00  0.00    +0.000 A 
ATOM     16  C   UNL     1       7.615   5.127  13.619  0.00  0.00    +0.000 A 
ENDBRANCH   9  11
ENDBRANCH   1   8
BRANCH   2  17
ATOM     17  C   UNL     1       3.306   2.120  17.830  0.00  0.00    +0.000 C 
BRANCH  17  18
ATOM     18  S   UNL     1       1.713   2.852  18.234  0.00  0.00    +0.000 S 
BRANCH  18  19
ATOM     19  C   UNL     1       1.881   3.190  19.929  0.00  0.00    +0.000 A 
ATOM     20  N   UNL     1       2.054   2.256  20.835  0.00  0.00    +0.000 NA
ATOM     21  N   UNL     1       2.271   2.870  22.037  0.00  0.00    +0.000 NA
ATOM     22  C   UNL     1       2.264   4.166  21.824  0.00  0.00    +0.000 A 
ATOM     23  N   UNL     1       2.017   4.447  20.497  0.00  0.00    +0.000 N 
BRANCH  23  24
ATOM     24  C   UNL     1       1.999   5.739  19.902  0.00  0.00    +0.000 A 
ATOM     25  C   UNL     1       1.501   6.825  20.632  0.00  0.00    +0.000 A 
ATOM     26  C   UNL     1       1.608   8.120  20.115  0.00  0.00    +0.000 A 
ATOM     27  C   UNL     1       2.184   8.332  18.865  0.00  0.00    +0.000 A 
ATOM     28  C   UNL     1       2.620   7.250  18.107  0.00  0.00    +0.000 A 
ATOM     29  C   UNL     1       2.517   5.955  18.619  0.00  0.00    +0.000 A 
ENDBRANCH  23  24
ENDBRANCH  18  19
ENDBRANCH  17  18
ENDBRANCH   2  17
TORSDOF 6
ENDMDL
MODEL 3
REMARK VINA RESULT:      -8.1      3.882      9.230
REMARK  Name = 
REMARK  7 active torsions:
REMARK  status: ('A' for Active; 'I' for Inactive)
REMARK    1  A    between atoms: C_1  and  C_2
REMARK    2  A    between atoms: C_4  and  N_5
REMARK    3  A    between atoms: C_6  and  C_8
REMARK    4  A    between atoms: C_8  and  S_9
REMARK    5  A    between atoms: S_9  and  C_10
REMARK    6  A    between atoms: N_14  and  C_15
REMARK    7  A    between atoms: N_21  and  C_22
REMARK                            x       y       z     vdW  Elec       q    Type
REMARK                         _______ _______ _______ _____ _____    ______ ____
ROOT
ATOM      1  N   UNL     1       2.470   6.395  18.123  0.00  0.00    +0.000 N 
ATOM      2  C   UNL     1       2.283   7.677  18.733  0.00  0.00    +0.000 C 
ATOM      3  O   UNL     1       2.218   7.777  19.949  0.00  0.00    +0.000 OA
ATOM      4  H   UNL     1       2.559   6.308  17.112  0.00  0.00    +0.000 HD
ENDROOT
BRANCH   1   8
ATOM      5  C   UNL     1       1.621   2.749  21.372  0.00  0.00    +0.000 C 
ATOM      6  C   UNL     1       2.229   3.658  20.370  0.00  0.00    +0.000 A 
ATOM      7  C   UNL     1       1.609   4.724  19.689  0.00  0.00    +0.000 A 
ATOM      8  C   UNL     1       2.588   5.241  18.878  0.00  0.00    +0.000 A 
ATOM      9  N   UNL     1       3.722   4.464  19.067  0.00  0.00    +0.000 N 
ATOM     10  N   UNL     1       3.519   3.532  20.036  0.00  0.00    +0.000 NA
BRANCH   9  11
ATOM     11  C   UNL     1       4.945   4.515  18.338  0.00  0.00    +0.000 A 
ATOM     12  C   UNL     1       4.984   4.039  17.022  0.00  0.00    +0.000 A 
ATOM     13  C   UNL     1       6.175   4.073  16.295  0.00  0.00    +0.000 A 
ATOM     14  C   UNL     1       7.329   4.606  16.864  0.00  0.00    +0.000 A 
ATOM     15  C   UNL     1       7.295   5.109  18.163  0.00  0.00    +0.000 A 
ATOM     16  C   UNL     1       6.106   5.065  18.899  0.00  0.00    +0.000 A 
ENDBRANCH   9  11
ENDBRANCH   1   8
BRANCH   2  17
ATOM     17  C   UNL     1       2.104   8.823  17.769  0.00  0.00    +0.000 C 
BRANCH  17  18
ATOM     18  S   UNL     1       0.687   9.841  18.213  0.00  0.00    +0.000 S 
BRANCH  18  19
ATOM     19  C   UNL     1       1.444  11.256  18.879  0.00  0.00    +0.000 A 
ATOM     20  N   UNL     1       2.266  12.021  18.198  0.00  0.00    +0.000 NA
ATOM     21  N   UNL     1       2.576  13.102  18.974  0.00  0.00    +0.000 NA
ATOM     22  C   UNL     1       1.903  12.987  20.097  0.00  0.00    +0.000 A 
ATOM     23  N   UNL     1       1.157  11.828  20.109  0.00  0.00    +0.000 N 
BRANCH  23  24
ATOM     24  C   UNL     1       0.264  11.415  21.136  0.00  0.00    +0.000 A 
ATOM     25  C   UNL     1       0.497  10.205  21.804  0.00  0.00    +0.000 A 
ATOM     26  C   UNL     1      -0.288   9.858  22.907  0.00  0.00    +0.000 A 
ATOM     27  C   UNL     1      -1.318  10.694  23.329  0.00  0.00    +0.000 A 
ATOM     28  C   UNL     1      -1.596  11.863  22.629  0.00  0.00    +0.000 A 
ATOM     29  C   UNL     1      -0.814  12.217  21.527  0.00  0.00    +0.000 A 
ENDBRANCH  23  24
ENDBRANCH  18  19
ENDBRANCH  17  18
ENDBRANCH   2  17
TORSDOF 6
ENDMDL
MODEL 4
REMARK VINA RESULT:      -8.0      2.126      7.825
REMARK  Name = 
REMARK  7 active torsions:
REMARK  status: ('A' for Active; 'I' for Inactive)
REMARK    1  A    between atoms: C_1  and  C_2
REMARK    2  A    between atoms: C_4  and  N_5
REMARK    3  A    between atoms: C_6  and  C_8
REMARK    4  A    between atoms: C_8  and  S_9
REMARK    5  A    between atoms: S_9  and  C_10
REMARK    6  A    between atoms: N_14  and  C_15
REMARK    7  A    between atoms: N_21  and  C_22
REMARK                            x       y       z     vdW  Elec       q    Type
REMARK                         _______ _______ _______ _____ _____    ______ ____
ROOT
ATOM      1  N   UNL     1       4.356   4.732  16.736  0.00  0.00    +0.000 N 
ATOM      2  C   UNL     1       4.066   3.548  17.488  0.00  0.00    +0.000 C 
ATOM      3  O   UNL     1       4.905   3.073  18.239  0.00  0.00    +0.000 OA
ATOM      4  H   UNL     1       3.651   5.152  16.134  0.00  0.00    +0.000 HD
ENDROOT
BRANCH   1   8
ATOM      5  C   UNL     1       8.128   7.520  18.341  0.00  0.00    +0.000 C 
ATOM      6  C   UNL     1       7.224   6.667  17.532  0.00  0.00    +0.000 A 
ATOM      7  C   UNL     1       6.028   6.047  17.945  0.00  0.00    +0.000 A 
ATOM      8  C   UNL     1       5.578   5.375  16.836  0.00  0.00    +0.000 A 
ATOM      9  N   UNL     1       6.515   5.577  15.832  0.00  0.00    +0.000 N 
ATOM     10  N   UNL     1       7.492   6.429  16.242  0.00  0.00    +0.000 NA
BRANCH   9  11
ATOM     11  C   UNL     1       6.564   4.961  14.549  0.00  0.00    +0.000 A 
ATOM     12  C   UNL     1       7.612   5.273  13.674  0.00  0.00    +0.000 A 
ATOM     13  C   UNL     1       7.673   4.686  12.410  0.00  0.00    +0.000 A 
ATOM     14  C   UNL     1       6.706   3.763  12.017  0.00  0.00    +0.000 A 
ATOM     15  C   UNL     1       5.675   3.423  12.890  0.00  0.00    +0.000 A 
ATOM     16  C   UNL     1       5.604   4.020  14.154  0.00  0.00    +0.000 A 
ENDBRANCH   9  11
ENDBRANCH   1   8
BRANCH   2  17
ATOM     17  C   UNL     1       2.717   2.931  17.213  0.00  0.00    +0.000 C 
BRANCH  17  18
ATOM     18  S   UNL     1       1.383   3.950  17.861  0.00  0.00    +0.000 S 
BRANCH  18  19
ATOM     19  C   UNL     1       1.719   3.958  19.565  0.00  0.00    +0.000 A 
ATOM     20  N   UNL     1       1.942   2.867  20.260  0.00  0.00    +0.000 NA
ATOM     21  N   UNL     1       2.291   3.238  21.528  0.00  0.00    +0.000 NA
ATOM     22  C   UNL     1       2.310   4.551  21.563  0.00  0.00    +0.000 A 
ATOM     23  N   UNL     1       1.951   5.083  20.342  0.00  0.00    +0.000 N 
BRANCH  23  24
ATOM     24  C   UNL     1       1.924   6.464  20.003  0.00  0.00    +0.000 A 
ATOM     25  C   UNL     1       2.474   6.883  18.784  0.00  0.00    +0.000 A 
ATOM     26  C   UNL     1       2.329   8.212  18.376  0.00  0.00    +0.000 A 
ATOM     27  C   UNL     1       1.662   9.128  19.185  0.00  0.00    +0.000 A 
ATOM     28  C   UNL     1       1.171   8.732  20.425  0.00  0.00    +0.000 A 
ATOM     29  C   UNL     1       1.312   7.405  20.839  0.00  0.00    +0.000 A 
ENDBRANCH  23  24
ENDBRANCH  18  19
ENDBRANCH  17  18
ENDBRANCH   2  17
TORSDOF 6
ENDMDL
MODEL 5
REMARK VINA RESULT:      -7.9      3.941      9.003
REMARK  Name = 
REMARK  7 active torsions:
REMARK  status: ('A' for Active; 'I' for Inactive)
REMARK    1  A    between atoms: C_1  and  C_2
REMARK    2  A    between atoms: C_4  and  N_5
REMARK    3  A    between atoms: C_6  and  C_8
REMARK    4  A    between atoms: C_8  and  S_9
REMARK    5  A    between atoms: S_9  and  C_10
REMARK    6  A    between atoms: N_14  and  C_15
REMARK    7  A    between atoms: N_21  and  C_22
REMARK                            x       y       z     vdW  Elec       q    Type
REMARK                         _______ _______ _______ _____ _____    ______ ____
ROOT
ATOM      1  N   UNL     1       2.922   6.826  19.526  0.00  0.00    +0.000 N 
ATOM      2  C   UNL     1       2.335   7.324  18.319  0.00  0.00    +0.000 C 
ATOM      3  O   UNL     1       1.743   6.569  17.563  0.00  0.00    +0.000 OA
ATOM      4  H   UNL     1       3.387   7.456  20.177  0.00  0.00    +0.000 HD
ENDROOT
BRANCH   1   8
ATOM      5  C   UNL     1       1.653   2.583  21.753  0.00  0.00    +0.000 C 
ATOM      6  C   UNL     1       2.308   3.618  20.918  0.00  0.00    +0.000 A 
ATOM      7  C   UNL     1       1.910   4.958  20.740  0.00  0.00    +0.000 A 
ATOM      8  C   UNL     1       2.835   5.490  19.878  0.00  0.00    +0.000 A 
ATOM      9  N   UNL     1       3.713   4.467  19.545  0.00  0.00    +0.000 N 
ATOM     10  N   UNL     1       3.427   3.334  20.239  0.00  0.00    +0.000 NA
BRANCH   9  11
ATOM     11  C   UNL     1       4.749   4.491  18.569  0.00  0.00    +0.000 A 
ATOM     12  C   UNL     1       4.443   4.211  17.232  0.00  0.00    +0.000 A 
ATOM     13  C   UNL     1       5.446   4.221  16.261  0.00  0.00    +0.000 A 
ATOM     14  C   UNL     1       6.757   4.537  16.610  0.00  0.00    +0.000 A 
ATOM     15  C   UNL     1       7.068   4.846  17.933  0.00  0.00    +0.000 A 
ATOM     16  C   UNL     1       6.067   4.824  18.910  0.00  0.00    +0.000 A 
ENDBRANCH   9  11
ENDBRANCH   1   8
BRANCH   2  17
ATOM     17  C   UNL     1       2.577   8.789  18.048  0.00  0.00    +0.000 C 
BRANCH  17  18
ATOM     18  S   UNL     1       1.057   9.743  18.179  0.00  0.00    +0.000 S 
BRANCH  18  19
ATOM     19  C   UNL     1       1.627  11.263  18.796  0.00  0.00    +0.000 A 
ATOM     20  N   UNL     1       2.223  12.165  18.050  0.00  0.00    +0.000 NA
ATOM     21  N   UNL     1       2.428  13.278  18.817  0.00  0.00    +0.000 NA
ATOM     22  C   UNL     1       1.914  13.039  20.003  0.00  0.00    +0.000 A 
ATOM     23  N   UNL     1       1.385  11.767  20.065  0.00  0.00    +0.000 N 
BRANCH  23  24
ATOM     24  C   UNL     1       0.697  11.197  21.171  0.00  0.00    +0.000 A 
ATOM     25  C   UNL     1      -0.369  11.896  21.752  0.00  0.00    +0.000 A 
ATOM     26  C   UNL     1      -1.142  11.287  22.745  0.00  0.00    +0.000 A 
ATOM     27  C   UNL     1      -0.841   9.999  23.179  0.00  0.00    +0.000 A 
ATOM     28  C   UNL     1       0.257   9.326  22.653  0.00  0.00    +0.000 A 
ATOM     29  C   UNL     1       1.032   9.928  21.659  0.00  0.00    +0.000 A 
ENDBRANCH  23  24
ENDBRANCH  18  19
ENDBRANCH  17  18
ENDBRANCH   2  17
TORSDOF 6
ENDMDL
MODEL 6
REMARK VINA RESULT:      -7.9      3.682      9.084
REMARK  Name = 
REMARK  7 active torsions:
REMARK  status: ('A' for Active; 'I' for Inactive)
REMARK    1  A    between atoms: C_1  and  C_2
REMARK    2  A    between atoms: C_4  and  N_5
REMARK    3  A    between atoms: C_6  and  C_8
REMARK    4  A    between atoms: C_8  and  S_9
REMARK    5  A    between atoms: S_9  and  C_10
REMARK    6  A    between atoms: N_14  and  C_15
REMARK    7  A    between atoms: N_21  and  C_22
REMARK                            x       y       z     vdW  Elec       q    Type
REMARK                         _______ _______ _______ _____ _____    ______ ____
ROOT
ATOM      1  N   UNL     1       2.407   6.272  17.971  0.00  0.00    +0.000 N 
ATOM      2  C   UNL     1       2.386   7.531  18.652  0.00  0.00    +0.000 C 
ATOM      3  O   UNL     1       2.478   7.576  19.870  0.00  0.00    +0.000 OA
ATOM      4  H   UNL     1       2.365   6.229  16.955  0.00  0.00    +0.000 HD
ENDROOT
BRANCH   1   8
ATOM      5  C   UNL     1       1.642   2.478  21.069  0.00  0.00    +0.000 C 
ATOM      6  C   UNL     1       2.217   3.425  20.083  0.00  0.00    +0.000 A 
ATOM      7  C   UNL     1       1.589   4.540  19.493  0.00  0.00    +0.000 A 
ATOM      8  C   UNL     1       2.536   5.077  18.658  0.00  0.00    +0.000 A 
ATOM      9  N   UNL     1       3.658   4.265  18.743  0.00  0.00    +0.000 N 
ATOM     10  N   UNL     1       3.484   3.288  19.672  0.00  0.00    +0.000 NA
BRANCH   9  11
ATOM     11  C   UNL     1       4.841   4.327  17.952  0.00  0.00    +0.000 A 
ATOM     12  C   UNL     1       6.043   4.739  18.541  0.00  0.00    +0.000 A 
ATOM     13  C   UNL     1       7.211   4.814  17.781  0.00  0.00    +0.000 A 
ATOM     14  C   UNL     1       7.197   4.456  16.434  0.00  0.00    +0.000 A 
ATOM     15  C   UNL     1       6.012   4.017  15.845  0.00  0.00    +0.000 A 
ATOM     16  C   UNL     1       4.837   3.952  16.602  0.00  0.00    +0.000 A 
ENDBRANCH   9  11
ENDBRANCH   1   8
BRANCH   2  17
ATOM     17  C   UNL     1       2.171   8.733  17.766  0.00  0.00    +0.000 C 
BRANCH  17  18
ATOM     18  S   UNL     1       0.752   9.701  18.304  0.00  0.00    +0.000 S 
BRANCH  18  19
ATOM     19  C   UNL     1       1.492  11.182  18.827  0.00  0.00    +0.000 A 
ATOM     20  N   UNL     1       2.213  11.945  18.037  0.00  0.00    +0.000 NA
ATOM     21  N   UNL     1       2.537  13.080  18.726  0.00  0.00    +0.000 NA
ATOM     22  C   UNL     1       1.970  12.997  19.909  0.00  0.00    +0.000 A 
ATOM     23  N   UNL     1       1.286  11.807  20.047  0.00  0.00    +0.000 N 
BRANCH  23  24
ATOM     24  C   UNL     1       0.507  11.412  21.169  0.00  0.00    +0.000 A 
ATOM     25  C   UNL     1      -0.517  12.252  21.626  0.00  0.00    +0.000 A 
ATOM     26  C   UNL     1      -1.379  11.814  22.635  0.00  0.00    +0.000 A 
ATOM     27  C   UNL     1      -1.209  10.556  23.208  0.00  0.00    +0.000 A 
ATOM     28  C   UNL     1      -0.153   9.745  22.805  0.00  0.00    +0.000 A 
ATOM     29  C   UNL     1       0.711  10.177  21.796  0.00  0.00    +0.000 A 
ENDBRANCH  23  24
ENDBRANCH  18  19
ENDBRANCH  17  18
ENDBRANCH   2  17
TORSDOF 6
ENDMDL
MODEL 7
REMARK VINA RESULT:      -7.9      2.434      7.798
REMARK  Name = 
REMARK  7 active torsions:
REMARK  status: ('A' for Active; 'I' for Inactive)
REMARK    1  A    between atoms: C_1  and  C_2
REMARK    2  A    between atoms: C_4  and  N_5
REMARK    3  A    between atoms: C_6  and  C_8
REMARK    4  A    between atoms: C_8  and  S_9
REMARK    5  A    between atoms: S_9  and  C_10
REMARK    6  A    between atoms: N_14  and  C_15
REMARK    7  A    between atoms: N_21  and  C_22
REMARK                            x       y       z     vdW  Elec       q    Type
REMARK                         _______ _______ _______ _____ _____    ______ ____
ROOT
ATOM      1  N   UNL     1       5.493   3.166  16.200  0.00  0.00    +0.000 N 
ATOM      2  C   UNL     1       4.210   3.551  16.705  0.00  0.00    +0.000 C 
ATOM      3  O   UNL     1       3.672   4.574  16.308  0.00  0.00    +0.000 OA
ATOM      4  H   UNL     1       5.932   2.297  16.501  0.00  0.00    +0.000 HD
ENDROOT
BRANCH   1   8
ATOM      5  C   UNL     1       7.378   4.821  11.925  0.00  0.00    +0.000 C 
ATOM      6  C   UNL     1       7.042   4.617  13.354  0.00  0.00    +0.000 A 
ATOM      7  C   UNL     1       6.087   3.733  13.895  0.00  0.00    +0.000 A 
ATOM      8  C   UNL     1       6.158   3.924  15.252  0.00  0.00    +0.000 A 
ATOM      9  N   UNL     1       7.102   4.919  15.472  0.00  0.00    +0.000 N 
ATOM     10  N   UNL     1       7.693   5.295  14.307  0.00  0.00    +0.000 NA
BRANCH   9  11
ATOM     11  C   UNL     1       7.416   5.566  16.701  0.00  0.00    +0.000 A 
ATOM     12  C   UNL     1       7.457   6.964  16.753  0.00  0.00    +0.000 A 
ATOM     13  C   UNL     1       7.771   7.617  17.946  0.00  0.00    +0.000 A 
ATOM     14  C   UNL     1       8.021   6.882  19.103  0.00  0.00    +0.000 A 
ATOM     15  C   UNL     1       7.955   5.491  19.070  0.00  0.00    +0.000 A 
ATOM     16  C   UNL     1       7.652   4.833  17.872  0.00  0.00    +0.000 A 
ENDBRANCH   9  11
ENDBRANCH   1   8
BRANCH   2  17
ATOM     17  C   UNL     1       3.652   2.654  17.783  0.00  0.00    +0.000 C 
BRANCH  17  18
ATOM     18  S   UNL     1       1.945   3.075  18.171  0.00  0.00    +0.000 S 
BRANCH  18  19
ATOM     19  C   UNL     1       1.998   3.278  19.894  0.00  0.00    +0.000 A 
ATOM     20  N   UNL     1       2.088   2.273  20.736  0.00  0.00    +0.000 NA
ATOM     21  N   UNL     1       2.230   2.788  21.994  0.00  0.00    +0.000 NA
ATOM     22  C   UNL     1       2.263   4.097  21.882  0.00  0.00    +0.000 A 
ATOM     23  N   UNL     1       2.117   4.485  20.567  0.00  0.00    +0.000 N 
BRANCH  23  24
ATOM     24  C   UNL     1       2.167   5.818  20.074  0.00  0.00    +0.000 A 
ATOM     25  C   UNL     1       2.793   6.074  18.847  0.00  0.00    +0.000 A 
ATOM     26  C   UNL     1       2.725   7.352  18.285  0.00  0.00    +0.000 A 
ATOM     27  C   UNL     1       2.061   8.379  18.950  0.00  0.00    +0.000 A 
ATOM     28  C   UNL     1       1.495   8.146  20.200  0.00  0.00    +0.000 A 
ATOM     29  C   UNL     1       1.558   6.871  20.766  0.00  0.00    +0.000 A 
ENDBRANCH  23  24
ENDBRANCH  18  19
ENDBRANCH  17  18
ENDBRANCH   2  17
TORSDOF 6
ENDMDL
MODEL 8
REMARK VINA RESULT:      -7.9      4.505      8.937
REMARK  Name = 
REMARK  7 active torsions:
REMARK  status: ('A' for Active; 'I' for Inactive)
REMARK    1  A    between atoms: C_1  and  C_2
REMARK    2  A    between atoms: C_4  and  N_5
REMARK    3  A    between atoms: C_6  and  C_8
REMARK    4  A    between atoms: C_8  and  S_9
REMARK    5  A    between atoms: S_9  and  C_10
REMARK    6  A    between atoms: N_14  and  C_15
REMARK    7  A    between atoms: N_21  and  C_22
REMARK                            x       y       z     vdW  Elec       q    Type
REMARK                         _______ _______ _______ _____ _____    ______ ____
ROOT
ATOM      1  N   UNL     1       2.515   6.825  17.872  0.00  0.00    +0.000 N 
ATOM      2  C   UNL     1       2.245   7.627  19.026  0.00  0.00    +0.000 C 
ATOM      3  O   UNL     1       2.280   7.133  20.143  0.00  0.00    +0.000 OA
ATOM      4  H   UNL     1       2.521   7.238  16.941  0.00  0.00    +0.000 HD
ENDROOT
BRANCH   1   8
ATOM      5  C   UNL     1       2.167   1.902  18.338  0.00  0.00    +0.000 C 
ATOM      6  C   UNL     1       2.660   3.297  18.247  0.00  0.00    +0.000 A 
ATOM      7  C   UNL     1       1.916   4.453  17.936  0.00  0.00    +0.000 A 
ATOM      8  C   UNL     1       2.825   5.480  17.978  0.00  0.00    +0.000 A 
ATOM      9  N   UNL     1       4.060   4.915  18.267  0.00  0.00    +0.000 N 
ATOM     10  N   UNL     1       3.944   3.581  18.500  0.00  0.00    +0.000 NA
BRANCH   9  11
ATOM     11  C   UNL     1       5.332   5.555  18.266  0.00  0.00    +0.000 A 
ATOM     12  C   UNL     1       6.269   5.227  19.254  0.00  0.00    +0.000 A 
ATOM     13  C   UNL     1       7.518   5.849  19.275  0.00  0.00    +0.000 A 
ATOM     14  C   UNL     1       7.854   6.783  18.298  0.00  0.00    +0.000 A 
ATOM     15  C   UNL     1       6.940   7.096  17.293  0.00  0.00    +0.000 A 
ATOM     16  C   UNL     1       5.682   6.483  17.277  0.00  0.00    +0.000 A 
ENDBRANCH   9  11
ENDBRANCH   1   8
BRANCH   2  17
ATOM     17  C   UNL     1       1.856   9.055  18.735  0.00  0.00    +0.000 C 
BRANCH  17  18
ATOM     18  S   UNL     1       0.703   9.688  19.964  0.00  0.00    +0.000 S 
BRANCH  18  19
ATOM     19  C   UNL     1       0.556  11.357  19.508  0.00  0.00    +0.000 A 
ATOM     20  N   UNL     1       1.548  12.214  19.584  0.00  0.00    +0.000 NA
ATOM     21  N   UNL     1       1.129  13.394  19.037  0.00  0.00    +0.000 NA
ATOM     22  C   UNL     1      -0.099  13.213  18.604  0.00  0.00    +0.000 A 
ATOM     23  N   UNL     1      -0.534  11.932  18.873  0.00  0.00    +0.000 N 
BRANCH  23  24
ATOM     24  C   UNL     1      -1.785  11.373  18.493  0.00  0.00    +0.000 A 
ATOM     25  C   UNL     1      -2.970  12.011  18.883  0.00  0.00    +0.000 A 
ATOM     26  C   UNL     1      -4.198  11.553  18.398  0.00  0.00    +0.000 A 
ATOM     27  C   UNL     1      -4.253  10.450  17.550  0.00  0.00    +0.000 A 
ATOM     28  C   UNL     1      -3.085   9.774  17.213  0.00  0.00    +0.000 A 
ATOM     29  C   UNL     1      -1.855  10.227  17.692  0.00  0.00    +0.000 A 
ENDBRANCH  23  24
ENDBRANCH  18  19
ENDBRANCH  17  18
ENDBRANCH   2  17
TORSDOF 6
ENDMDL
MODEL 9
REMARK VINA RESULT:      -7.9      4.530      9.091
REMARK  Name = 
REMARK  7 active torsions:
REMARK  status: ('A' for Active; 'I' for Inactive)
REMARK    1  A    between atoms: C_1  and  C_2
REMARK    2  A    between atoms: C_4  and  N_5
REMARK    3  A    between atoms: C_6  and  C_8
REMARK    4  A    between atoms: C_8  and  S_9
REMARK    5  A    between atoms: S_9  and  C_10
REMARK    6  A    between atoms: N_14  and  C_15
REMARK    7  A    between atoms: N_21  and  C_22
REMARK                            x       y       z     vdW  Elec       q    Type
REMARK                         _______ _______ _______ _____ _____    ______ ____
ROOT
ATOM      1  N   UNL     1       2.617   6.955  18.719  0.00  0.00    +0.000 N 
ATOM      2  C   UNL     1       2.015   7.266  19.980  0.00  0.00    +0.000 C 
ATOM      3  O   UNL     1       1.736   6.374  20.767  0.00  0.00    +0.000 OA
ATOM      4  H   UNL     1       2.883   7.696  18.073  0.00  0.00    +0.000 HD
ENDROOT
BRANCH   1   8
ATOM      5  C   UNL     1       2.223   2.123  17.686  0.00  0.00    +0.000 C 
ATOM      6  C   UNL     1       2.730   3.490  17.956  0.00  0.00    +0.000 A 
ATOM      7  C   UNL     1       1.976   4.666  18.140  0.00  0.00    +0.000 A 
ATOM      8  C   UNL     1       2.907   5.652  18.354  0.00  0.00    +0.000 A 
ATOM      9  N   UNL     1       4.157   5.057  18.256  0.00  0.00    +0.000 N 
ATOM     10  N   UNL     1       4.045   3.713  18.079  0.00  0.00    +0.000 NA
BRANCH   9  11
ATOM     11  C   UNL     1       5.429   5.697  18.253  0.00  0.00    +0.000 A 
ATOM     12  C   UNL     1       5.688   6.713  17.325  0.00  0.00    +0.000 A 
ATOM     13  C   UNL     1       6.931   7.346  17.301  0.00  0.00    +0.000 A 
ATOM     14  C   UNL     1       7.917   6.991  18.219  0.00  0.00    +0.000 A 
ATOM     15  C   UNL     1       7.661   6.001  19.166  0.00  0.00    +0.000 A 
ATOM     16  C   UNL     1       6.419   5.355  19.183  0.00  0.00    +0.000 A 
ENDBRANCH   9  11
ENDBRANCH   1   8
BRANCH   2  17
ATOM     17  C   UNL     1       1.701   8.726  20.196  0.00  0.00    +0.000 C 
BRANCH  17  18
ATOM     18  S   UNL     1       0.088   8.946  20.963  0.00  0.00    +0.000 S 
BRANCH  18  19
ATOM     19  C   UNL     1      -0.056  10.676  21.029  0.00  0.00    +0.000 A 
ATOM     20  N   UNL     1       0.645  11.426  21.847  0.00  0.00    +0.000 NA
ATOM     21  N   UNL     1       0.378  12.734  21.553  0.00  0.00    +0.000 NA
ATOM     22  C   UNL     1      -0.451  12.747  20.534  0.00  0.00    +0.000 A 
ATOM     23  N   UNL     1      -0.776  11.465  20.145  0.00  0.00    +0.000 N 
BRANCH  23  24
ATOM     24  C   UNL     1      -1.597  11.105  19.041  0.00  0.00    +0.000 A 
ATOM     25  C   UNL     1      -2.847  11.719  18.886  0.00  0.00    +0.000 A 
ATOM     26  C   UNL     1      -3.601  11.480  17.733  0.00  0.00    +0.000 A 
ATOM     27  C   UNL     1      -3.128  10.615  16.749  0.00  0.00    +0.000 A 
ATOM     28  C   UNL     1      -1.918   9.952  16.930  0.00  0.00    +0.000 A 
ATOM     29  C   UNL     1      -1.160  10.188  18.079  0.00  0.00    +0.000 A 
ENDBRANCH  23  24
ENDBRANCH  18  19
ENDBRANCH  17  18
ENDBRANCH   2  17
TORSDOF 6
ENDMDL
