MODEL 1
REMARK VINA RESULT:      -9.0      0.000      0.000
REMARK  Name = 
REMARK  4 active torsions:
REMARK  status: ('A' for Active; 'I' for Inactive)
REMARK    1  A    between atoms: C_1  and  C_2
REMARK    2  A    between atoms: C_7  and  C_8
REMARK    3  A    between atoms: N_10  and  C_11
REMARK    4  A    between atoms: C_15  and  C_16
REMARK                            x       y       z     vdW  Elec       q    Type
REMARK                         _______ _______ _______ _____ _____    ______ ____
ROOT
ATOM      1  C   UNL     1       1.864   8.291  18.599  0.00  0.00    +0.000 C 
ATOM      2  O   UNL     1       2.222   8.634  17.482  0.00  0.00    +0.000 OA
ATOM      3  N   UNL     1       1.972   6.990  19.097  0.00  0.00    +0.000 N 
ATOM      4  H   UNL     1       1.539   6.811  19.997  0.00  0.00    +0.000 HD
ENDROOT
BRANCH   1  11
ATOM      5  C   UNL     1      -1.282  13.404  23.071  0.00  0.00    +0.000 C 
ATOM      6  C   UNL     1      -0.784  12.124  22.461  0.00  0.00    +0.000 A 
ATOM      7  C   UNL     1      -0.951  10.900  23.129  0.00  0.00    +0.000 A 
ATOM      8  C   UNL     1      -0.483   9.700  22.582  0.00  0.00    +0.000 A 
ATOM      9  C   UNL     1       0.158   9.787  21.351  0.00  0.00    +0.000 A 
ATOM     10  O   UNL     1       0.686   8.736  20.671  0.00  0.00    +0.000 OA
ATOM     11  C   UNL     1       1.227   9.235  19.512  0.00  0.00    +0.000 A 
ATOM     12  C   UNL     1       1.031  10.602  19.455  0.00  0.00    +0.000 A 
ATOM     13  C   UNL     1       0.345  10.967  20.647  0.00  0.00    +0.000 A 
ATOM     14  C   UNL     1      -0.140  12.164  21.208  0.00  0.00    +0.000 A 
ENDBRANCH   1  11
BRANCH   3  15
ATOM     15  C   UNL     1       2.516   5.892  18.398  0.00  0.00    +0.000 A 
ATOM     16  C   UNL     1       1.772   4.744  18.117  0.00  0.00    +0.000 A 
ATOM     17  C   UNL     1       2.325   3.680  17.411  0.00  0.00    +0.000 A 
ATOM     18  C   UNL     1       3.633   3.762  16.960  0.00  0.00    +0.000 A 
ATOM     19  C   UNL     1       4.393   4.912  17.187  0.00  0.00    +0.000 A 
ATOM     20  C   UNL     1       3.834   5.972  17.926  0.00  0.00    +0.000 A 
BRANCH  19  21
ATOM     21  C   UNL     1       5.725   5.028  16.604  0.00  0.00    +0.000 A 
ATOM     22  N   UNL     1       6.147   5.913  15.737  0.00  0.00    +0.000 NA
ATOM     23  N   UNL     1       7.463   5.604  15.467  0.00  0.00    +0.000 NA
ATOM     24  N   UNL     1       7.841   4.531  16.140  0.00  0.00    +0.000 NA
ATOM     25  N   UNL     1       6.763   4.157  16.832  0.00  0.00    +0.000 N 
ATOM     26  H   UNL     1       6.805   3.321  17.398  0.00  0.00    +0.000 HD
ENDBRANCH  19  21
ENDBRANCH   3  15
TORSDOF 3
ENDMDL
MODEL 2
REMARK VINA RESULT:      -9.0      0.890      1.157
REMARK  Name = 
REMARK  4 active torsions:
REMARK  status: ('A' for Active; 'I' for Inactive)
REMARK    1  A    between atoms: C_1  and  C_2
REMARK    2  A    between atoms: C_7  and  C_8
REMARK    3  A    between atoms: N_10  and  C_11
REMARK    4  A    between atoms: C_15  and  C_16
REMARK                            x       y       z     vdW  Elec       q    Type
REMARK                         _______ _______ _______ _____ _____    ______ ____
ROOT
ATOM      1  C   UNL     1       2.043   8.028  18.921  0.00  0.00    +0.000 C 
ATOM      2  O   UNL     1       2.729   8.442  17.999  0.00  0.00    +0.000 OA
ATOM      3  N   UNL     1       1.911   6.680  19.265  0.00  0.00    +0.000 N 
ATOM      4  H   UNL     1       1.227   6.458  19.980  0.00  0.00    +0.000 HD
ENDROOT
BRANCH   1  11
ATOM      5  C   UNL     1      -2.051  12.940  22.814  0.00  0.00    +0.000 C 
ATOM      6  C   UNL     1      -1.269  11.735  22.373  0.00  0.00    +0.000 A 
ATOM      7  C   UNL     1      -1.054  10.660  23.250  0.00  0.00    +0.000 A 
ATOM      8  C   UNL     1      -0.319   9.535  22.860  0.00  0.00    +0.000 A 
ATOM      9  C   UNL     1       0.189   9.544  21.566  0.00  0.00    +0.000 A 
ATOM     10  O   UNL     1       0.933   8.550  21.014  0.00  0.00    +0.000 OA
ATOM     11  C   UNL     1       1.239   8.938  19.732  0.00  0.00    +0.000 A 
ATOM     12  C   UNL     1       0.679  10.174  19.472  0.00  0.00    +0.000 A 
ATOM     13  C   UNL     1       0.003  10.575  20.658  0.00  0.00    +0.000 A 
ATOM     14  C   UNL     1      -0.747  11.696  21.064  0.00  0.00    +0.000 A 
ENDBRANCH   1  11
BRANCH   3  15
ATOM     15  C   UNL     1       2.554   5.606  18.613  0.00  0.00    +0.000 A 
ATOM     16  C   UNL     1       1.849   4.652  17.875  0.00  0.00    +0.000 A 
ATOM     17  C   UNL     1       2.507   3.611  17.227  0.00  0.00    +0.000 A 
ATOM     18  C   UNL     1       3.888   3.524  17.295  0.00  0.00    +0.000 A 
ATOM     19  C   UNL     1       4.628   4.485  17.990  0.00  0.00    +0.000 A 
ATOM     20  C   UNL     1       3.952   5.518  18.666  0.00  0.00    +0.000 A 
BRANCH  19  21
ATOM     21  C   UNL     1       6.085   4.443  17.953  0.00  0.00    +0.000 A 
ATOM     22  N   UNL     1       6.920   4.709  18.925  0.00  0.00    +0.000 NA
ATOM     23  N   UNL     1       8.189   4.557  18.408  0.00  0.00    +0.000 NA
ATOM     24  N   UNL     1       8.138   4.225  17.129  0.00  0.00    +0.000 NA
ATOM     25  N   UNL     1       6.838   4.171  16.836  0.00  0.00    +0.000 N 
ATOM     26  H   UNL     1       6.554   3.971  15.887  0.00  0.00    +0.000 HD
ENDBRANCH  19  21
ENDBRANCH   3  15
TORSDOF 3
ENDMDL
MODEL 3
REMARK VINA RESULT:      -9.0      5.916      7.469
REMARK  Name = 
REMARK  4 active torsions:
REMARK  status: ('A' for Active; 'I' for Inactive)
REMARK    1  A    between atoms: C_1  and  C_2
REMARK    2  A    between atoms: C_7  and  C_8
REMARK    3  A    between atoms: N_10  and  C_11
REMARK    4  A    between atoms: C_15  and  C_16
REMARK                            x       y       z     vdW  Elec       q    Type
REMARK                         _______ _______ _______ _____ _____    ______ ____
ROOT
ATOM      1  C   UNL     1       7.846   7.622  18.077  0.00  0.00    +0.000 C 
ATOM      2  O   UNL     1       8.239   6.722  18.803  0.00  0.00    +0.000 OA
ATOM      3  N   UNL     1       6.939   7.452  17.027  0.00  0.00    +0.000 N 
ATOM      4  H   UNL     1       6.778   8.256  16.431  0.00  0.00    +0.000 HD
ENDROOT
BRANCH   1  11
ATOM      5  C   UNL     1      10.298  14.683  18.488  0.00  0.00    +0.000 C 
ATOM      6  C   UNL     1      10.000  13.236  18.762  0.00  0.00    +0.000 A 
ATOM      7  C   UNL     1      10.523  12.599  19.899  0.00  0.00    +0.000 A 
ATOM      8  C   UNL     1      10.266  11.249  20.163  0.00  0.00    +0.000 A 
ATOM      9  C   UNL     1       9.475  10.576  19.239  0.00  0.00    +0.000 A 
ATOM     10  O   UNL     1       9.127   9.265  19.319  0.00  0.00    +0.000 OA
ATOM     11  C   UNL     1       8.350   8.985  18.222  0.00  0.00    +0.000 A 
ATOM     12  C   UNL     1       8.198  10.123  17.453  0.00  0.00    +0.000 A 
ATOM     13  C   UNL     1       8.930  11.156  18.103  0.00  0.00    +0.000 A 
ATOM     14  C   UNL     1       9.192  12.518  17.858  0.00  0.00    +0.000 A 
ENDBRANCH   1  11
BRANCH   3  15
ATOM     15  C   UNL     1       6.339   6.229  16.660  0.00  0.00    +0.000 A 
ATOM     16  C   UNL     1       6.974   5.307  15.824  0.00  0.00    +0.000 A 
ATOM     17  C   UNL     1       6.368   4.100  15.489  0.00  0.00    +0.000 A 
ATOM     18  C   UNL     1       5.119   3.792  16.004  0.00  0.00    +0.000 A 
ATOM     19  C   UNL     1       4.472   4.673  16.876  0.00  0.00    +0.000 A 
ATOM     20  C   UNL     1       5.081   5.905  17.187  0.00  0.00    +0.000 A 
BRANCH  19  21
ATOM     21  C   UNL     1       3.214   4.282  17.499  0.00  0.00    +0.000 A 
ATOM     22  N   UNL     1       2.315   3.450  17.038  0.00  0.00    +0.000 NA
ATOM     23  N   UNL     1       1.294   3.420  17.963  0.00  0.00    +0.000 NA
ATOM     24  N   UNL     1       1.547   4.240  18.969  0.00  0.00    +0.000 NA
ATOM     25  N   UNL     1       2.727   4.791  18.679  0.00  0.00    +0.000 N 
ATOM     26  H   UNL     1       3.109   5.493  19.297  0.00  0.00    +0.000 HD
ENDBRANCH  19  21
ENDBRANCH   3  15
TORSDOF 3
ENDMDL
MODEL 4
REMARK VINA RESULT:      -8.8      1.400      1.448
REMARK  Name = 
REMARK  4 active torsions:
REMARK  status: ('A' for Active; 'I' for Inactive)
REMARK    1  A    between atoms: C_1  and  C_2
REMARK    2  A    between atoms: C_7  and  C_8
REMARK    3  A    between atoms: N_10  and  C_11
REMARK    4  A    between atoms: C_15  and  C_16
REMARK                            x       y       z     vdW  Elec       q    Type
REMARK                         _______ _______ _______ _____ _____    ______ ____
ROOT
ATOM      1  C   UNL     1       2.046   7.591  19.573  0.00  0.00    +0.000 C 
ATOM      2  O   UNL     1       2.378   7.639  18.398  0.00  0.00    +0.000 OA
ATOM      3  N   UNL     1       2.313   6.518  20.427  0.00  0.00    +0.000 N 
ATOM      4  H   UNL     1       1.889   6.552  21.347  0.00  0.00    +0.000 HD
ENDROOT
BRANCH   1  11
ATOM      5  C   UNL     1      -1.824  13.327  22.429  0.00  0.00    +0.000 C 
ATOM      6  C   UNL     1      -1.162  11.998  22.203  0.00  0.00    +0.000 A 
ATOM      7  C   UNL     1      -1.211  10.996  23.186  0.00  0.00    +0.000 A 
ATOM      8  C   UNL     1      -0.590   9.757  22.998  0.00  0.00    +0.000 A 
ATOM      9  C   UNL     1       0.081   9.576  21.793  0.00  0.00    +0.000 A 
ATOM     10  O   UNL     1       0.750   8.449  21.436  0.00  0.00    +0.000 OA
ATOM     11  C   UNL     1       1.272   8.668  20.184  0.00  0.00    +0.000 A 
ATOM     12  C   UNL     1       0.924   9.932  19.748  0.00  0.00    +0.000 A 
ATOM     13  C   UNL     1       0.157  10.528  20.788  0.00  0.00    +0.000 A 
ATOM     14  C   UNL     1      -0.481  11.766  20.991  0.00  0.00    +0.000 A 
ENDBRANCH   1  11
BRANCH   3  15
ATOM     15  C   UNL     1       3.010   5.344  20.067  0.00  0.00    +0.000 A 
ATOM     16  C   UNL     1       2.565   4.071  20.430  0.00  0.00    +0.000 A 
ATOM     17  C   UNL     1       3.261   2.928  20.049  0.00  0.00    +0.000 A 
ATOM     18  C   UNL     1       4.408   3.047  19.279  0.00  0.00    +0.000 A 
ATOM     19  C   UNL     1       4.859   4.303  18.863  0.00  0.00    +0.000 A 
ATOM     20  C   UNL     1       4.164   5.455  19.278  0.00  0.00    +0.000 A 
BRANCH  19  21
ATOM     21  C   UNL     1       5.998   4.400  17.958  0.00  0.00    +0.000 A 
ATOM     22  N   UNL     1       5.979   4.568  16.660  0.00  0.00    +0.000 NA
ATOM     23  N   UNL     1       7.293   4.575  16.244  0.00  0.00    +0.000 NA
ATOM     24  N   UNL     1       8.110   4.390  17.267  0.00  0.00    +0.000 NA
ATOM     25  N   UNL     1       7.313   4.263  18.330  0.00  0.00    +0.000 N 
ATOM     26  H   UNL     1       7.722   4.071  19.233  0.00  0.00    +0.000 HD
ENDBRANCH  19  21
ENDBRANCH   3  15
TORSDOF 3
ENDMDL
MODEL 5
REMARK VINA RESULT:      -8.7      6.134      7.442
REMARK  Name = 
REMARK  4 active torsions:
REMARK  status: ('A' for Active; 'I' for Inactive)
REMARK    1  A    between atoms: C_1  and  C_2
REMARK    2  A    between atoms: C_7  and  C_8
REMARK    3  A    between atoms: N_10  and  C_11
REMARK    4  A    between atoms: C_15  and  C_16
REMARK                            x       y       z     vdW  Elec       q    Type
REMARK                         _______ _______ _______ _____ _____    ______ ____
ROOT
ATOM      1  C   UNL     1       7.873   7.794  18.119  0.00  0.00    +0.000 C 
ATOM      2  O   UNL     1       8.396   6.857  18.704  0.00  0.00    +0.000 OA
ATOM      3  N   UNL     1       6.783   7.675  17.253  0.00  0.00    +0.000 N 
ATOM      4  H   UNL     1       6.512   8.510  16.746  0.00  0.00    +0.000 HD
ENDROOT
BRANCH   1  11
ATOM      5  C   UNL     1      10.423  14.825  18.429  0.00  0.00    +0.000 C 
ATOM      6  C   UNL     1      10.114  13.384  18.719  0.00  0.00    +0.000 A 
ATOM      7  C   UNL     1      10.652  12.748  19.849  0.00  0.00    +0.000 A 
ATOM      8  C   UNL     1      10.384  11.403  20.127  0.00  0.00    +0.000 A 
ATOM      9  C   UNL     1       9.565  10.734  19.225  0.00  0.00    +0.000 A 
ATOM     10  O   UNL     1       9.202   9.428  19.322  0.00  0.00    +0.000 OA
ATOM     11  C   UNL     1       8.397   9.151  18.244  0.00  0.00    +0.000 A 
ATOM     12  C   UNL     1       8.244  10.286  17.471  0.00  0.00    +0.000 A 
ATOM     13  C   UNL     1       9.003  11.314  18.098  0.00  0.00    +0.000 A 
ATOM     14  C   UNL     1       9.277  12.670  17.837  0.00  0.00    +0.000 A 
ENDBRANCH   1  11
BRANCH   3  15
ATOM     15  C   UNL     1       6.122   6.469  16.937  0.00  0.00    +0.000 A 
ATOM     16  C   UNL     1       6.024   5.993  15.627  0.00  0.00    +0.000 A 
ATOM     17  C   UNL     1       5.381   4.792  15.342  0.00  0.00    +0.000 A 
ATOM     18  C   UNL     1       4.841   4.041  16.373  0.00  0.00    +0.000 A 
ATOM     19  C   UNL     1       4.957   4.466  17.700  0.00  0.00    +0.000 A 
ATOM     20  C   UNL     1       5.584   5.696  17.976  0.00  0.00    +0.000 A 
BRANCH  19  21
ATOM     21  C   UNL     1       4.487   3.607  18.780  0.00  0.00    +0.000 A 
ATOM     22  N   UNL     1       3.300   3.588  19.331  0.00  0.00    +0.000 NA
ATOM     23  N   UNL     1       3.340   2.629  20.320  0.00  0.00    +0.000 NA
ATOM     24  N   UNL     1       4.540   2.081  20.395  0.00  0.00    +0.000 NA
ATOM     25  N   UNL     1       5.262   2.696  19.456  0.00  0.00    +0.000 N 
ATOM     26  H   UNL     1       6.240   2.464  19.354  0.00  0.00    +0.000 HD
ENDBRANCH  19  21
ENDBRANCH   3  15
TORSDOF 3
ENDMDL
MODEL 6
REMARK VINA RESULT:      -8.7      2.164      3.060
REMARK  Name = 
REMARK  4 active torsions:
REMARK  status: ('A' for Active; 'I' for Inactive)
REMARK    1  A    between atoms: C_1  and  C_2
REMARK    2  A    between atoms: C_7  and  C_8
REMARK    3  A    between atoms: N_10  and  C_11
REMARK    4  A    between atoms: C_15  and  C_16
REMARK                            x       y       z     vdW  Elec       q    Type
REMARK                         _______ _______ _______ _____ _____    ______ ____
ROOT
ATOM      1  C   UNL     1       3.138   6.762  18.084  0.00  0.00    +0.000 C 
ATOM      2  O   UNL     1       2.745   5.605  18.100  0.00  0.00    +0.000 OA
ATOM      3  N   UNL     1       4.441   7.149  17.760  0.00  0.00    +0.000 N 
ATOM      4  H   UNL     1       4.670   8.128  17.891  0.00  0.00    +0.000 HD
ENDROOT
BRANCH   1  11
ATOM      5  C   UNL     1      -1.329  12.547  19.703  0.00  0.00    +0.000 C 
ATOM      6  C   UNL     1      -0.484  11.306  19.774  0.00  0.00    +0.000 A 
ATOM      7  C   UNL     1      -0.281  10.646  20.996  0.00  0.00    +0.000 A 
ATOM      8  C   UNL     1       0.512   9.496  21.082  0.00  0.00    +0.000 A 
ATOM      9  C   UNL     1       1.090   9.051  19.899  0.00  0.00    +0.000 A 
ATOM     10  O   UNL     1       1.897   7.963  19.786  0.00  0.00    +0.000 OA
ATOM     11  C   UNL     1       2.260   7.864  18.465  0.00  0.00    +0.000 A 
ATOM     12  C   UNL     1       1.674   8.885  17.741  0.00  0.00    +0.000 A 
ATOM     13  C   UNL     1       0.920   9.661  18.665  0.00  0.00    +0.000 A 
ATOM     14  C   UNL     1       0.111  10.812  18.596  0.00  0.00    +0.000 A 
ENDBRANCH   1  11
BRANCH   3  15
ATOM     15  C   UNL     1       5.484   6.272  17.395  0.00  0.00    +0.000 A 
ATOM     16  C   UNL     1       6.307   5.656  18.341  0.00  0.00    +0.000 A 
ATOM     17  C   UNL     1       7.319   4.782  17.956  0.00  0.00    +0.000 A 
ATOM     18  C   UNL     1       7.509   4.499  16.613  0.00  0.00    +0.000 A 
ATOM     19  C   UNL     1       6.677   5.065  15.642  0.00  0.00    +0.000 A 
ATOM     20  C   UNL     1       5.674   5.970  16.039  0.00  0.00    +0.000 A 
BRANCH  19  21
ATOM     21  C   UNL     1       6.816   4.665  14.247  0.00  0.00    +0.000 A 
ATOM     22  N   UNL     1       7.499   5.264  13.305  0.00  0.00    +0.000 NA
ATOM     23  N   UNL     1       7.309   4.531  12.154  0.00  0.00    +0.000 NA
ATOM     24  N   UNL     1       6.502   3.508  12.375  0.00  0.00    +0.000 NA
ATOM     25  N   UNL     1       6.177   3.596  13.667  0.00  0.00    +0.000 N 
ATOM     26  H   UNL     1       5.526   2.930  14.059  0.00  0.00    +0.000 HD
ENDBRANCH  19  21
ENDBRANCH   3  15
TORSDOF 3
ENDMDL
MODEL 7
REMARK VINA RESULT:      -8.6      1.507      1.865
REMARK  Name = 
REMARK  4 active torsions:
REMARK  status: ('A' for Active; 'I' for Inactive)
REMARK    1  A    between atoms: C_1  and  C_2
REMARK    2  A    between atoms: C_7  and  C_8
REMARK    3  A    between atoms: N_10  and  C_11
REMARK    4  A    between atoms: C_15  and  C_16
REMARK                            x       y       z     vdW  Elec       q    Type
REMARK                         _______ _______ _______ _____ _____    ______ ____
ROOT
ATOM      1  C   UNL     1       2.088   7.533  19.767  0.00  0.00    +0.000 C 
ATOM      2  O   UNL     1       2.575   7.716  18.661  0.00  0.00    +0.000 OA
ATOM      3  N   UNL     1       2.206   6.347  20.496  0.00  0.00    +0.000 N 
ATOM      4  H   UNL     1       1.664   6.282  21.350  0.00  0.00    +0.000 HD
ENDROOT
BRANCH   1  11
ATOM      5  C   UNL     1      -2.047  12.610  23.394  0.00  0.00    +0.000 C 
ATOM      6  C   UNL     1      -1.332  11.810  22.343  0.00  0.00    +0.000 A 
ATOM      7  C   UNL     1      -1.460  12.136  20.983  0.00  0.00    +0.000 A 
ATOM      8  C   UNL     1      -0.811  11.394  19.990  0.00  0.00    +0.000 A 
ATOM      9  C   UNL     1      -0.042  10.319  20.421  0.00  0.00    +0.000 A 
ATOM     10  O   UNL     1       0.651   9.480  19.607  0.00  0.00    +0.000 OA
ATOM     11  C   UNL     1       1.272   8.557  20.412  0.00  0.00    +0.000 A 
ATOM     12  C   UNL     1       0.979   8.819  21.737  0.00  0.00    +0.000 A 
ATOM     13  C   UNL     1       0.123   9.956  21.749  0.00  0.00    +0.000 A 
ATOM     14  C   UNL     1      -0.531  10.719  22.736  0.00  0.00    +0.000 A 
ENDBRANCH   1  11
BRANCH   3  15
ATOM     15  C   UNL     1       2.909   5.197  20.074  0.00  0.00    +0.000 A 
ATOM     16  C   UNL     1       2.466   3.904  20.363  0.00  0.00    +0.000 A 
ATOM     17  C   UNL     1       3.168   2.787  19.921  0.00  0.00    +0.000 A 
ATOM     18  C   UNL     1       4.318   2.952  19.166  0.00  0.00    +0.000 A 
ATOM     19  C   UNL     1       4.767   4.231  18.824  0.00  0.00    +0.000 A 
ATOM     20  C   UNL     1       4.066   5.356  19.299  0.00  0.00    +0.000 A 
BRANCH  19  21
ATOM     21  C   UNL     1       5.911   4.383  17.932  0.00  0.00    +0.000 A 
ATOM     22  N   UNL     1       5.899   4.540  16.633  0.00  0.00    +0.000 NA
ATOM     23  N   UNL     1       7.216   4.614  16.233  0.00  0.00    +0.000 NA
ATOM     24  N   UNL     1       8.029   4.480  17.267  0.00  0.00    +0.000 NA
ATOM     25  N   UNL     1       7.227   4.318  18.321  0.00  0.00    +0.000 N 
ATOM     26  H   UNL     1       7.634   4.154  19.231  0.00  0.00    +0.000 HD
ENDBRANCH  19  21
ENDBRANCH   3  15
TORSDOF 3
ENDMDL
MODEL 8
REMARK VINA RESULT:      -8.6      0.949      1.479
REMARK  Name = 
REMARK  4 active torsions:
REMARK  status: ('A' for Active; 'I' for Inactive)
REMARK    1  A    between atoms: C_1  and  C_2
REMARK    2  A    between atoms: C_7  and  C_8
REMARK    3  A    between atoms: N_10  and  C_11
REMARK    4  A    between atoms: C_15  and  C_16
REMARK                            x       y       z     vdW  Elec       q    Type
REMARK                         _______ _______ _______ _____ _____    ______ ____
ROOT
ATOM      1  C   UNL     1       2.139   7.937  18.837  0.00  0.00    +0.000 C 
ATOM      2  O   UNL     1       2.823   8.293  17.888  0.00  0.00    +0.000 OA
ATOM      3  N   UNL     1       1.951   6.607  19.220  0.00  0.00    +0.000 N 
ATOM      4  H   UNL     1       1.274   6.437  19.955  0.00  0.00    +0.000 HD
ENDROOT
BRANCH   1  11
ATOM      5  C   UNL     1      -1.645  12.665  23.238  0.00  0.00    +0.000 C 
ATOM      6  C   UNL     1      -0.956  12.005  22.077  0.00  0.00    +0.000 A 
ATOM      7  C   UNL     1      -0.966  12.600  20.805  0.00  0.00    +0.000 A 
ATOM      8  C   UNL     1      -0.340  11.993  19.711  0.00  0.00    +0.000 A 
ATOM      9  C   UNL     1       0.282  10.773  19.949  0.00  0.00    +0.000 A 
ATOM     10  O   UNL     1       0.930  10.032  19.012  0.00  0.00    +0.000 OA
ATOM     11  C   UNL     1       1.400   8.906  19.641  0.00  0.00    +0.000 A 
ATOM     12  C   UNL     1       1.056   8.939  20.979  0.00  0.00    +0.000 A 
ATOM     13  C   UNL     1       0.326  10.144  21.184  0.00  0.00    +0.000 A 
ATOM     14  C   UNL     1      -0.301  10.773  22.276  0.00  0.00    +0.000 A 
ENDBRANCH   1  11
BRANCH   3  15
ATOM     15  C   UNL     1       2.525   5.486  18.582  0.00  0.00    +0.000 A 
ATOM     16  C   UNL     1       1.755   4.418  18.115  0.00  0.00    +0.000 A 
ATOM     17  C   UNL     1       2.343   3.332  17.474  0.00  0.00    +0.000 A 
ATOM     18  C   UNL     1       3.714   3.310  17.276  0.00  0.00    +0.000 A 
ATOM     19  C   UNL     1       4.510   4.381  17.694  0.00  0.00    +0.000 A 
ATOM     20  C   UNL     1       3.910   5.463  18.367  0.00  0.00    +0.000 A 
BRANCH  19  21
ATOM     21  C   UNL     1       5.932   4.395  17.374  0.00  0.00    +0.000 A 
ATOM     22  N   UNL     1       6.488   4.535  16.197  0.00  0.00    +0.000 NA
ATOM     23  N   UNL     1       7.850   4.459  16.393  0.00  0.00    +0.000 NA
ATOM     24  N   UNL     1       8.131   4.251  17.667  0.00  0.00    +0.000 NA
ATOM     25  N   UNL     1       6.946   4.191  18.279  0.00  0.00    +0.000 N 
ATOM     26  H   UNL     1       6.910   3.996  19.269  0.00  0.00    +0.000 HD
ENDBRANCH  19  21
ENDBRANCH   3  15
TORSDOF 3
ENDMDL
MODEL 9
REMARK VINA RESULT:      -8.5      0.843      1.432
REMARK  Name = 
REMARK  4 active torsions:
REMARK  status: ('A' for Active; 'I' for Inactive)
REMARK    1  A    between atoms: C_1  and  C_2
REMARK    2  A    between atoms: C_7  and  C_8
REMARK    3  A    between atoms: N_10  and  C_11
REMARK    4  A    between atoms: C_15  and  C_16
REMARK                            x       y       z     vdW  Elec       q    Type
REMARK                         _______ _______ _______ _____ _____    ______ ____
ROOT
ATOM      1  C   UNL     1       1.914   8.501  18.493  0.00  0.00    +0.000 C 
ATOM      2  O   UNL     1       2.229   8.780  17.346  0.00  0.00    +0.000 OA
ATOM      3  N   UNL     1       2.053   7.233  19.064  0.00  0.00    +0.000 N 
ATOM      4  H   UNL     1       1.653   7.104  19.987  0.00  0.00    +0.000 HD
ENDROOT
BRANCH   1  11
ATOM      5  C   UNL     1      -1.348  13.309  23.213  0.00  0.00    +0.000 C 
ATOM      6  C   UNL     1      -0.638  12.683  22.046  0.00  0.00    +0.000 A 
ATOM      7  C   UNL     1      -0.262  13.456  20.936  0.00  0.00    +0.000 A 
ATOM      8  C   UNL     1       0.389  12.886  19.836  0.00  0.00    +0.000 A 
ATOM      9  C   UNL     1       0.637  11.519  19.901  0.00  0.00    +0.000 A 
ATOM     10  O   UNL     1       1.246  10.791  18.929  0.00  0.00    +0.000 OA
ATOM     11  C   UNL     1       1.298   9.492  19.370  0.00  0.00    +0.000 A 
ATOM     12  C   UNL     1       0.728   9.401  20.626  0.00  0.00    +0.000 A 
ATOM     13  C   UNL     1       0.292  10.711  20.973  0.00  0.00    +0.000 A 
ATOM     14  C   UNL     1      -0.355  11.302  22.075  0.00  0.00    +0.000 A 
ENDBRANCH   1  11
BRANCH   3  15
ATOM     15  C   UNL     1       2.585   6.099  18.412  0.00  0.00    +0.000 A 
ATOM     16  C   UNL     1       1.838   4.936  18.211  0.00  0.00    +0.000 A 
ATOM     17  C   UNL     1       2.379   3.837  17.551  0.00  0.00    +0.000 A 
ATOM     18  C   UNL     1       3.675   3.898  17.065  0.00  0.00    +0.000 A 
ATOM     19  C   UNL     1       4.437   5.061  17.212  0.00  0.00    +0.000 A 
ATOM     20  C   UNL     1       3.891   6.157  17.907  0.00  0.00    +0.000 A 
BRANCH  19  21
ATOM     21  C   UNL     1       5.754   5.147  16.593  0.00  0.00    +0.000 A 
ATOM     22  N   UNL     1       6.285   6.173  15.977  0.00  0.00    +0.000 NA
ATOM     23  N   UNL     1       7.529   5.771  15.543  0.00  0.00    +0.000 NA
ATOM     24  N   UNL     1       7.755   4.509  15.865  0.00  0.00    +0.000 NA
ATOM     25  N   UNL     1       6.651   4.111  16.500  0.00  0.00    +0.000 N 
ATOM     26  H   UNL     1       6.578   3.152  16.810  0.00  0.00    +0.000 HD
ENDBRANCH  19  21
ENDBRANCH   3  15
TORSDOF 3
ENDMDL
