MODEL 1
REMARK VINA RESULT:      -9.7      0.000      0.000
REMARK  Name = 
REMARK  5 active torsions:
REMARK  status: ('A' for Active; 'I' for Inactive)
REMARK    1  A    between atoms: C_2  and  C_3
REMARK    2  A    between atoms: C_3  and  O_4
REMARK    3  A    between atoms: O_4  and  C_5
REMARK    4  A    between atoms: N_12  and  C_13
REMARK    5  A    between atoms: C_15  and  C_16
REMARK                            x       y       z     vdW  Elec       q    Type
REMARK                         _______ _______ _______ _____ _____    ______ ____
ROOT
ATOM      1  C   UNL     1       6.530   5.905  16.263  0.00  0.00    +0.000 A 
ATOM      2  C   UNL     1       5.399   5.459  16.951  0.00  0.00    +0.000 A 
ATOM      3  C   UNL     1       4.701   4.304  16.570  0.00  0.00    +0.000 A 
ATOM      4  C   UNL     1       5.222   3.523  15.532  0.00  0.00    +0.000 A 
ATOM      5  C   UNL     1       6.381   3.926  14.858  0.00  0.00    +0.000 A 
ATOM      6  C   UNL     1       7.009   5.120  15.212  0.00  0.00    +0.000 A 
ATOM      7  F   UNL     1       8.093   5.518  14.527  0.00  0.00    +0.000 F 
ENDROOT
BRANCH   3   8
ATOM      8  C   UNL     1       3.466   3.910  17.261  0.00  0.00    +0.000 A 
ATOM      9  N   UNL     1       2.663   2.936  16.875  0.00  0.00    +0.000 NA
ATOM     10  N   UNL     1       1.662   2.799  17.800  0.00  0.00    +0.000 NA
ATOM     11  C   UNL     1       1.834   3.706  18.738  0.00  0.00    +0.000 A 
ATOM     12  N   UNL     1       2.924   4.477  18.404  0.00  0.00    +0.000 N 
ATOM     13  C   UNL     1       3.384   5.670  19.090  0.00  0.00    +0.000 C 
ATOM     14  C   UNL     1       2.276   6.551  19.655  0.00  0.00    +0.000 C 
ATOM     15  C   UNL     1       1.722   6.061  20.990  0.00  0.00    +0.000 C 
ATOM     16  C   UNL     1       1.603   4.544  21.131  0.00  0.00    +0.000 C 
ATOM     17  C   UNL     1       0.953   3.870  19.929  0.00  0.00    +0.000 C 
ENDBRANCH   3   8
BRANCH   1  20
ATOM     18  O   UNL     1       8.078   6.677  18.645  0.00  0.00    +0.000 OA
ATOM     19  C   UNL     1       7.797   7.465  17.743  0.00  0.00    +0.000 C 
ATOM     20  N   UNL     1       7.164   7.138  16.554  0.00  0.00    +0.000 N 
ATOM     21  H   UNL     1       7.162   7.824  15.807  0.00  0.00    +0.000 HD
BRANCH  19  22
ATOM     22  C   UNL     1       8.092   8.946  17.924  0.00  0.00    +0.000 C 
BRANCH  22  23
ATOM     23  O   UNL     1       8.796   9.177  19.131  0.00  0.00    +0.000 OA
BRANCH  23  24
ATOM     24  C   UNL     1       9.410  10.395  19.244  0.00  0.00    +0.000 A 
ATOM     25  C   UNL     1       9.901  10.961  20.429  0.00  0.00    +0.000 A 
ATOM     26  C   UNL     1      10.511  12.220  20.415  0.00  0.00    +0.000 A 
ATOM     27  C   UNL     1      10.637  12.917  19.216  0.00  0.00    +0.000 A 
ATOM     28  C   UNL     1      10.170  12.343  18.043  0.00  0.00    +0.000 A 
ATOM     29  F   UNL     1      10.297  13.011  16.890  0.00  0.00    +0.000 F 
ATOM     30  C   UNL     1       9.566  11.089  18.046  0.00  0.00    +0.000 A 
ENDBRANCH  23  24
ENDBRANCH  22  23
ENDBRANCH  19  22
ENDBRANCH   1  20
TORSDOF 5
ENDMDL
MODEL 2
REMARK VINA RESULT:      -9.5      1.118      1.421
REMARK  Name = 
REMARK  5 active torsions:
REMARK  status: ('A' for Active; 'I' for Inactive)
REMARK    1  A    between atoms: C_2  and  C_3
REMARK    2  A    between atoms: C_3  and  O_4
REMARK    3  A    between atoms: O_4  and  C_5
REMARK    4  A    between atoms: N_12  and  C_13
REMARK    5  A    between atoms: C_15  and  C_16
REMARK                            x       y       z     vdW  Elec       q    Type
REMARK                         _______ _______ _______ _____ _____    ______ ____
ROOT
ATOM      1  C   UNL     1       6.644   5.670  16.259  0.00  0.00    +0.000 A 
ATOM      2  C   UNL     1       5.711   5.055  17.097  0.00  0.00    +0.000 A 
ATOM      3  C   UNL     1       5.044   3.876  16.733  0.00  0.00    +0.000 A 
ATOM      4  C   UNL     1       5.408   3.246  15.538  0.00  0.00    +0.000 A 
ATOM      5  C   UNL     1       6.375   3.820  14.703  0.00  0.00    +0.000 A 
ATOM      6  C   UNL     1       6.964   5.034  15.058  0.00  0.00    +0.000 A 
ATOM      7  F   UNL     1       7.856   5.596  14.226  0.00  0.00    +0.000 F 
ENDROOT
BRANCH   3   8
ATOM      8  C   UNL     1       4.006   3.302  17.600  0.00  0.00    +0.000 A 
ATOM      9  N   UNL     1       3.566   2.060  17.530  0.00  0.00    +0.000 NA
ATOM     10  N   UNL     1       2.665   1.854  18.542  0.00  0.00    +0.000 NA
ATOM     11  C   UNL     1       2.530   2.978  19.214  0.00  0.00    +0.000 A 
ATOM     12  N   UNL     1       3.308   3.941  18.613  0.00  0.00    +0.000 N 
ATOM     13  C   UNL     1       3.351   5.353  18.948  0.00  0.00    +0.000 C 
ATOM     14  C   UNL     1       2.015   5.951  19.374  0.00  0.00    +0.000 C 
ATOM     15  C   UNL     1       1.653   5.671  20.829  0.00  0.00    +0.000 C 
ATOM     16  C   UNL     1       2.037   4.283  21.343  0.00  0.00    +0.000 C 
ATOM     17  C   UNL     1       1.643   3.154  20.399  0.00  0.00    +0.000 C 
ENDBRANCH   3   8
BRANCH   1  20
ATOM     18  O   UNL     1       7.975   6.562  18.728  0.00  0.00    +0.000 OA
ATOM     19  C   UNL     1       7.750   7.312  17.778  0.00  0.00    +0.000 C 
ATOM     20  N   UNL     1       7.224   6.928  16.554  0.00  0.00    +0.000 N 
ATOM     21  H   UNL     1       7.268   7.587  15.786  0.00  0.00    +0.000 HD
BRANCH  19  22
ATOM     22  C   UNL     1       7.996   8.805  17.928  0.00  0.00    +0.000 C 
BRANCH  22  23
ATOM     23  O   UNL     1       8.973   9.058  18.923  0.00  0.00    +0.000 OA
BRANCH  23  24
ATOM     24  C   UNL     1       9.390  10.356  19.035  0.00  0.00    +0.000 A 
ATOM     25  C   UNL     1       9.715  11.210  17.972  0.00  0.00    +0.000 A 
ATOM     26  C   UNL     1      10.132  12.523  18.216  0.00  0.00    +0.000 A 
ATOM     27  C   UNL     1      10.224  12.990  19.525  0.00  0.00    +0.000 A 
ATOM     28  C   UNL     1       9.881  12.148  20.573  0.00  0.00    +0.000 A 
ATOM     29  F   UNL     1       9.962  12.599  21.831  0.00  0.00    +0.000 F 
ATOM     30  C   UNL     1       9.459  10.842  20.340  0.00  0.00    +0.000 A 
ENDBRANCH  23  24
ENDBRANCH  22  23
ENDBRANCH  19  22
ENDBRANCH   1  20
TORSDOF 5
ENDMDL
MODEL 3
REMARK VINA RESULT:      -9.4      1.211      1.526
REMARK  Name = 
REMARK  5 active torsions:
REMARK  status: ('A' for Active; 'I' for Inactive)
REMARK    1  A    between atoms: C_2  and  C_3
REMARK    2  A    between atoms: C_3  and  O_4
REMARK    3  A    between atoms: O_4  and  C_5
REMARK    4  A    between atoms: N_12  and  C_13
REMARK    5  A    between atoms: C_15  and  C_16
REMARK                            x       y       z     vdW  Elec       q    Type
REMARK                         _______ _______ _______ _____ _____    ______ ____
ROOT
ATOM      1  C   UNL     1       6.157   5.952  16.479  0.00  0.00    +0.000 A 
ATOM      2  C   UNL     1       4.955   5.596  17.096  0.00  0.00    +0.000 A 
ATOM      3  C   UNL     1       4.316   4.375  16.836  0.00  0.00    +0.000 A 
ATOM      4  C   UNL     1       4.963   3.446  16.013  0.00  0.00    +0.000 A 
ATOM      5  C   UNL     1       6.191   3.762  15.421  0.00  0.00    +0.000 A 
ATOM      6  C   UNL     1       6.763   5.016  15.639  0.00  0.00    +0.000 A 
ATOM      7  F   UNL     1       7.919   5.324  15.027  0.00  0.00    +0.000 F 
ENDROOT
BRANCH   3   8
ATOM      8  C   UNL     1       3.010   4.068  17.434  0.00  0.00    +0.000 A 
ATOM      9  N   UNL     1       1.880   3.950  16.762  0.00  0.00    +0.000 NA
ATOM     10  N   UNL     1       0.888   3.578  17.631  0.00  0.00    +0.000 NA
ATOM     11  C   UNL     1       1.402   3.495  18.840  0.00  0.00    +0.000 A 
ATOM     12  N   UNL     1       2.727   3.862  18.776  0.00  0.00    +0.000 N 
ATOM     13  C   UNL     1       3.631   4.041  19.897  0.00  0.00    +0.000 C 
ATOM     14  C   UNL     1       2.989   4.622  21.152  0.00  0.00    +0.000 C 
ATOM     15  C   UNL     1       2.238   3.591  21.990  0.00  0.00    +0.000 C 
ATOM     16  C   UNL     1       1.477   2.530  21.194  0.00  0.00    +0.000 C 
ATOM     17  C   UNL     1       0.639   3.104  20.059  0.00  0.00    +0.000 C 
ENDBRANCH   3   8
BRANCH   1  20
ATOM     18  O   UNL     1       8.078   6.885  18.504  0.00  0.00    +0.000 OA
ATOM     19  C   UNL     1       7.569   7.631  17.668  0.00  0.00    +0.000 C 
ATOM     20  N   UNL     1       6.742   7.233  16.629  0.00  0.00    +0.000 N 
ATOM     21  H   UNL     1       6.544   7.900  15.892  0.00  0.00    +0.000 HD
BRANCH  19  22
ATOM     22  C   UNL     1       7.784   9.133  17.775  0.00  0.00    +0.000 C 
BRANCH  22  23
ATOM     23  O   UNL     1       8.865   9.428  18.641  0.00  0.00    +0.000 OA
BRANCH  23  24
ATOM     24  C   UNL     1       9.322  10.718  18.612  0.00  0.00    +0.000 A 
ATOM     25  C   UNL     1       8.828  11.746  17.797  0.00  0.00    +0.000 A 
ATOM     26  C   UNL     1       9.381  13.029  17.859  0.00  0.00    +0.000 A 
ATOM     27  C   UNL     1      10.428  13.293  18.738  0.00  0.00    +0.000 A 
ATOM     28  C   UNL     1      10.897  12.277  19.559  0.00  0.00    +0.000 A 
ATOM     29  F   UNL     1      11.899  12.533  20.410  0.00  0.00    +0.000 F 
ATOM     30  C   UNL     1      10.351  10.999  19.508  0.00  0.00    +0.000 A 
ENDBRANCH  23  24
ENDBRANCH  22  23
ENDBRANCH  19  22
ENDBRANCH   1  20
TORSDOF 5
ENDMDL
MODEL 4
REMARK VINA RESULT:      -9.3      1.371      1.822
REMARK  Name = 
REMARK  5 active torsions:
REMARK  status: ('A' for Active; 'I' for Inactive)
REMARK    1  A    between atoms: C_2  and  C_3
REMARK    2  A    between atoms: C_3  and  O_4
REMARK    3  A    between atoms: O_4  and  C_5
REMARK    4  A    between atoms: N_12  and  C_13
REMARK    5  A    between atoms: C_15  and  C_16
REMARK                            x       y       z     vdW  Elec       q    Type
REMARK                         _______ _______ _______ _____ _____    ______ ____
ROOT
ATOM      1  C   UNL     1       6.659   5.909  16.689  0.00  0.00    +0.000 A 
ATOM      2  C   UNL     1       6.137   5.251  17.806  0.00  0.00    +0.000 A 
ATOM      3  C   UNL     1       5.402   4.062  17.694  0.00  0.00    +0.000 A 
ATOM      4  C   UNL     1       5.281   3.468  16.433  0.00  0.00    +0.000 A 
ATOM      5  C   UNL     1       5.835   4.086  15.305  0.00  0.00    +0.000 A 
ATOM      6  C   UNL     1       6.496   5.308  15.440  0.00  0.00    +0.000 A 
ATOM      7  F   UNL     1       6.982   5.913  14.343  0.00  0.00    +0.000 F 
ENDROOT
BRANCH   3   8
ATOM      8  C   UNL     1       4.794   3.441  18.879  0.00  0.00    +0.000 A 
ATOM      9  N   UNL     1       5.462   2.817  19.831  0.00  0.00    +0.000 NA
ATOM     10  N   UNL     1       4.583   2.442  20.812  0.00  0.00    +0.000 NA
ATOM     11  C   UNL     1       3.372   2.811  20.450  0.00  0.00    +0.000 A 
ATOM     12  N   UNL     1       3.446   3.387  19.203  0.00  0.00    +0.000 N 
ATOM     13  C   UNL     1       2.332   3.809  18.376  0.00  0.00    +0.000 C 
ATOM     14  C   UNL     1       1.094   2.925  18.469  0.00  0.00    +0.000 C 
ATOM     15  C   UNL     1       0.227   3.209  19.691  0.00  0.00    +0.000 C 
ATOM     16  C   UNL     1       0.991   3.546  20.972  0.00  0.00    +0.000 C 
ATOM     17  C   UNL     1       2.142   2.590  21.263  0.00  0.00    +0.000 C 
ENDBRANCH   3   8
BRANCH   1  20
ATOM     18  O   UNL     1       8.329   7.009  18.849  0.00  0.00    +0.000 OA
ATOM     19  C   UNL     1       7.982   7.666  17.869  0.00  0.00    +0.000 C 
ATOM     20  N   UNL     1       7.286   7.176  16.774  0.00  0.00    +0.000 N 
ATOM     21  H   UNL     1       7.229   7.756  15.944  0.00  0.00    +0.000 HD
BRANCH  19  22
ATOM     22  C   UNL     1       8.260   9.161  17.832  0.00  0.00    +0.000 C 
BRANCH  22  23
ATOM     23  O   UNL     1       8.593   9.644  19.122  0.00  0.00    +0.000 OA
BRANCH  23  24
ATOM     24  C   UNL     1       9.540  10.630  19.166  0.00  0.00    +0.000 A 
ATOM     25  C   UNL     1      10.225  11.061  20.311  0.00  0.00    +0.000 A 
ATOM     26  C   UNL     1      11.175  12.084  20.228  0.00  0.00    +0.000 A 
ATOM     27  C   UNL     1      11.449  12.680  18.999  0.00  0.00    +0.000 A 
ATOM     28  C   UNL     1      10.784  12.235  17.866  0.00  0.00    +0.000 A 
ATOM     29  F   UNL     1      11.053  12.803  16.683  0.00  0.00    +0.000 F 
ATOM     30  C   UNL     1       9.841  11.214  17.937  0.00  0.00    +0.000 A 
ENDBRANCH  23  24
ENDBRANCH  22  23
ENDBRANCH  19  22
ENDBRANCH   1  20
TORSDOF 5
ENDMDL
MODEL 5
REMARK VINA RESULT:      -9.2      6.578      9.000
REMARK  Name = 
REMARK  5 active torsions:
REMARK  status: ('A' for Active; 'I' for Inactive)
REMARK    1  A    between atoms: C_2  and  C_3
REMARK    2  A    between atoms: C_3  and  O_4
REMARK    3  A    between atoms: O_4  and  C_5
REMARK    4  A    between atoms: N_12  and  C_13
REMARK    5  A    between atoms: C_15  and  C_16
REMARK                            x       y       z     vdW  Elec       q    Type
REMARK                         _______ _______ _______ _____ _____    ______ ____
ROOT
ATOM      1  C   UNL     1       1.205   9.361  20.248  0.00  0.00    +0.000 A 
ATOM      2  C   UNL     1       1.921   8.162  20.234  0.00  0.00    +0.000 A 
ATOM      3  C   UNL     1       2.328   7.550  19.039  0.00  0.00    +0.000 A 
ATOM      4  C   UNL     1       2.097   8.223  17.834  0.00  0.00    +0.000 A 
ATOM      5  C   UNL     1       1.421   9.449  17.828  0.00  0.00    +0.000 A 
ATOM      6  C   UNL     1       0.962   9.993  19.027  0.00  0.00    +0.000 A 
ATOM      7  F   UNL     1       0.274  11.146  19.002  0.00  0.00    +0.000 F 
ENDROOT
BRANCH   3   8
ATOM      8  C   UNL     1       3.005   6.246  19.055  0.00  0.00    +0.000 A 
ATOM      9  N   UNL     1       4.114   5.963  18.398  0.00  0.00    +0.000 NA
ATOM     10  N   UNL     1       4.498   4.687  18.713  0.00  0.00    +0.000 NA
ATOM     11  C   UNL     1       3.610   4.176  19.540  0.00  0.00    +0.000 A 
ATOM     12  N   UNL     1       2.611   5.102  19.732  0.00  0.00    +0.000 N 
ATOM     13  C   UNL     1       1.373   4.901  20.462  0.00  0.00    +0.000 C 
ATOM     14  C   UNL     1       0.773   3.506  20.334  0.00  0.00    +0.000 C 
ATOM     15  C   UNL     1       1.420   2.473  21.252  0.00  0.00    +0.000 C 
ATOM     16  C   UNL     1       2.932   2.614  21.432  0.00  0.00    +0.000 C 
ATOM     17  C   UNL     1       3.685   2.805  20.121  0.00  0.00    +0.000 C 
ENDBRANCH   3   8
BRANCH   1  20
ATOM     18  O   UNL     1      -0.805   8.239  22.082  0.00  0.00    +0.000 OA
ATOM     19  C   UNL     1      -0.347   9.374  22.203  0.00  0.00    +0.000 C 
ATOM     20  N   UNL     1       0.673   9.918  21.437  0.00  0.00    +0.000 N 
ATOM     21  H   UNL     1       1.101  10.781  21.752  0.00  0.00    +0.000 HD
BRANCH  19  22
ATOM     22  C   UNL     1      -0.956  10.323  23.223  0.00  0.00    +0.000 C 
BRANCH  22  23
ATOM     23  O   UNL     1      -0.585  11.663  22.950  0.00  0.00    +0.000 OA
BRANCH  23  24
ATOM     24  C   UNL     1      -1.507  12.619  23.279  0.00  0.00    +0.000 A 
ATOM     25  C   UNL     1      -1.235  13.972  23.529  0.00  0.00    +0.000 A 
ATOM     26  C   UNL     1      -2.268  14.856  23.858  0.00  0.00    +0.000 A 
ATOM     27  C   UNL     1      -3.579  14.392  23.936  0.00  0.00    +0.000 A 
ATOM     28  C   UNL     1      -3.846  13.058  23.666  0.00  0.00    +0.000 A 
ATOM     29  F   UNL     1      -5.108  12.615  23.734  0.00  0.00    +0.000 F 
ATOM     30  C   UNL     1      -2.826  12.173  23.333  0.00  0.00    +0.000 A 
ENDBRANCH  23  24
ENDBRANCH  22  23
ENDBRANCH  19  22
ENDBRANCH   1  20
TORSDOF 5
ENDMDL
MODEL 6
REMARK VINA RESULT:      -9.1      1.020      1.143
REMARK  Name = 
REMARK  5 active torsions:
REMARK  status: ('A' for Active; 'I' for Inactive)
REMARK    1  A    between atoms: C_2  and  C_3
REMARK    2  A    between atoms: C_3  and  O_4
REMARK    3  A    between atoms: O_4  and  C_5
REMARK    4  A    between atoms: N_12  and  C_13
REMARK    5  A    between atoms: C_15  and  C_16
REMARK                            x       y       z     vdW  Elec       q    Type
REMARK                         _______ _______ _______ _____ _____    ______ ____
ROOT
ATOM      1  C   UNL     1       6.184   6.076  16.576  0.00  0.00    +0.000 A 
ATOM      2  C   UNL     1       4.994   5.632  17.157  0.00  0.00    +0.000 A 
ATOM      3  C   UNL     1       4.432   4.386  16.846  0.00  0.00    +0.000 A 
ATOM      4  C   UNL     1       5.147   3.523  16.007  0.00  0.00    +0.000 A 
ATOM      5  C   UNL     1       6.365   3.929  15.448  0.00  0.00    +0.000 A 
ATOM      6  C   UNL     1       6.859   5.206  15.718  0.00  0.00    +0.000 A 
ATOM      7  F   UNL     1       8.005   5.599  15.139  0.00  0.00    +0.000 F 
ENDROOT
BRANCH   3   8
ATOM      8  C   UNL     1       3.136   3.984  17.409  0.00  0.00    +0.000 A 
ATOM      9  N   UNL     1       2.054   3.720  16.700  0.00  0.00    +0.000 NA
ATOM     10  N   UNL     1       1.064   3.299  17.549  0.00  0.00    +0.000 NA
ATOM     11  C   UNL     1       1.529   3.332  18.780  0.00  0.00    +0.000 A 
ATOM     12  N   UNL     1       2.814   3.824  18.748  0.00  0.00    +0.000 N 
ATOM     13  C   UNL     1       3.645   4.150  19.892  0.00  0.00    +0.000 C 
ATOM     14  C   UNL     1       2.894   4.731  21.084  0.00  0.00    +0.000 C 
ATOM     15  C   UNL     1       2.208   3.678  21.950  0.00  0.00    +0.000 C 
ATOM     16  C   UNL     1       1.589   2.506  21.187  0.00  0.00    +0.000 C 
ATOM     17  C   UNL     1       0.752   2.935  19.989  0.00  0.00    +0.000 C 
ENDBRANCH   3   8
BRANCH   1  20
ATOM     18  O   UNL     1       8.208   7.000  18.503  0.00  0.00    +0.000 OA
ATOM     19  C   UNL     1       7.578   7.765  17.774  0.00  0.00    +0.000 C 
ATOM     20  N   UNL     1       6.692   7.383  16.778  0.00  0.00    +0.000 N 
ATOM     21  H   UNL     1       6.385   8.086  16.115  0.00  0.00    +0.000 HD
BRANCH  19  22
ATOM     22  C   UNL     1       7.698   9.267  17.981  0.00  0.00    +0.000 C 
BRANCH  22  23
ATOM     23  O   UNL     1       8.977   9.730  17.587  0.00  0.00    +0.000 OA
BRANCH  23  24
ATOM     24  C   UNL     1       9.579  10.621  18.434  0.00  0.00    +0.000 A 
ATOM     25  C   UNL     1       9.396  10.687  19.822  0.00  0.00    +0.000 A 
ATOM     26  C   UNL     1      10.071  11.647  20.583  0.00  0.00    +0.000 A 
ATOM     27  C   UNL     1      10.934  12.545  19.960  0.00  0.00    +0.000 A 
ATOM     28  C   UNL     1      11.129  12.461  18.589  0.00  0.00    +0.000 A 
ATOM     29  F   UNL     1      11.964  13.320  17.992  0.00  0.00    +0.000 F 
ATOM     30  C   UNL     1      10.466  11.506  17.825  0.00  0.00    +0.000 A 
ENDBRANCH  23  24
ENDBRANCH  22  23
ENDBRANCH  19  22
ENDBRANCH   1  20
TORSDOF 5
ENDMDL
MODEL 7
REMARK VINA RESULT:      -9.1      1.641      2.204
REMARK  Name = 
REMARK  5 active torsions:
REMARK  status: ('A' for Active; 'I' for Inactive)
REMARK    1  A    between atoms: C_2  and  C_3
REMARK    2  A    between atoms: C_3  and  O_4
REMARK    3  A    between atoms: O_4  and  C_5
REMARK    4  A    between atoms: N_12  and  C_13
REMARK    5  A    between atoms: C_15  and  C_16
REMARK                            x       y       z     vdW  Elec       q    Type
REMARK                         _______ _______ _______ _____ _____    ______ ____
ROOT
ATOM      1  C   UNL     1       6.605   5.847  16.674  0.00  0.00    +0.000 A 
ATOM      2  C   UNL     1       6.083   5.176  17.783  0.00  0.00    +0.000 A 
ATOM      3  C   UNL     1       5.353   3.985  17.658  0.00  0.00    +0.000 A 
ATOM      4  C   UNL     1       5.240   3.402  16.391  0.00  0.00    +0.000 A 
ATOM      5  C   UNL     1       5.794   4.033  15.271  0.00  0.00    +0.000 A 
ATOM      6  C   UNL     1       6.448   5.256  15.418  0.00  0.00    +0.000 A 
ATOM      7  F   UNL     1       6.935   5.873  14.329  0.00  0.00    +0.000 F 
ENDROOT
BRANCH   3   8
ATOM      8  C   UNL     1       4.745   3.350  18.835  0.00  0.00    +0.000 A 
ATOM      9  N   UNL     1       5.407   2.676  19.757  0.00  0.00    +0.000 NA
ATOM     10  N   UNL     1       4.532   2.303  20.743  0.00  0.00    +0.000 NA
ATOM     11  C   UNL     1       3.329   2.723  20.413  0.00  0.00    +0.000 A 
ATOM     12  N   UNL     1       3.402   3.332  19.181  0.00  0.00    +0.000 N 
ATOM     13  C   UNL     1       2.288   3.816  18.387  0.00  0.00    +0.000 C 
ATOM     14  C   UNL     1       1.023   2.971  18.477  0.00  0.00    +0.000 C 
ATOM     15  C   UNL     1       0.187   3.249  19.722  0.00  0.00    +0.000 C 
ATOM     16  C   UNL     1       0.984   3.522  20.998  0.00  0.00    +0.000 C 
ATOM     17  C   UNL     1       2.106   2.520  21.241  0.00  0.00    +0.000 C 
ENDBRANCH   3   8
BRANCH   1  20
ATOM     18  O   UNL     1       8.298   6.919  18.829  0.00  0.00    +0.000 OA
ATOM     19  C   UNL     1       7.934   7.591  17.866  0.00  0.00    +0.000 C 
ATOM     20  N   UNL     1       7.226   7.116  16.772  0.00  0.00    +0.000 N 
ATOM     21  H   UNL     1       7.154   7.709  15.953  0.00  0.00    +0.000 HD
BRANCH  19  22
ATOM     22  C   UNL     1       8.203   9.087  17.851  0.00  0.00    +0.000 C 
BRANCH  22  23
ATOM     23  O   UNL     1       9.006   9.466  18.955  0.00  0.00    +0.000 OA
BRANCH  23  24
ATOM     24  C   UNL     1       9.329  10.794  19.034  0.00  0.00    +0.000 A 
ATOM     25  C   UNL     1       9.416  11.684  17.955  0.00  0.00    +0.000 A 
ATOM     26  C   UNL     1       9.757  13.024  18.164  0.00  0.00    +0.000 A 
ATOM     27  C   UNL     1      10.011  13.482  19.455  0.00  0.00    +0.000 A 
ATOM     28  C   UNL     1       9.903  12.602  20.521  0.00  0.00    +0.000 A 
ATOM     29  F   UNL     1      10.140  13.045  21.763  0.00  0.00    +0.000 F 
ATOM     30  C   UNL     1       9.559  11.269  20.324  0.00  0.00    +0.000 A 
ENDBRANCH  23  24
ENDBRANCH  22  23
ENDBRANCH  19  22
ENDBRANCH   1  20
TORSDOF 5
ENDMDL
MODEL 8
REMARK VINA RESULT:      -9.1      6.103      9.015
REMARK  Name = 
REMARK  5 active torsions:
REMARK  status: ('A' for Active; 'I' for Inactive)
REMARK    1  A    between atoms: C_2  and  C_3
REMARK    2  A    between atoms: C_3  and  O_4
REMARK    3  A    between atoms: O_4  and  C_5
REMARK    4  A    between atoms: N_12  and  C_13
REMARK    5  A    between atoms: C_15  and  C_16
REMARK                            x       y       z     vdW  Elec       q    Type
REMARK                         _______ _______ _______ _____ _____    ______ ____
ROOT
ATOM      1  C   UNL     1       1.456   9.060  20.167  0.00  0.00    +0.000 A 
ATOM      2  C   UNL     1       2.035   7.831  19.842  0.00  0.00    +0.000 A 
ATOM      3  C   UNL     1       2.312   7.465  18.516  0.00  0.00    +0.000 A 
ATOM      4  C   UNL     1       2.094   8.407  17.505  0.00  0.00    +0.000 A 
ATOM      5  C   UNL     1       1.556   9.662  17.812  0.00  0.00    +0.000 A 
ATOM      6  C   UNL     1       1.221   9.968  19.132  0.00  0.00    +0.000 A 
ATOM      7  F   UNL     1       0.663  11.158  19.406  0.00  0.00    +0.000 F 
ENDROOT
BRANCH   3   8
ATOM      8  C   UNL     1       2.842   6.131  18.201  0.00  0.00    +0.000 A 
ATOM      9  N   UNL     1       2.278   4.992  18.554  0.00  0.00    +0.000 NA
ATOM     10  N   UNL     1       3.001   3.958  18.018  0.00  0.00    +0.000 NA
ATOM     11  C   UNL     1       4.025   4.463  17.361  0.00  0.00    +0.000 A 
ATOM     12  N   UNL     1       4.004   5.831  17.505  0.00  0.00    +0.000 N 
ATOM     13  C   UNL     1       5.019   6.765  17.056  0.00  0.00    +0.000 C 
ATOM     14  C   UNL     1       6.451   6.252  17.158  0.00  0.00    +0.000 C 
ATOM     15  C   UNL     1       6.858   5.337  16.006  0.00  0.00    +0.000 C 
ATOM     16  C   UNL     1       5.767   4.388  15.507  0.00  0.00    +0.000 C 
ATOM     17  C   UNL     1       5.040   3.655  16.627  0.00  0.00    +0.000 C 
ENDBRANCH   3   8
BRANCH   1  20
ATOM     18  O   UNL     1      -0.905   8.134  21.661  0.00  0.00    +0.000 OA
ATOM     19  C   UNL     1      -0.132   8.988  22.092  0.00  0.00    +0.000 C 
ATOM     20  N   UNL     1       1.049   9.388  21.483  0.00  0.00    +0.000 N 
ATOM     21  H   UNL     1       1.699   9.949  22.022  0.00  0.00    +0.000 HD
BRANCH  19  22
ATOM     22  C   UNL     1      -0.483   9.744  23.363  0.00  0.00    +0.000 C 
BRANCH  22  23
ATOM     23  O   UNL     1      -0.399  11.143  23.159  0.00  0.00    +0.000 OA
BRANCH  23  24
ATOM     24  C   UNL     1      -1.506  11.736  22.615  0.00  0.00    +0.000 A 
ATOM     25  C   UNL     1      -1.645  12.149  21.282  0.00  0.00    +0.000 A 
ATOM     26  C   UNL     1      -2.831  12.747  20.843  0.00  0.00    +0.000 A 
ATOM     27  C   UNL     1      -3.886  12.932  21.734  0.00  0.00    +0.000 A 
ATOM     28  C   UNL     1      -3.751  12.501  23.046  0.00  0.00    +0.000 A 
ATOM     29  F   UNL     1      -4.768  12.672  23.900  0.00  0.00    +0.000 F 
ATOM     30  C   UNL     1      -2.577  11.901  23.490  0.00  0.00    +0.000 A 
ENDBRANCH  23  24
ENDBRANCH  22  23
ENDBRANCH  19  22
ENDBRANCH   1  20
TORSDOF 5
ENDMDL
MODEL 9
REMARK VINA RESULT:      -9.0      5.884      8.498
REMARK  Name = 
REMARK  5 active torsions:
REMARK  status: ('A' for Active; 'I' for Inactive)
REMARK    1  A    between atoms: C_2  and  C_3
REMARK    2  A    between atoms: C_3  and  O_4
REMARK    3  A    between atoms: O_4  and  C_5
REMARK    4  A    between atoms: N_12  and  C_13
REMARK    5  A    between atoms: C_15  and  C_16
REMARK                            x       y       z     vdW  Elec       q    Type
REMARK                         _______ _______ _______ _____ _____    ______ ____
ROOT
ATOM      1  C   UNL     1       1.124   9.133  19.865  0.00  0.00    +0.000 A 
ATOM      2  C   UNL     1       1.805   7.918  19.968  0.00  0.00    +0.000 A 
ATOM      3  C   UNL     1       2.543   7.384  18.902  0.00  0.00    +0.000 A 
ATOM      4  C   UNL     1       2.682   8.149  17.738  0.00  0.00    +0.000 A 
ATOM      5  C   UNL     1       2.046   9.391  17.629  0.00  0.00    +0.000 A 
ATOM      6  C   UNL     1       1.256   9.859  18.679  0.00  0.00    +0.000 A 
ATOM      7  F   UNL     1       0.614  11.031  18.543  0.00  0.00    +0.000 F 
ENDROOT
BRANCH   3   8
ATOM      8  C   UNL     1       3.177   6.063  19.014  0.00  0.00    +0.000 A 
ATOM      9  N   UNL     1       4.311   5.718  18.433  0.00  0.00    +0.000 NA
ATOM     10  N   UNL     1       4.637   4.447  18.826  0.00  0.00    +0.000 NA
ATOM     11  C   UNL     1       3.691   4.002  19.626  0.00  0.00    +0.000 A 
ATOM     12  N   UNL     1       2.712   4.964  19.720  0.00  0.00    +0.000 N 
ATOM     13  C   UNL     1       1.431   4.833  20.389  0.00  0.00    +0.000 C 
ATOM     14  C   UNL     1       0.796   3.451  20.291  0.00  0.00    +0.000 C 
ATOM     15  C   UNL     1       1.360   2.445  21.290  0.00  0.00    +0.000 C 
ATOM     16  C   UNL     1       2.864   2.550  21.546  0.00  0.00    +0.000 C 
ATOM     17  C   UNL     1       3.692   2.658  20.272  0.00  0.00    +0.000 C 
ENDBRANCH   3   8
BRANCH   1  20
ATOM     18  O   UNL     1       1.703   9.569  22.717  0.00  0.00    +0.000 OA
ATOM     19  C   UNL     1       0.581   9.707  22.232  0.00  0.00    +0.000 C 
ATOM     20  N   UNL     1       0.268   9.618  20.884  0.00  0.00    +0.000 N 
ATOM     21  H   UNL     1      -0.643   9.943  20.581  0.00  0.00    +0.000 HD
BRANCH  19  22
ATOM     22  C   UNL     1      -0.609   9.936  23.151  0.00  0.00    +0.000 C 
BRANCH  22  23
ATOM     23  O   UNL     1      -0.708  11.300  23.520  0.00  0.00    +0.000 OA
BRANCH  23  24
ATOM     24  C   UNL     1      -1.737  12.001  22.954  0.00  0.00    +0.000 A 
ATOM     25  C   UNL     1      -3.037  12.111  23.468  0.00  0.00    +0.000 A 
ATOM     26  C   UNL     1      -4.007  12.860  22.794  0.00  0.00    +0.000 A 
ATOM     27  C   UNL     1      -3.682  13.507  21.604  0.00  0.00    +0.000 A 
ATOM     28  C   UNL     1      -2.389  13.413  21.112  0.00  0.00    +0.000 A 
ATOM     29  F   UNL     1      -2.074  14.041  19.971  0.00  0.00    +0.000 F 
ATOM     30  C   UNL     1      -1.415  12.675  21.777  0.00  0.00    +0.000 A 
ENDBRANCH  23  24
ENDBRANCH  22  23
ENDBRANCH  19  22
ENDBRANCH   1  20
TORSDOF 5
ENDMDL
