MODEL 1
REMARK VINA RESULT:      -8.7      0.000      0.000
REMARK  Name = 
REMARK  5 active torsions:
REMARK  status: ('A' for Active; 'I' for Inactive)
REMARK    1  A    between atoms: C_2  and  C_15
REMARK    2  A    between atoms: N_3  and  C_4
REMARK    3  A    between atoms: C_7  and  C_8
REMARK    4  A    between atoms: C_19  and  C_20
REMARK    5  A    between atoms: C_20  and  N_21
REMARK                            x       y       z     vdW  Elec       q    Type
REMARK                         _______ _______ _______ _____ _____    ______ ____
ROOT
ATOM      1  O   UNL     1       1.930   7.619  19.820  0.00  0.00    +0.000 OA
ATOM      2  C   UNL     1       2.287   7.752  18.656  0.00  0.00    +0.000 C 
ATOM      3  N   UNL     1       1.943   8.790  17.803  0.00  0.00    +0.000 N 
ATOM      4  H   UNL     1       1.949   8.566  16.817  0.00  0.00    +0.000 HD
ENDROOT
BRANCH   3   5
ATOM      5  C   UNL     1       1.010   9.752  18.221  0.00  0.00    +0.000 A 
ATOM      6  C   UNL     1       1.383  10.802  19.059  0.00  0.00    +0.000 A 
ATOM      7  C   UNL     1       0.411  11.662  19.560  0.00  0.00    +0.000 A 
ATOM      8  C   UNL     1      -0.939  11.457  19.255  0.00  0.00    +0.000 A 
ATOM      9  C   UNL     1      -1.296  10.424  18.375  0.00  0.00    +0.000 A 
ATOM     10  C   UNL     1      -0.319   9.589  17.835  0.00  0.00    +0.000 A 
BRANCH   8  11
ATOM     11  C   UNL     1      -1.941  12.310  19.881  0.00  0.00    +0.000 A 
ATOM     12  N   UNL     1      -1.772  13.044  20.967  0.00  0.00    +0.000 NA
ATOM     13  C   UNL     1      -2.982  13.629  21.221  0.00  0.00    +0.000 A 
ATOM     14  C   UNL     1      -3.914  13.242  20.291  0.00  0.00    +0.000 A 
ATOM     15  N   UNL     1      -3.243  12.399  19.450  0.00  0.00    +0.000 N 
ATOM     16  H   UNL     1      -3.635  11.887  18.672  0.00  0.00    +0.000 HD
ENDBRANCH   8  11
ENDBRANCH   3   5
BRANCH   2  17
ATOM     17  C   UNL     1       3.036   6.652  18.012  0.00  0.00    +0.000 A 
ATOM     18  C   UNL     1       4.350   6.909  17.616  0.00  0.00    +0.000 A 
ATOM     19  C   UNL     1       5.082   5.912  16.986  0.00  0.00    +0.000 A 
ATOM     20  C   UNL     1       4.504   4.658  16.775  0.00  0.00    +0.000 A 
ATOM     21  C   UNL     1       3.208   4.363  17.228  0.00  0.00    +0.000 A 
ATOM     22  C   UNL     1       2.459   5.391  17.817  0.00  0.00    +0.000 A 
BRANCH  21  23
ATOM     23  C   UNL     1       2.632   2.976  17.060  0.00  0.00    +0.000 C 
BRANCH  23  24
ATOM     24  N   UNL     1       2.418   2.186  18.274  0.00  0.00    +0.000 NA
ATOM     25  C   UNL     1       1.113   2.223  18.915  0.00  0.00    +0.000 C 
ATOM     26  C   UNL     1       0.906   3.347  19.910  0.00  0.00    +0.000 C 
ATOM     27  S   UNL     1       2.197   3.415  21.125  0.00  0.00    +0.000 S 
ATOM     28  O   UNL     1       2.244   4.776  21.629  0.00  0.00    +0.000 OA
ATOM     29  O   UNL     1       1.995   2.302  22.039  0.00  0.00    +0.000 OA
ATOM     30  C   UNL     1       3.699   3.113  20.234  0.00  0.00    +0.000 C 
ATOM     31  C   UNL     1       3.532   2.019  19.198  0.00  0.00    +0.000 C 
ENDBRANCH  23  24
ENDBRANCH  21  23
ENDBRANCH   2  17
TORSDOF 5
ENDMDL
MODEL 2
REMARK VINA RESULT:      -8.5      1.638      1.902
REMARK  Name = 
REMARK  5 active torsions:
REMARK  status: ('A' for Active; 'I' for Inactive)
REMARK    1  A    between atoms: C_2  and  C_15
REMARK    2  A    between atoms: N_3  and  C_4
REMARK    3  A    between atoms: C_7  and  C_8
REMARK    4  A    between atoms: C_19  and  C_20
REMARK    5  A    between atoms: C_20  and  N_21
REMARK                            x       y       z     vdW  Elec       q    Type
REMARK                         _______ _______ _______ _____ _____    ______ ____
ROOT
ATOM      1  O   UNL     1       2.769   8.630  17.584  0.00  0.00    +0.000 OA
ATOM      2  C   UNL     1       2.634   7.574  18.189  0.00  0.00    +0.000 C 
ATOM      3  N   UNL     1       1.972   7.395  19.394  0.00  0.00    +0.000 N 
ATOM      4  H   UNL     1       2.289   6.616  19.956  0.00  0.00    +0.000 HD
ENDROOT
BRANCH   3   5
ATOM      5  C   UNL     1       1.485   8.511  20.091  0.00  0.00    +0.000 A 
ATOM      6  C   UNL     1       1.377   8.504  21.481  0.00  0.00    +0.000 A 
ATOM      7  C   UNL     1       0.769   9.572  22.131  0.00  0.00    +0.000 A 
ATOM      8  C   UNL     1       0.237  10.637  21.395  0.00  0.00    +0.000 A 
ATOM      9  C   UNL     1       0.392  10.654  20.001  0.00  0.00    +0.000 A 
ATOM     10  C   UNL     1       1.040   9.606  19.351  0.00  0.00    +0.000 A 
BRANCH   8  11
ATOM     11  C   UNL     1      -0.486  11.688  22.099  0.00  0.00    +0.000 A 
ATOM     12  N   UNL     1      -0.139  12.962  22.170  0.00  0.00    +0.000 NA
ATOM     13  C   UNL     1      -1.070  13.563  22.973  0.00  0.00    +0.000 A 
ATOM     14  C   UNL     1      -1.994  12.650  23.415  0.00  0.00    +0.000 A 
ATOM     15  N   UNL     1      -1.609  11.462  22.860  0.00  0.00    +0.000 N 
ATOM     16  H   UNL     1      -2.037  10.559  23.012  0.00  0.00    +0.000 HD
ENDBRANCH   8  11
ENDBRANCH   3   5
BRANCH   2  17
ATOM     17  C   UNL     1       3.354   6.378  17.702  0.00  0.00    +0.000 A 
ATOM     18  C   UNL     1       4.688   6.537  17.320  0.00  0.00    +0.000 A 
ATOM     19  C   UNL     1       5.394   5.445  16.833  0.00  0.00    +0.000 A 
ATOM     20  C   UNL     1       4.771   4.198  16.751  0.00  0.00    +0.000 A 
ATOM     21  C   UNL     1       3.452   4.008  17.195  0.00  0.00    +0.000 A 
ATOM     22  C   UNL     1       2.731   5.126  17.636  0.00  0.00    +0.000 A 
BRANCH  21  23
ATOM     23  C   UNL     1       2.824   2.633  17.171  0.00  0.00    +0.000 C 
BRANCH  23  24
ATOM     24  N   UNL     1       2.529   2.008  18.462  0.00  0.00    +0.000 NA
ATOM     25  C   UNL     1       1.189   2.131  19.013  0.00  0.00    +0.000 C 
ATOM     26  C   UNL     1       0.935   3.375  19.841  0.00  0.00    +0.000 C 
ATOM     27  S   UNL     1       2.152   3.596  21.112  0.00  0.00    +0.000 S 
ATOM     28  O   UNL     1       2.184   5.010  21.438  0.00  0.00    +0.000 OA
ATOM     29  O   UNL     1       1.884   2.610  22.148  0.00  0.00    +0.000 OA
ATOM     30  C   UNL     1       3.701   3.177  20.360  0.00  0.00    +0.000 C 
ATOM     31  C   UNL     1       3.584   1.958  19.465  0.00  0.00    +0.000 C 
ENDBRANCH  23  24
ENDBRANCH  21  23
ENDBRANCH   2  17
TORSDOF 5
ENDMDL
MODEL 3
REMARK VINA RESULT:      -8.3      1.667      2.001
REMARK  Name = 
REMARK  5 active torsions:
REMARK  status: ('A' for Active; 'I' for Inactive)
REMARK    1  A    between atoms: C_2  and  C_15
REMARK    2  A    between atoms: N_3  and  C_4
REMARK    3  A    between atoms: C_7  and  C_8
REMARK    4  A    between atoms: C_19  and  C_20
REMARK    5  A    between atoms: C_20  and  N_21
REMARK                            x       y       z     vdW  Elec       q    Type
REMARK                         _______ _______ _______ _____ _____    ______ ____
ROOT
ATOM      1  O   UNL     1       2.743   8.679  17.465  0.00  0.00    +0.000 OA
ATOM      2  C   UNL     1       2.658   7.638  18.105  0.00  0.00    +0.000 C 
ATOM      3  N   UNL     1       1.935   7.447  19.273  0.00  0.00    +0.000 N 
ATOM      4  H   UNL     1       2.279   6.720  19.885  0.00  0.00    +0.000 HD
ENDROOT
BRANCH   3   5
ATOM      5  C   UNL     1       1.311   8.542  19.890  0.00  0.00    +0.000 A 
ATOM      6  C   UNL     1       0.802   9.600  19.138  0.00  0.00    +0.000 A 
ATOM      7  C   UNL     1       0.309  10.730  19.783  0.00  0.00    +0.000 A 
ATOM      8  C   UNL     1       0.351  10.821  21.179  0.00  0.00    +0.000 A 
ATOM      9  C   UNL     1       0.823   9.731  21.925  0.00  0.00    +0.000 A 
ATOM     10  C   UNL     1       1.277   8.580  21.283  0.00  0.00    +0.000 A 
BRANCH   8  11
ATOM     11  C   UNL     1      -0.076  12.059  21.817  0.00  0.00    +0.000 A 
ATOM     12  N   UNL     1       0.463  13.253  21.643  0.00  0.00    +0.000 NA
ATOM     13  C   UNL     1      -0.215  14.100  22.476  0.00  0.00    +0.000 A 
ATOM     14  C   UNL     1      -1.174  13.421  23.185  0.00  0.00    +0.000 A 
ATOM     15  N   UNL     1      -1.071  12.125  22.764  0.00  0.00    +0.000 N 
ATOM     16  H   UNL     1      -1.595  11.335  23.113  0.00  0.00    +0.000 HD
ENDBRANCH   8  11
ENDBRANCH   3   5
BRANCH   2  17
ATOM     17  C   UNL     1       3.506   6.492  17.715  0.00  0.00    +0.000 A 
ATOM     18  C   UNL     1       4.855   6.745  17.453  0.00  0.00    +0.000 A 
ATOM     19  C   UNL     1       5.682   5.701  17.060  0.00  0.00    +0.000 A 
ATOM     20  C   UNL     1       5.163   4.409  16.951  0.00  0.00    +0.000 A 
ATOM     21  C   UNL     1       3.826   4.128  17.276  0.00  0.00    +0.000 A 
ATOM     22  C   UNL     1       2.986   5.195  17.622  0.00  0.00    +0.000 A 
BRANCH  21  23
ATOM     23  C   UNL     1       3.305   2.709  17.228  0.00  0.00    +0.000 C 
BRANCH  23  24
ATOM     24  N   UNL     1       2.964   2.076  18.503  0.00  0.00    +0.000 NA
ATOM     25  C   UNL     1       1.570   2.032  18.916  0.00  0.00    +0.000 C 
ATOM     26  C   UNL     1       1.074   3.248  19.673  0.00  0.00    +0.000 C 
ATOM     27  S   UNL     1       2.117   3.652  21.050  0.00  0.00    +0.000 S 
ATOM     28  O   UNL     1       1.932   5.064  21.331  0.00  0.00    +0.000 OA
ATOM     29  O   UNL     1       1.875   2.661  22.087  0.00  0.00    +0.000 OA
ATOM     30  C   UNL     1       3.776   3.427  20.468  0.00  0.00    +0.000 C 
ATOM     31  C   UNL     1       3.909   2.186  19.607  0.00  0.00    +0.000 C 
ENDBRANCH  23  24
ENDBRANCH  21  23
ENDBRANCH   2  17
TORSDOF 5
ENDMDL
MODEL 4
REMARK VINA RESULT:      -8.1      3.422      4.359
REMARK  Name = 
REMARK  5 active torsions:
REMARK  status: ('A' for Active; 'I' for Inactive)
REMARK    1  A    between atoms: C_2  and  C_15
REMARK    2  A    between atoms: N_3  and  C_4
REMARK    3  A    between atoms: C_7  and  C_8
REMARK    4  A    between atoms: C_19  and  C_20
REMARK    5  A    between atoms: C_20  and  N_21
REMARK                            x       y       z     vdW  Elec       q    Type
REMARK                         _______ _______ _______ _____ _____    ______ ____
ROOT
ATOM      1  O   UNL     1       2.347   9.817  17.866  0.00  0.00    +0.000 OA
ATOM      2  C   UNL     1       1.619   9.280  18.691  0.00  0.00    +0.000 C 
ATOM      3  N   UNL     1       0.618   9.895  19.428  0.00  0.00    +0.000 N 
ATOM      4  H   UNL     1       0.405   9.466  20.319  0.00  0.00    +0.000 HD
ENDROOT
BRANCH   3   5
ATOM      5  C   UNL     1       0.450  11.286  19.346  0.00  0.00    +0.000 A 
ATOM      6  C   UNL     1      -0.465  11.852  18.461  0.00  0.00    +0.000 A 
ATOM      7  C   UNL     1      -0.514  13.234  18.309  0.00  0.00    +0.000 A 
ATOM      8  C   UNL     1       0.373  14.054  19.017  0.00  0.00    +0.000 A 
ATOM      9  C   UNL     1       1.258  13.475  19.938  0.00  0.00    +0.000 A 
ATOM     10  C   UNL     1       1.278  12.094  20.125  0.00  0.00    +0.000 A 
BRANCH   8  11
ATOM     11  C   UNL     1       0.367  15.487  18.756  0.00  0.00    +0.000 A 
ATOM     12  N   UNL     1       1.429  16.264  18.640  0.00  0.00    +0.000 NA
ATOM     13  C   UNL     1       0.953  17.533  18.457  0.00  0.00    +0.000 A 
ATOM     14  C   UNL     1      -0.419  17.545  18.474  0.00  0.00    +0.000 A 
ATOM     15  N   UNL     1      -0.780  16.242  18.672  0.00  0.00    +0.000 N 
ATOM     16  H   UNL     1      -1.719  15.887  18.787  0.00  0.00    +0.000 HD
ENDBRANCH   8  11
ENDBRANCH   3   5
BRANCH   2  17
ATOM     17  C   UNL     1       1.892   7.880  19.076  0.00  0.00    +0.000 A 
ATOM     18  C   UNL     1       1.605   7.502  20.390  0.00  0.00    +0.000 A 
ATOM     19  C   UNL     1       1.869   6.203  20.801  0.00  0.00    +0.000 A 
ATOM     20  C   UNL     1       2.396   5.283  19.893  0.00  0.00    +0.000 A 
ATOM     21  C   UNL     1       2.626   5.628  18.551  0.00  0.00    +0.000 A 
ATOM     22  C   UNL     1       2.406   6.955  18.159  0.00  0.00    +0.000 A 
BRANCH  21  23
ATOM     23  C   UNL     1       3.123   4.594  17.566  0.00  0.00    +0.000 C 
BRANCH  23  24
ATOM     24  N   UNL     1       4.423   3.979  17.837  0.00  0.00    +0.000 NA
ATOM     25  C   UNL     1       5.316   4.615  18.792  0.00  0.00    +0.000 C 
ATOM     26  C   UNL     1       6.223   5.688  18.225  0.00  0.00    +0.000 C 
ATOM     27  S   UNL     1       7.130   5.122  16.810  0.00  0.00    +0.000 S 
ATOM     28  O   UNL     1       7.483   6.292  16.027  0.00  0.00    +0.000 OA
ATOM     29  O   UNL     1       8.166   4.220  17.287  0.00  0.00    +0.000 OA
ATOM     30  C   UNL     1       5.977   4.164  15.864  0.00  0.00    +0.000 C 
ATOM     31  C   UNL     1       5.106   3.293  16.748  0.00  0.00    +0.000 C 
ENDBRANCH  23  24
ENDBRANCH  21  23
ENDBRANCH   2  17
TORSDOF 5
ENDMDL
MODEL 5
REMARK VINA RESULT:      -8.1      3.700      4.638
REMARK  Name = 
REMARK  5 active torsions:
REMARK  status: ('A' for Active; 'I' for Inactive)
REMARK    1  A    between atoms: C_2  and  C_15
REMARK    2  A    between atoms: N_3  and  C_4
REMARK    3  A    between atoms: C_7  and  C_8
REMARK    4  A    between atoms: C_19  and  C_20
REMARK    5  A    between atoms: C_20  and  N_21
REMARK                            x       y       z     vdW  Elec       q    Type
REMARK                         _______ _______ _______ _____ _____    ______ ____
ROOT
ATOM      1  O   UNL     1       1.934  10.182  17.416  0.00  0.00    +0.000 OA
ATOM      2  C   UNL     1       1.554   9.869  18.537  0.00  0.00    +0.000 C 
ATOM      3  N   UNL     1       1.019  10.721  19.492  0.00  0.00    +0.000 N 
ATOM      4  H   UNL     1       1.145  10.432  20.454  0.00  0.00    +0.000 HD
ENDROOT
BRANCH   3   5
ATOM      5  C   UNL     1       0.991  12.102  19.252  0.00  0.00    +0.000 A 
ATOM      6  C   UNL     1       2.036  12.928  19.663  0.00  0.00    +0.000 A 
ATOM      7  C   UNL     1       1.918  14.308  19.528  0.00  0.00    +0.000 A 
ATOM      8  C   UNL     1       0.745  14.870  19.013  0.00  0.00    +0.000 A 
ATOM      9  C   UNL     1      -0.281  14.026  18.561  0.00  0.00    +0.000 A 
ATOM     10  C   UNL     1      -0.147  12.642  18.654  0.00  0.00    +0.000 A 
BRANCH   8  11
ATOM     11  C   UNL     1       0.612  16.321  18.983  0.00  0.00    +0.000 A 
ATOM     12  N   UNL     1       1.591  17.191  18.802  0.00  0.00    +0.000 NA
ATOM     13  C   UNL     1       1.021  18.430  18.906  0.00  0.00    +0.000 A 
ATOM     14  C   UNL     1      -0.322  18.326  19.170  0.00  0.00    +0.000 A 
ATOM     15  N   UNL     1      -0.568  16.983  19.224  0.00  0.00    +0.000 N 
ATOM     16  H   UNL     1      -1.449  16.541  19.448  0.00  0.00    +0.000 HD
ENDBRANCH   8  11
ENDBRANCH   3   5
BRANCH   2  17
ATOM     17  C   UNL     1       1.802   8.492  19.014  0.00  0.00    +0.000 A 
ATOM     18  C   UNL     1       1.448   8.189  20.330  0.00  0.00    +0.000 A 
ATOM     19  C   UNL     1       1.686   6.914  20.826  0.00  0.00    +0.000 A 
ATOM     20  C   UNL     1       2.257   5.944  19.998  0.00  0.00    +0.000 A 
ATOM     21  C   UNL     1       2.556   6.214  18.653  0.00  0.00    +0.000 A 
ATOM     22  C   UNL     1       2.360   7.518  18.176  0.00  0.00    +0.000 A 
BRANCH  21  23
ATOM     23  C   UNL     1       3.099   5.128  17.753  0.00  0.00    +0.000 C 
BRANCH  23  24
ATOM     24  N   UNL     1       4.388   4.536  18.118  0.00  0.00    +0.000 NA
ATOM     25  C   UNL     1       5.416   5.390  18.692  0.00  0.00    +0.000 C 
ATOM     26  C   UNL     1       6.308   6.100  17.694  0.00  0.00    +0.000 C 
ATOM     27  S   UNL     1       7.017   4.982  16.513  0.00  0.00    +0.000 S 
ATOM     28  O   UNL     1       7.341   5.755  15.328  0.00  0.00    +0.000 OA
ATOM     29  O   UNL     1       8.052   4.223  17.198  0.00  0.00    +0.000 OA
ATOM     30  C   UNL     1       5.716   3.856  16.089  0.00  0.00    +0.000 C 
ATOM     31  C   UNL     1       4.906   3.445  17.304  0.00  0.00    +0.000 C 
ENDBRANCH  23  24
ENDBRANCH  21  23
ENDBRANCH   2  17
TORSDOF 5
ENDMDL
MODEL 6
REMARK VINA RESULT:      -7.9      3.026      3.928
REMARK  Name = 
REMARK  5 active torsions:
REMARK  status: ('A' for Active; 'I' for Inactive)
REMARK    1  A    between atoms: C_2  and  C_15
REMARK    2  A    between atoms: N_3  and  C_4
REMARK    3  A    between atoms: C_7  and  C_8
REMARK    4  A    between atoms: C_19  and  C_20
REMARK    5  A    between atoms: C_20  and  N_21
REMARK                            x       y       z     vdW  Elec       q    Type
REMARK                         _______ _______ _______ _____ _____    ______ ____
ROOT
ATOM      1  O   UNL     1       1.592   9.034  21.015  0.00  0.00    +0.000 OA
ATOM      2  C   UNL     1       1.689   8.535  19.901  0.00  0.00    +0.000 C 
ATOM      3  N   UNL     1       1.538   9.193  18.689  0.00  0.00    +0.000 N 
ATOM      4  H   UNL     1       1.234   8.617  17.915  0.00  0.00    +0.000 HD
ENDROOT
BRANCH   3   5
ATOM      5  C   UNL     1       1.123  10.533  18.673  0.00  0.00    +0.000 A 
ATOM      6  C   UNL     1       2.036  11.569  18.482  0.00  0.00    +0.000 A 
ATOM      7  C   UNL     1       1.616  12.889  18.602  0.00  0.00    +0.000 A 
ATOM      8  C   UNL     1       0.290  13.180  18.946  0.00  0.00    +0.000 A 
ATOM      9  C   UNL     1      -0.628  12.130  19.093  0.00  0.00    +0.000 A 
ATOM     10  C   UNL     1      -0.220  10.808  18.928  0.00  0.00    +0.000 A 
BRANCH   8  11
ATOM     11  C   UNL     1      -0.091  14.569  19.168  0.00  0.00    +0.000 A 
ATOM     12  N   UNL     1       0.675  15.629  18.976  0.00  0.00    +0.000 NA
ATOM     13  C   UNL     1      -0.070  16.710  19.363  0.00  0.00    +0.000 A 
ATOM     14  C   UNL     1      -1.304  16.313  19.814  0.00  0.00    +0.000 A 
ATOM     15  N   UNL     1      -1.303  14.952  19.693  0.00  0.00    +0.000 N 
ATOM     16  H   UNL     1      -2.039  14.321  19.979  0.00  0.00    +0.000 HD
ENDBRANCH   8  11
ENDBRANCH   3   5
BRANCH   2  17
ATOM     17  C   UNL     1       1.837   7.069  19.789  0.00  0.00    +0.000 A 
ATOM     18  C   UNL     1       1.317   6.286  20.822  0.00  0.00    +0.000 A 
ATOM     19  C   UNL     1       1.455   4.905  20.769  0.00  0.00    +0.000 A 
ATOM     20  C   UNL     1       2.091   4.314  19.675  0.00  0.00    +0.000 A 
ATOM     21  C   UNL     1       2.558   5.083  18.597  0.00  0.00    +0.000 A 
ATOM     22  C   UNL     1       2.461   6.479  18.683  0.00  0.00    +0.000 A 
BRANCH  21  23
ATOM     23  C   UNL     1       3.172   4.417  17.387  0.00  0.00    +0.000 C 
BRANCH  23  24
ATOM     24  N   UNL     1       4.484   3.789  17.560  0.00  0.00    +0.000 NA
ATOM     25  C   UNL     1       5.331   4.222  18.660  0.00  0.00    +0.000 C 
ATOM     26  C   UNL     1       6.218   5.416  18.372  0.00  0.00    +0.000 C 
ATOM     27  S   UNL     1       7.180   5.197  16.897  0.00  0.00    +0.000 S 
ATOM     28  O   UNL     1       7.517   6.519  16.402  0.00  0.00    +0.000 OA
ATOM     29  O   UNL     1       8.231   4.238  17.200  0.00  0.00    +0.000 OA
ATOM     30  C   UNL     1       6.084   4.441  15.727  0.00  0.00    +0.000 C 
ATOM     31  C   UNL     1       5.217   3.376  16.370  0.00  0.00    +0.000 C 
ENDBRANCH  23  24
ENDBRANCH  21  23
ENDBRANCH   2  17
TORSDOF 5
ENDMDL
MODEL 7
REMARK VINA RESULT:      -7.8      3.169      4.083
REMARK  Name = 
REMARK  5 active torsions:
REMARK  status: ('A' for Active; 'I' for Inactive)
REMARK    1  A    between atoms: C_2  and  C_15
REMARK    2  A    between atoms: N_3  and  C_4
REMARK    3  A    between atoms: C_7  and  C_8
REMARK    4  A    between atoms: C_19  and  C_20
REMARK    5  A    between atoms: C_20  and  N_21
REMARK                            x       y       z     vdW  Elec       q    Type
REMARK                         _______ _______ _______ _____ _____    ______ ____
ROOT
ATOM      1  O   UNL     1       2.191   9.343  17.329  0.00  0.00    +0.000 OA
ATOM      2  C   UNL     1       1.656   8.975  18.367  0.00  0.00    +0.000 C 
ATOM      3  N   UNL     1       0.899   9.759  19.225  0.00  0.00    +0.000 N 
ATOM      4  H   UNL     1       0.885   9.461  20.191  0.00  0.00    +0.000 HD
ENDROOT
BRANCH   3   5
ATOM      5  C   UNL     1       0.794  11.139  18.994  0.00  0.00    +0.000 A 
ATOM      6  C   UNL     1       1.793  12.018  19.410  0.00  0.00    +0.000 A 
ATOM      7  C   UNL     1       1.599  13.390  19.285  0.00  0.00    +0.000 A 
ATOM      8  C   UNL     1       0.396  13.890  18.774  0.00  0.00    +0.000 A 
ATOM      9  C   UNL     1      -0.582  12.995  18.317  0.00  0.00    +0.000 A 
ATOM     10  C   UNL     1      -0.372  11.619  18.400  0.00  0.00    +0.000 A 
BRANCH   8  11
ATOM     11  C   UNL     1       0.185  15.332  18.755  0.00  0.00    +0.000 A 
ATOM     12  N   UNL     1       1.121  16.257  18.638  0.00  0.00    +0.000 NA
ATOM     13  C   UNL     1       0.477  17.461  18.725  0.00  0.00    +0.000 A 
ATOM     14  C   UNL     1      -0.870  17.279  18.913  0.00  0.00    +0.000 A 
ATOM     15  N   UNL     1      -1.043  15.924  18.938  0.00  0.00    +0.000 N 
ATOM     16  H   UNL     1      -1.908  15.430  19.108  0.00  0.00    +0.000 HD
ENDBRANCH   8  11
ENDBRANCH   3   5
BRANCH   2  17
ATOM     17  C   UNL     1       1.937   7.613  18.868  0.00  0.00    +0.000 A 
ATOM     18  C   UNL     1       1.777   7.381  20.235  0.00  0.00    +0.000 A 
ATOM     19  C   UNL     1       2.053   6.122  20.752  0.00  0.00    +0.000 A 
ATOM     20  C   UNL     1       2.466   5.098  19.896  0.00  0.00    +0.000 A 
ATOM     21  C   UNL     1       2.566   5.298  18.510  0.00  0.00    +0.000 A 
ATOM     22  C   UNL     1       2.335   6.584  18.005  0.00  0.00    +0.000 A 
BRANCH  21  23
ATOM     23  C   UNL     1       2.938   4.155  17.593  0.00  0.00    +0.000 C 
BRANCH  23  24
ATOM     24  N   UNL     1       4.363   3.867  17.424  0.00  0.00    +0.000 NA
ATOM     25  C   UNL     1       5.273   4.151  18.522  0.00  0.00    +0.000 C 
ATOM     26  C   UNL     1       5.820   5.564  18.568  0.00  0.00    +0.000 C 
ATOM     27  S   UNL     1       6.538   6.057  17.023  0.00  0.00    +0.000 S 
ATOM     28  O   UNL     1       6.493   7.507  16.969  0.00  0.00    +0.000 OA
ATOM     29  O   UNL     1       7.807   5.358  16.889  0.00  0.00    +0.000 OA
ATOM     30  C   UNL     1       5.446   5.432  15.775  0.00  0.00    +0.000 C 
ATOM     31  C   UNL     1       4.952   4.036  16.102  0.00  0.00    +0.000 C 
ENDBRANCH  23  24
ENDBRANCH  21  23
ENDBRANCH   2  17
TORSDOF 5
ENDMDL
MODEL 8
REMARK VINA RESULT:      -7.8      7.642     11.551
REMARK  Name = 
REMARK  5 active torsions:
REMARK  status: ('A' for Active; 'I' for Inactive)
REMARK    1  A    between atoms: C_2  and  C_15
REMARK    2  A    between atoms: N_3  and  C_4
REMARK    3  A    between atoms: C_7  and  C_8
REMARK    4  A    between atoms: C_19  and  C_20
REMARK    5  A    between atoms: C_20  and  N_21
REMARK                            x       y       z     vdW  Elec       q    Type
REMARK                         _______ _______ _______ _____ _____    ______ ____
ROOT
ATOM      1  O   UNL     1       7.645   9.602  17.599  0.00  0.00    +0.000 OA
ATOM      2  C   UNL     1       8.577   9.271  18.321  0.00  0.00    +0.000 C 
ATOM      3  N   UNL     1       8.850   7.990  18.776  0.00  0.00    +0.000 N 
ATOM      4  H   UNL     1       9.356   7.936  19.650  0.00  0.00    +0.000 HD
ENDROOT
BRANCH   3   5
ATOM      5  C   UNL     1       7.946   6.951  18.510  0.00  0.00    +0.000 A 
ATOM      6  C   UNL     1       7.262   6.883  17.297  0.00  0.00    +0.000 A 
ATOM      7  C   UNL     1       6.276   5.918  17.115  0.00  0.00    +0.000 A 
ATOM      8  C   UNL     1       5.947   5.039  18.154  0.00  0.00    +0.000 A 
ATOM      9  C   UNL     1       6.673   5.089  19.353  0.00  0.00    +0.000 A 
ATOM     10  C   UNL     1       7.692   6.026  19.521  0.00  0.00    +0.000 A 
BRANCH   8  11
ATOM     11  C   UNL     1       4.839   4.112  17.967  0.00  0.00    +0.000 A 
ATOM     12  N   UNL     1       3.760   4.322  17.233  0.00  0.00    +0.000 NA
ATOM     13  C   UNL     1       2.971   3.216  17.394  0.00  0.00    +0.000 A 
ATOM     14  C   UNL     1       3.560   2.318  18.248  0.00  0.00    +0.000 A 
ATOM     15  N   UNL     1       4.742   2.901  18.611  0.00  0.00    +0.000 N 
ATOM     16  H   UNL     1       5.414   2.539  19.274  0.00  0.00    +0.000 HD
ENDBRANCH   8  11
ENDBRANCH   3   5
BRANCH   2  17
ATOM     17  C   UNL     1       9.433  10.325  18.905  0.00  0.00    +0.000 A 
ATOM     18  C   UNL     1       9.390  10.500  20.289  0.00  0.00    +0.000 A 
ATOM     19  C   UNL     1      10.160  11.495  20.877  0.00  0.00    +0.000 A 
ATOM     20  C   UNL     1      10.984  12.294  20.081  0.00  0.00    +0.000 A 
ATOM     21  C   UNL     1      11.089  12.086  18.696  0.00  0.00    +0.000 A 
ATOM     22  C   UNL     1      10.270  11.114  18.106  0.00  0.00    +0.000 A 
BRANCH  21  23
ATOM     23  C   UNL     1      12.047  12.909  17.866  0.00  0.00    +0.000 C 
BRANCH  23  24
ATOM     24  N   UNL     1      11.673  14.298  17.591  0.00  0.00    +0.000 NA
ATOM     25  C   UNL     1      12.325  15.362  18.339  0.00  0.00    +0.000 C 
ATOM     26  C   UNL     1      11.686  15.715  19.666  0.00  0.00    +0.000 C 
ATOM     27  S   UNL     1       9.949  16.041  19.509  0.00  0.00    +0.000 S 
ATOM     28  O   UNL     1       9.344  15.794  20.806  0.00  0.00    +0.000 OA
ATOM     29  O   UNL     1       9.805  17.339  18.869  0.00  0.00    +0.000 OA
ATOM     30  C   UNL     1       9.339  14.815  18.383  0.00  0.00    +0.000 C 
ATOM     31  C   UNL     1      10.293  14.586  17.226  0.00  0.00    +0.000 C 
ENDBRANCH  23  24
ENDBRANCH  21  23
ENDBRANCH   2  17
TORSDOF 5
ENDMDL
MODEL 9
REMARK VINA RESULT:      -7.7      2.492      4.002
REMARK  Name = 
REMARK  5 active torsions:
REMARK  status: ('A' for Active; 'I' for Inactive)
REMARK    1  A    between atoms: C_2  and  C_15
REMARK    2  A    between atoms: N_3  and  C_4
REMARK    3  A    between atoms: C_7  and  C_8
REMARK    4  A    between atoms: C_19  and  C_20
REMARK    5  A    between atoms: C_20  and  N_21
REMARK                            x       y       z     vdW  Elec       q    Type
REMARK                         _______ _______ _______ _____ _____    ______ ____
ROOT
ATOM      1  O   UNL     1      -0.497   9.790  21.697  0.00  0.00    +0.000 OA
ATOM      2  C   UNL     1       0.090  10.315  20.758  0.00  0.00    +0.000 C 
ATOM      3  N   UNL     1      -0.033  11.632  20.343  0.00  0.00    +0.000 N 
ATOM      4  H   UNL     1       0.160  11.802  19.365  0.00  0.00    +0.000 HD
ENDROOT
BRANCH   3   5
ATOM      5  C   UNL     1      -0.990  12.463  20.946  0.00  0.00    +0.000 A 
ATOM      6  C   UNL     1      -0.723  13.119  22.146  0.00  0.00    +0.000 A 
ATOM      7  C   UNL     1      -1.735  13.828  22.785  0.00  0.00    +0.000 A 
ATOM      8  C   UNL     1      -3.026  13.858  22.244  0.00  0.00    +0.000 A 
ATOM      9  C   UNL     1      -3.270  13.232  21.013  0.00  0.00    +0.000 A 
ATOM     10  C   UNL     1      -2.247  12.558  20.349  0.00  0.00    +0.000 A 
BRANCH   8  11
ATOM     11  C   UNL     1      -4.087  14.521  22.991  0.00  0.00    +0.000 A 
ATOM     12  N   UNL     1      -5.373  14.219  22.955  0.00  0.00    +0.000 NA
ATOM     13  C   UNL     1      -5.999  15.129  23.762  0.00  0.00    +0.000 A 
ATOM     14  C   UNL     1      -5.093  16.013  24.291  0.00  0.00    +0.000 A 
ATOM     15  N   UNL     1      -3.884  15.622  23.789  0.00  0.00    +0.000 N 
ATOM     16  H   UNL     1      -2.995  16.081  23.932  0.00  0.00    +0.000 HD
ENDBRANCH   8  11
ENDBRANCH   3   5
BRANCH   2  17
ATOM     17  C   UNL     1       0.907   9.465  19.867  0.00  0.00    +0.000 A 
ATOM     18  C   UNL     1       1.150   9.931  18.573  0.00  0.00    +0.000 A 
ATOM     19  C   UNL     1       1.892   9.153  17.694  0.00  0.00    +0.000 A 
ATOM     20  C   UNL     1       2.405   7.926  18.119  0.00  0.00    +0.000 A 
ATOM     21  C   UNL     1       2.227   7.475  19.438  0.00  0.00    +0.000 A 
ATOM     22  C   UNL     1       1.434   8.242  20.301  0.00  0.00    +0.000 A 
BRANCH  21  23
ATOM     23  C   UNL     1       2.858   6.182  19.900  0.00  0.00    +0.000 C 
BRANCH  23  24
ATOM     24  N   UNL     1       2.629   4.992  19.078  0.00  0.00    +0.000 NA
ATOM     25  C   UNL     1       1.858   3.891  19.634  0.00  0.00    +0.000 C 
ATOM     26  C   UNL     1       2.649   2.878  20.436  0.00  0.00    +0.000 C 
ATOM     27  S   UNL     1       4.053   2.263  19.543  0.00  0.00    +0.000 S 
ATOM     28  O   UNL     1       5.018   1.798  20.522  0.00  0.00    +0.000 OA
ATOM     29  O   UNL     1       3.555   1.359  18.518  0.00  0.00    +0.000 OA
ATOM     30  C   UNL     1       4.746   3.674  18.724  0.00  0.00    +0.000 C 
ATOM     31  C   UNL     1       3.673   4.578  18.150  0.00  0.00    +0.000 C 
ENDBRANCH  23  24
ENDBRANCH  21  23
ENDBRANCH   2  17
TORSDOF 5
ENDMDL
