MODEL 1
REMARK VINA RESULT:      -9.3      0.000      0.000
REMARK  Name = 
REMARK  5 active torsions:
REMARK  status: ('A' for Active; 'I' for Inactive)
REMARK    1  A    between atoms: C_2  and  C_14
REMARK    2  A    between atoms: N_3  and  C_4
REMARK    3  A    between atoms: C_4  and  C_5
REMARK    4  A    between atoms: C_19  and  C_20
REMARK    5  A    between atoms: C_23  and  C_24
REMARK                            x       y       z     vdW  Elec       q    Type
REMARK                         _______ _______ _______ _____ _____    ______ ____
ROOT
ATOM      1  C   UNL     1       2.496   4.679  18.808  0.00  0.00    +0.000 A 
ATOM      2  C   UNL     1       1.371   4.287  19.550  0.00  0.00    +0.000 A 
ATOM      3  C   UNL     1       0.853   2.998  19.419  0.00  0.00    +0.000 A 
ATOM      4  C   UNL     1       1.430   2.108  18.518  0.00  0.00    +0.000 A 
ATOM      5  C   UNL     1       2.582   2.474  17.822  0.00  0.00    +0.000 A 
ATOM      6  C   UNL     1       3.174   3.736  18.021  0.00  0.00    +0.000 A 
ENDROOT
BRANCH   6   7
ATOM      7  C   UNL     1       4.499   3.965  17.469  0.00  0.00    +0.000 A 
ATOM      8  N   UNL     1       5.639   4.167  18.094  0.00  0.00    +0.000 NA
ATOM      9  C   UNL     1       6.535   4.343  17.079  0.00  0.00    +0.000 A 
ATOM     10  C   UNL     1       5.917   4.236  15.852  0.00  0.00    +0.000 A 
ATOM     11  O   UNL     1       4.590   4.027  16.102  0.00  0.00    +0.000 OA
BRANCH  10  12
ATOM     12  C   UNL     1       6.358   4.301  14.467  0.00  0.00    +0.000 A 
ATOM     13  C   UNL     1       5.722   3.483  13.517  0.00  0.00    +0.000 A 
ATOM     14  C   UNL     1       6.120   3.485  12.181  0.00  0.00    +0.000 A 
ATOM     15  C   UNL     1       7.163   4.304  11.766  0.00  0.00    +0.000 A 
ATOM     16  C   UNL     1       7.801   5.135  12.694  0.00  0.00    +0.000 A 
ATOM     17  C   UNL     1       7.400   5.132  14.036  0.00  0.00    +0.000 A 
ENDBRANCH  10  12
ENDBRANCH   6   7
BRANCH   1  19
ATOM     18  O   UNL     1       3.694   6.495  19.709  0.00  0.00    +0.000 OA
ATOM     19  C   UNL     1       2.876   6.118  18.871  0.00  0.00    +0.000 C 
ATOM     20  N   UNL     1       2.215   6.971  18.015  0.00  0.00    +0.000 N 
ATOM     21  H   UNL     1       1.586   6.612  17.310  0.00  0.00    +0.000 HD
BRANCH  20  22
ATOM     22  C   UNL     1       2.487   8.383  17.972  0.00  0.00    +0.000 C 
BRANCH  22  23
ATOM     23  C   UNL     1       1.395   9.151  18.673  0.00  0.00    +0.000 A 
ATOM     24  C   UNL     1       1.227   9.009  20.071  0.00  0.00    +0.000 A 
ATOM     25  C   UNL     1       0.247   9.732  20.757  0.00  0.00    +0.000 A 
ATOM     26  C   UNL     1      -0.560  10.571  20.020  0.00  0.00    +0.000 A 
ATOM     27  C   UNL     1      -0.424  10.695  18.658  0.00  0.00    +0.000 A 
ATOM     28  C   UNL     1       0.534   9.996  17.954  0.00  0.00    +0.000 A 
ATOM     29  O   UNL     1      -1.314  11.575  18.124  0.00  0.00    +0.000 OA
ATOM     30  C   UNL     1      -2.045  11.967  19.305  0.00  0.00    +0.000 C 
ATOM     31  O   UNL     1      -1.551  11.358  20.516  0.00  0.00    +0.000 OA
ENDBRANCH  22  23
ENDBRANCH  20  22
ENDBRANCH   1  19
TORSDOF 5
ENDMDL
MODEL 2
REMARK VINA RESULT:      -9.3      0.689      1.365
REMARK  Name = 
REMARK  5 active torsions:
REMARK  status: ('A' for Active; 'I' for Inactive)
REMARK    1  A    between atoms: C_2  and  C_14
REMARK    2  A    between atoms: N_3  and  C_4
REMARK    3  A    between atoms: C_4  and  C_5
REMARK    4  A    between atoms: C_19  and  C_20
REMARK    5  A    between atoms: C_23  and  C_24
REMARK                            x       y       z     vdW  Elec       q    Type
REMARK                         _______ _______ _______ _____ _____    ______ ____
ROOT
ATOM      1  C   UNL     1       2.434   4.745  18.856  0.00  0.00    +0.000 A 
ATOM      2  C   UNL     1       1.314   4.357  19.609  0.00  0.00    +0.000 A 
ATOM      3  C   UNL     1       0.807   3.062  19.502  0.00  0.00    +0.000 A 
ATOM      4  C   UNL     1       1.388   2.160  18.616  0.00  0.00    +0.000 A 
ATOM      5  C   UNL     1       2.534   2.522  17.910  0.00  0.00    +0.000 A 
ATOM      6  C   UNL     1       3.117   3.792  18.084  0.00  0.00    +0.000 A 
ENDROOT
BRANCH   6   7
ATOM      7  C   UNL     1       4.438   4.022  17.524  0.00  0.00    +0.000 A 
ATOM      8  N   UNL     1       5.576   4.257  18.141  0.00  0.00    +0.000 NA
ATOM      9  C   UNL     1       6.469   4.415  17.119  0.00  0.00    +0.000 A 
ATOM     10  C   UNL     1       5.851   4.262  15.897  0.00  0.00    +0.000 A 
ATOM     11  O   UNL     1       4.527   4.044  16.155  0.00  0.00    +0.000 OA
BRANCH  10  12
ATOM     12  C   UNL     1       6.290   4.291  14.510  0.00  0.00    +0.000 A 
ATOM     13  C   UNL     1       5.627   3.478  13.575  0.00  0.00    +0.000 A 
ATOM     14  C   UNL     1       6.020   3.445  12.239  0.00  0.00    +0.000 A 
ATOM     15  C   UNL     1       7.087   4.225  11.807  0.00  0.00    +0.000 A 
ATOM     16  C   UNL     1       7.752   5.051  12.720  0.00  0.00    +0.000 A 
ATOM     17  C   UNL     1       7.355   5.083  14.063  0.00  0.00    +0.000 A 
ENDBRANCH  10  12
ENDBRANCH   6   7
BRANCH   1  19
ATOM     18  O   UNL     1       3.589   6.594  19.745  0.00  0.00    +0.000 OA
ATOM     19  C   UNL     1       2.803   6.187  18.891  0.00  0.00    +0.000 C 
ATOM     20  N   UNL     1       2.166   7.011  17.990  0.00  0.00    +0.000 N 
ATOM     21  H   UNL     1       1.562   6.628  17.275  0.00  0.00    +0.000 HD
BRANCH  20  22
ATOM     22  C   UNL     1       2.430   8.423  17.916  0.00  0.00    +0.000 C 
BRANCH  22  23
ATOM     23  C   UNL     1       1.409   9.192  18.717  0.00  0.00    +0.000 A 
ATOM     24  C   UNL     1       0.285   9.753  18.065  0.00  0.00    +0.000 A 
ATOM     25  C   UNL     1      -0.696  10.443  18.782  0.00  0.00    +0.000 A 
ATOM     26  C   UNL     1      -0.519  10.573  20.143  0.00  0.00    +0.000 A 
ATOM     27  C   UNL     1       0.582  10.057  20.782  0.00  0.00    +0.000 A 
ATOM     28  C   UNL     1       1.567   9.370  20.102  0.00  0.00    +0.000 A 
ATOM     29  O   UNL     1       0.562  10.290  22.122  0.00  0.00    +0.000 OA
ATOM     30  C   UNL     1      -0.665  11.040  22.246  0.00  0.00    +0.000 C 
ATOM     31  O   UNL     1      -1.373  11.195  20.999  0.00  0.00    +0.000 OA
ENDBRANCH  22  23
ENDBRANCH  20  22
ENDBRANCH   1  19
TORSDOF 5
ENDMDL
MODEL 3
REMARK VINA RESULT:      -9.2      1.296      1.610
REMARK  Name = 
REMARK  5 active torsions:
REMARK  status: ('A' for Active; 'I' for Inactive)
REMARK    1  A    between atoms: C_2  and  C_14
REMARK    2  A    between atoms: N_3  and  C_4
REMARK    3  A    between atoms: C_4  and  C_5
REMARK    4  A    between atoms: C_19  and  C_20
REMARK    5  A    between atoms: C_23  and  C_24
REMARK                            x       y       z     vdW  Elec       q    Type
REMARK                         _______ _______ _______ _____ _____    ______ ____
ROOT
ATOM      1  C   UNL     1       2.827   4.470  19.636  0.00  0.00    +0.000 A 
ATOM      2  C   UNL     1       1.917   4.167  20.662  0.00  0.00    +0.000 A 
ATOM      3  C   UNL     1       2.121   3.055  21.479  0.00  0.00    +0.000 A 
ATOM      4  C   UNL     1       3.209   2.218  21.254  0.00  0.00    +0.000 A 
ATOM      5  C   UNL     1       4.146   2.547  20.274  0.00  0.00    +0.000 A 
ATOM      6  C   UNL     1       4.007   3.721  19.509  0.00  0.00    +0.000 A 
ENDROOT
BRANCH   6   7
ATOM      7  C   UNL     1       5.131   4.142  18.691  0.00  0.00    +0.000 A 
ATOM      8  N   UNL     1       6.264   4.703  19.055  0.00  0.00    +0.000 NA
ATOM      9  C   UNL     1       6.923   4.895  17.874  0.00  0.00    +0.000 A 
ATOM     10  C   UNL     1       6.173   4.436  16.812  0.00  0.00    +0.000 A 
ATOM     11  O   UNL     1       4.996   3.981  17.335  0.00  0.00    +0.000 OA
BRANCH  10  12
ATOM     12  C   UNL     1       6.368   4.353  15.372  0.00  0.00    +0.000 A 
ATOM     13  C   UNL     1       7.432   5.065  14.794  0.00  0.00    +0.000 A 
ATOM     14  C   UNL     1       7.652   5.043  13.417  0.00  0.00    +0.000 A 
ATOM     15  C   UNL     1       6.812   4.309  12.590  0.00  0.00    +0.000 A 
ATOM     16  C   UNL     1       5.754   3.582  13.148  0.00  0.00    +0.000 A 
ATOM     17  C   UNL     1       5.535   3.606  14.531  0.00  0.00    +0.000 A 
ENDBRANCH  10  12
ENDBRANCH   6   7
BRANCH   1  19
ATOM     18  O   UNL     1       1.804   5.297  17.684  0.00  0.00    +0.000 OA
ATOM     19  C   UNL     1       2.445   5.563  18.699  0.00  0.00    +0.000 C 
ATOM     20  N   UNL     1       2.912   6.824  18.997  0.00  0.00    +0.000 N 
ATOM     21  H   UNL     1       3.395   7.006  19.866  0.00  0.00    +0.000 HD
BRANCH  20  22
ATOM     22  C   UNL     1       2.616   7.969  18.177  0.00  0.00    +0.000 C 
BRANCH  22  23
ATOM     23  C   UNL     1       1.550   8.818  18.822  0.00  0.00    +0.000 A 
ATOM     24  C   UNL     1       1.336   8.730  20.218  0.00  0.00    +0.000 A 
ATOM     25  C   UNL     1       0.379   9.528  20.852  0.00  0.00    +0.000 A 
ATOM     26  C   UNL     1      -0.358  10.387  20.067  0.00  0.00    +0.000 A 
ATOM     27  C   UNL     1      -0.177  10.460  18.707  0.00  0.00    +0.000 A 
ATOM     28  C   UNL     1       0.759   9.687  18.052  0.00  0.00    +0.000 A 
ATOM     29  O   UNL     1      -1.000  11.372  18.121  0.00  0.00    +0.000 OA
ATOM     30  C   UNL     1      -1.741  11.841  19.267  0.00  0.00    +0.000 C 
ATOM     31  O   UNL     1      -1.316  11.244  20.510  0.00  0.00    +0.000 OA
ENDBRANCH  22  23
ENDBRANCH  20  22
ENDBRANCH   1  19
TORSDOF 5
ENDMDL
MODEL 4
REMARK VINA RESULT:      -9.2      1.697      1.992
REMARK  Name = 
REMARK  5 active torsions:
REMARK  status: ('A' for Active; 'I' for Inactive)
REMARK    1  A    between atoms: C_2  and  C_14
REMARK    2  A    between atoms: N_3  and  C_4
REMARK    3  A    between atoms: C_4  and  C_5
REMARK    4  A    between atoms: C_19  and  C_20
REMARK    5  A    between atoms: C_23  and  C_24
REMARK                            x       y       z     vdW  Elec       q    Type
REMARK                         _______ _______ _______ _____ _____    ______ ____
ROOT
ATOM      1  C   UNL     1       2.756   4.704  20.002  0.00  0.00    +0.000 A 
ATOM      2  C   UNL     1       1.932   4.224  21.032  0.00  0.00    +0.000 A 
ATOM      3  C   UNL     1       2.169   2.973  21.601  0.00  0.00    +0.000 A 
ATOM      4  C   UNL     1       3.204   2.177  21.119  0.00  0.00    +0.000 A 
ATOM      5  C   UNL     1       4.060   2.672  20.136  0.00  0.00    +0.000 A 
ATOM      6  C   UNL     1       3.894   3.973  19.625  0.00  0.00    +0.000 A 
ENDROOT
BRANCH   6   7
ATOM      7  C   UNL     1       4.955   4.525  18.799  0.00  0.00    +0.000 A 
ATOM      8  N   UNL     1       5.943   5.326  19.135  0.00  0.00    +0.000 NA
ATOM      9  C   UNL     1       6.607   5.530  17.959  0.00  0.00    +0.000 A 
ATOM     10  C   UNL     1       6.008   4.837  16.929  0.00  0.00    +0.000 A 
ATOM     11  O   UNL     1       4.915   4.214  17.464  0.00  0.00    +0.000 OA
BRANCH  10  12
ATOM     12  C   UNL     1       6.282   4.658  15.511  0.00  0.00    +0.000 A 
ATOM     13  C   UNL     1       5.391   3.890  14.743  0.00  0.00    +0.000 A 
ATOM     14  C   UNL     1       5.616   3.664  13.387  0.00  0.00    +0.000 A 
ATOM     15  C   UNL     1       6.739   4.201  12.768  0.00  0.00    +0.000 A 
ATOM     16  C   UNL     1       7.632   4.980  13.513  0.00  0.00    +0.000 A 
ATOM     17  C   UNL     1       7.404   5.206  14.877  0.00  0.00    +0.000 A 
ENDBRANCH  10  12
ENDBRANCH   6   7
BRANCH   1  19
ATOM     18  O   UNL     1       2.154   5.972  18.112  0.00  0.00    +0.000 OA
ATOM     19  C   UNL     1       2.331   5.962  19.329  0.00  0.00    +0.000 C 
ATOM     20  N   UNL     1       2.232   7.085  20.122  0.00  0.00    +0.000 N 
ATOM     21  H   UNL     1       2.341   7.022  21.125  0.00  0.00    +0.000 HD
BRANCH  20  22
ATOM     22  C   UNL     1       1.831   8.364  19.600  0.00  0.00    +0.000 C 
BRANCH  22  23
ATOM     23  C   UNL     1       1.006   9.113  20.617  0.00  0.00    +0.000 A 
ATOM     24  C   UNL     1       1.066   8.736  21.980  0.00  0.00    +0.000 A 
ATOM     25  C   UNL     1       0.340   9.430  22.952  0.00  0.00    +0.000 A 
ATOM     26  C   UNL     1      -0.448  10.480  22.533  0.00  0.00    +0.000 A 
ATOM     27  C   UNL     1      -0.534  10.836  21.208  0.00  0.00    +0.000 A 
ATOM     28  C   UNL     1       0.170  10.171  20.226  0.00  0.00    +0.000 A 
ATOM     29  O   UNL     1      -1.361  11.898  21.009  0.00  0.00    +0.000 OA
ATOM     30  C   UNL     1      -1.807  12.149  22.358  0.00  0.00    +0.000 C 
ATOM     31  O   UNL     1      -1.206  11.273  23.335  0.00  0.00    +0.000 OA
ENDBRANCH  22  23
ENDBRANCH  20  22
ENDBRANCH   1  19
TORSDOF 5
ENDMDL
MODEL 5
REMARK VINA RESULT:      -9.2      1.538      2.027
REMARK  Name = 
REMARK  5 active torsions:
REMARK  status: ('A' for Active; 'I' for Inactive)
REMARK    1  A    between atoms: C_2  and  C_14
REMARK    2  A    between atoms: N_3  and  C_4
REMARK    3  A    between atoms: C_4  and  C_5
REMARK    4  A    between atoms: C_19  and  C_20
REMARK    5  A    between atoms: C_23  and  C_24
REMARK                            x       y       z     vdW  Elec       q    Type
REMARK                         _______ _______ _______ _____ _____    ______ ____
ROOT
ATOM      1  C   UNL     1       2.969   4.405  19.592  0.00  0.00    +0.000 A 
ATOM      2  C   UNL     1       2.106   4.022  20.631  0.00  0.00    +0.000 A 
ATOM      3  C   UNL     1       2.375   2.882  21.388  0.00  0.00    +0.000 A 
ATOM      4  C   UNL     1       3.483   2.096  21.088  0.00  0.00    +0.000 A 
ATOM      5  C   UNL     1       4.374   2.503  20.095  0.00  0.00    +0.000 A 
ATOM      6  C   UNL     1       4.169   3.705  19.392  0.00  0.00    +0.000 A 
ENDROOT
BRANCH   6   7
ATOM      7  C   UNL     1       5.250   4.203  18.558  0.00  0.00    +0.000 A 
ATOM      8  N   UNL     1       6.339   4.855  18.905  0.00  0.00    +0.000 NA
ATOM      9  C   UNL     1       6.970   5.085  17.716  0.00  0.00    +0.000 A 
ATOM     10  C   UNL     1       6.249   4.557  16.666  0.00  0.00    +0.000 A 
ATOM     11  O   UNL     1       5.115   4.017  17.206  0.00  0.00    +0.000 OA
BRANCH  10  12
ATOM     12  C   UNL     1       6.438   4.473  15.226  0.00  0.00    +0.000 A 
ATOM     13  C   UNL     1       5.574   3.654  14.479  0.00  0.00    +0.000 A 
ATOM     14  C   UNL     1       5.723   3.516  13.100  0.00  0.00    +0.000 A 
ATOM     15  C   UNL     1       6.741   4.193  12.438  0.00  0.00    +0.000 A 
ATOM     16  C   UNL     1       7.604   5.023  13.163  0.00  0.00    +0.000 A 
ATOM     17  C   UNL     1       7.452   5.161  14.548  0.00  0.00    +0.000 A 
ENDBRANCH  10  12
ENDBRANCH   6   7
BRANCH   1  19
ATOM     18  O   UNL     1       1.950   5.280  17.659  0.00  0.00    +0.000 OA
ATOM     19  C   UNL     1       2.520   5.526  18.721  0.00  0.00    +0.000 C 
ATOM     20  N   UNL     1       2.845   6.800  19.134  0.00  0.00    +0.000 N 
ATOM     21  H   UNL     1       3.271   6.959  20.036  0.00  0.00    +0.000 HD
BRANCH  20  22
ATOM     22  C   UNL     1       2.470   7.971  18.387  0.00  0.00    +0.000 C 
BRANCH  22  23
ATOM     23  C   UNL     1       1.545   8.841  19.201  0.00  0.00    +0.000 A 
ATOM     24  C   UNL     1       0.824   9.880  18.566  0.00  0.00    +0.000 A 
ATOM     25  C   UNL     1      -0.066  10.683  19.285  0.00  0.00    +0.000 A 
ATOM     26  C   UNL     1      -0.200  10.438  20.635  0.00  0.00    +0.000 A 
ATOM     27  C   UNL     1       0.517   9.450  21.266  0.00  0.00    +0.000 A 
ATOM     28  C   UNL     1       1.401   8.641  20.584  0.00  0.00    +0.000 A 
ATOM     29  O   UNL     1       0.234   9.371  22.594  0.00  0.00    +0.000 OA
ATOM     30  C   UNL     1      -0.720  10.445  22.731  0.00  0.00    +0.000 C 
ATOM     31  O   UNL     1      -1.025  11.105  21.485  0.00  0.00    +0.000 OA
ENDBRANCH  22  23
ENDBRANCH  20  22
ENDBRANCH   1  19
TORSDOF 5
ENDMDL
MODEL 6
REMARK VINA RESULT:      -9.1      0.543      1.042
REMARK  Name = 
REMARK  5 active torsions:
REMARK  status: ('A' for Active; 'I' for Inactive)
REMARK    1  A    between atoms: C_2  and  C_14
REMARK    2  A    between atoms: N_3  and  C_4
REMARK    3  A    between atoms: C_4  and  C_5
REMARK    4  A    between atoms: C_19  and  C_20
REMARK    5  A    between atoms: C_23  and  C_24
REMARK                            x       y       z     vdW  Elec       q    Type
REMARK                         _______ _______ _______ _____ _____    ______ ____
ROOT
ATOM      1  C   UNL     1       2.430   4.730  18.829  0.00  0.00    +0.000 A 
ATOM      2  C   UNL     1       1.307   4.341  19.576  0.00  0.00    +0.000 A 
ATOM      3  C   UNL     1       0.771   3.062  19.432  0.00  0.00    +0.000 A 
ATOM      4  C   UNL     1       1.327   2.177  18.513  0.00  0.00    +0.000 A 
ATOM      5  C   UNL     1       2.477   2.537  17.811  0.00  0.00    +0.000 A 
ATOM      6  C   UNL     1       3.087   3.788  18.021  0.00  0.00    +0.000 A 
ENDROOT
BRANCH   6   7
ATOM      7  C   UNL     1       4.409   4.008  17.460  0.00  0.00    +0.000 A 
ATOM      8  N   UNL     1       5.549   4.238  18.076  0.00  0.00    +0.000 NA
ATOM      9  C   UNL     1       6.443   4.387  17.053  0.00  0.00    +0.000 A 
ATOM     10  C   UNL     1       5.823   4.234  15.831  0.00  0.00    +0.000 A 
ATOM     11  O   UNL     1       4.498   4.025  16.091  0.00  0.00    +0.000 OA
BRANCH  10  12
ATOM     12  C   UNL     1       6.261   4.256  14.444  0.00  0.00    +0.000 A 
ATOM     13  C   UNL     1       7.323   5.103  14.085  0.00  0.00    +0.000 A 
ATOM     14  C   UNL     1       7.769   5.183  12.767  0.00  0.00    +0.000 A 
ATOM     15  C   UNL     1       7.160   4.419  11.778  0.00  0.00    +0.000 A 
ATOM     16  C   UNL     1       6.109   3.559  12.118  0.00  0.00    +0.000 A 
ATOM     17  C   UNL     1       5.663   3.480  13.443  0.00  0.00    +0.000 A 
ENDBRANCH  10  12
ENDBRANCH   6   7
BRANCH   1  19
ATOM     18  O   UNL     1       3.720   6.503  19.685  0.00  0.00    +0.000 OA
ATOM     19  C   UNL     1       2.829   6.162  18.908  0.00  0.00    +0.000 C 
ATOM     20  N   UNL     1       2.107   7.049  18.141  0.00  0.00    +0.000 N 
ATOM     21  H   UNL     1       1.415   6.720  17.481  0.00  0.00    +0.000 HD
BRANCH  20  22
ATOM     22  C   UNL     1       2.389   8.460  18.123  0.00  0.00    +0.000 C 
BRANCH  22  23
ATOM     23  C   UNL     1       1.166   9.247  18.522  0.00  0.00    +0.000 A 
ATOM     24  C   UNL     1       1.025   9.689  19.859  0.00  0.00    +0.000 A 
ATOM     25  C   UNL     1      -0.080  10.449  20.254  0.00  0.00    +0.000 A 
ATOM     26  C   UNL     1      -1.033  10.734  19.301  0.00  0.00    +0.000 A 
ATOM     27  C   UNL     1      -0.919  10.286  18.007  0.00  0.00    +0.000 A 
ATOM     28  C   UNL     1       0.159   9.535  17.586  0.00  0.00    +0.000 A 
ATOM     29  O   UNL     1      -1.962  10.680  17.227  0.00  0.00    +0.000 OA
ATOM     30  C   UNL     1      -2.759  11.403  18.188  0.00  0.00    +0.000 C 
ATOM     31  O   UNL     1      -2.160  11.469  19.499  0.00  0.00    +0.000 OA
ENDBRANCH  22  23
ENDBRANCH  20  22
ENDBRANCH   1  19
TORSDOF 5
ENDMDL
MODEL 7
REMARK VINA RESULT:      -9.0      0.977      1.145
REMARK  Name = 
REMARK  5 active torsions:
REMARK  status: ('A' for Active; 'I' for Inactive)
REMARK    1  A    between atoms: C_2  and  C_14
REMARK    2  A    between atoms: N_3  and  C_4
REMARK    3  A    between atoms: C_4  and  C_5
REMARK    4  A    between atoms: C_19  and  C_20
REMARK    5  A    between atoms: C_23  and  C_24
REMARK                            x       y       z     vdW  Elec       q    Type
REMARK                         _______ _______ _______ _____ _____    ______ ____
ROOT
ATOM      1  C   UNL     1       2.472   4.623  18.915  0.00  0.00    +0.000 A 
ATOM      2  C   UNL     1       1.364   4.193  19.662  0.00  0.00    +0.000 A 
ATOM      3  C   UNL     1       0.875   2.895  19.518  0.00  0.00    +0.000 A 
ATOM      4  C   UNL     1       1.463   2.031  18.598  0.00  0.00    +0.000 A 
ATOM      5  C   UNL     1       2.599   2.434  17.896  0.00  0.00    +0.000 A 
ATOM      6  C   UNL     1       3.163   3.706  18.107  0.00  0.00    +0.000 A 
ENDROOT
BRANCH   6   7
ATOM      7  C   UNL     1       4.477   3.973  17.545  0.00  0.00    +0.000 A 
ATOM      8  N   UNL     1       5.610   4.234  18.161  0.00  0.00    +0.000 NA
ATOM      9  C   UNL     1       6.496   4.422  17.138  0.00  0.00    +0.000 A 
ATOM     10  C   UNL     1       5.878   4.262  15.916  0.00  0.00    +0.000 A 
ATOM     11  O   UNL     1       4.561   4.008  16.177  0.00  0.00    +0.000 OA
BRANCH  10  12
ATOM     12  C   UNL     1       6.313   4.312  14.528  0.00  0.00    +0.000 A 
ATOM     13  C   UNL     1       5.631   3.531  13.580  0.00  0.00    +0.000 A 
ATOM     14  C   UNL     1       6.019   3.519  12.241  0.00  0.00    +0.000 A 
ATOM     15  C   UNL     1       7.098   4.288  11.822  0.00  0.00    +0.000 A 
ATOM     16  C   UNL     1       7.782   5.082  12.749  0.00  0.00    +0.000 A 
ATOM     17  C   UNL     1       7.391   5.093  14.094  0.00  0.00    +0.000 A 
ENDBRANCH  10  12
ENDBRANCH   6   7
BRANCH   1  19
ATOM     18  O   UNL     1       3.836   6.418  19.593  0.00  0.00    +0.000 OA
ATOM     19  C   UNL     1       2.820   6.069  18.994  0.00  0.00    +0.000 C 
ATOM     20  N   UNL     1       1.919   6.953  18.442  0.00  0.00    +0.000 N 
ATOM     21  H   UNL     1       1.121   6.620  17.919  0.00  0.00    +0.000 HD
BRANCH  20  22
ATOM     22  C   UNL     1       2.132   8.375  18.449  0.00  0.00    +0.000 C 
BRANCH  22  23
ATOM     23  C   UNL     1       1.400   9.012  19.604  0.00  0.00    +0.000 A 
ATOM     24  C   UNL     1       1.187   8.272  20.791  0.00  0.00    +0.000 A 
ATOM     25  C   UNL     1       0.542   8.843  21.892  0.00  0.00    +0.000 A 
ATOM     26  C   UNL     1       0.106  10.145  21.771  0.00  0.00    +0.000 A 
ATOM     27  C   UNL     1       0.283  10.863  20.613  0.00  0.00    +0.000 A 
ATOM     28  C   UNL     1       0.917  10.328  19.511  0.00  0.00    +0.000 A 
ATOM     29  O   UNL     1      -0.215  12.126  20.704  0.00  0.00    +0.000 OA
ATOM     30  C   UNL     1      -0.753  12.108  22.043  0.00  0.00    +0.000 C 
ATOM     31  O   UNL     1      -0.524  10.864  22.738  0.00  0.00    +0.000 OA
ENDBRANCH  22  23
ENDBRANCH  20  22
ENDBRANCH   1  19
TORSDOF 5
ENDMDL
MODEL 8
REMARK VINA RESULT:      -8.9      1.097      1.876
REMARK  Name = 
REMARK  5 active torsions:
REMARK  status: ('A' for Active; 'I' for Inactive)
REMARK    1  A    between atoms: C_2  and  C_14
REMARK    2  A    between atoms: N_3  and  C_4
REMARK    3  A    between atoms: C_4  and  C_5
REMARK    4  A    between atoms: C_19  and  C_20
REMARK    5  A    between atoms: C_23  and  C_24
REMARK                            x       y       z     vdW  Elec       q    Type
REMARK                         _______ _______ _______ _____ _____    ______ ____
ROOT
ATOM      1  C   UNL     1       2.837   5.047  18.820  0.00  0.00    +0.000 A 
ATOM      2  C   UNL     1       1.794   4.773  19.719  0.00  0.00    +0.000 A 
ATOM      3  C   UNL     1       1.466   3.456  20.039  0.00  0.00    +0.000 A 
ATOM      4  C   UNL     1       2.149   2.405  19.434  0.00  0.00    +0.000 A 
ATOM      5  C   UNL     1       3.222   2.672  18.585  0.00  0.00    +0.000 A 
ATOM      6  C   UNL     1       3.629   3.996  18.333  0.00  0.00    +0.000 A 
ENDROOT
BRANCH   6   7
ATOM      7  C   UNL     1       4.897   4.204  17.653  0.00  0.00    +0.000 A 
ATOM      8  N   UNL     1       6.079   4.483  18.160  0.00  0.00    +0.000 NA
ATOM      9  C   UNL     1       6.882   4.591  17.060  0.00  0.00    +0.000 A 
ATOM     10  C   UNL     1       6.168   4.366  15.904  0.00  0.00    +0.000 A 
ATOM     11  O   UNL     1       4.872   4.151  16.283  0.00  0.00    +0.000 OA
BRANCH  10  12
ATOM     12  C   UNL     1       6.490   4.320  14.486  0.00  0.00    +0.000 A 
ATOM     13  C   UNL     1       7.491   5.176  13.994  0.00  0.00    +0.000 A 
ATOM     14  C   UNL     1       7.824   5.194  12.640  0.00  0.00    +0.000 A 
ATOM     15  C   UNL     1       7.163   4.357  11.749  0.00  0.00    +0.000 A 
ATOM     16  C   UNL     1       6.172   3.489  12.222  0.00  0.00    +0.000 A 
ATOM     17  C   UNL     1       5.839   3.472  13.582  0.00  0.00    +0.000 A 
ENDBRANCH  10  12
ENDBRANCH   6   7
BRANCH   1  19
ATOM     18  O   UNL     1       4.078   6.833  17.918  0.00  0.00    +0.000 OA
ATOM     19  C   UNL     1       3.006   6.465  18.395  0.00  0.00    +0.000 C 
ATOM     20  N   UNL     1       1.950   7.314  18.640  0.00  0.00    +0.000 N 
ATOM     21  H   UNL     1       1.071   6.960  18.991  0.00  0.00    +0.000 HD
BRANCH  20  22
ATOM     22  C   UNL     1       1.981   8.706  18.279  0.00  0.00    +0.000 C 
BRANCH  22  23
ATOM     23  C   UNL     1       1.161   9.521  19.249  0.00  0.00    +0.000 A 
ATOM     24  C   UNL     1       0.641  10.773  18.845  0.00  0.00    +0.000 A 
ATOM     25  C   UNL     1      -0.150  11.537  19.709  0.00  0.00    +0.000 A 
ATOM     26  C   UNL     1      -0.388  11.035  20.970  0.00  0.00    +0.000 A 
ATOM     27  C   UNL     1       0.136   9.833  21.381  0.00  0.00    +0.000 A 
ATOM     28  C   UNL     1       0.919   9.056  20.552  0.00  0.00    +0.000 A 
ATOM     29  O   UNL     1      -0.221   9.520  22.655  0.00  0.00    +0.000 OA
ATOM     30  C   UNL     1      -1.005  10.679  23.008  0.00  0.00    +0.000 C 
ATOM     31  O   UNL     1      -1.143  11.629  21.932  0.00  0.00    +0.000 OA
ENDBRANCH  22  23
ENDBRANCH  20  22
ENDBRANCH   1  19
TORSDOF 5
ENDMDL
MODEL 9
REMARK VINA RESULT:      -8.8      1.243      1.551
REMARK  Name = 
REMARK  5 active torsions:
REMARK  status: ('A' for Active; 'I' for Inactive)
REMARK    1  A    between atoms: C_2  and  C_14
REMARK    2  A    between atoms: N_3  and  C_4
REMARK    3  A    between atoms: C_4  and  C_5
REMARK    4  A    between atoms: C_19  and  C_20
REMARK    5  A    between atoms: C_23  and  C_24
REMARK                            x       y       z     vdW  Elec       q    Type
REMARK                         _______ _______ _______ _____ _____    ______ ____
ROOT
ATOM      1  C   UNL     1       2.827   5.070  18.840  0.00  0.00    +0.000 A 
ATOM      2  C   UNL     1       1.759   4.852  19.726  0.00  0.00    +0.000 A 
ATOM      3  C   UNL     1       1.404   3.556  20.096  0.00  0.00    +0.000 A 
ATOM      4  C   UNL     1       2.083   2.468  19.555  0.00  0.00    +0.000 A 
ATOM      5  C   UNL     1       3.180   2.682  18.720  0.00  0.00    +0.000 A 
ATOM      6  C   UNL     1       3.613   3.987  18.419  0.00  0.00    +0.000 A 
ENDROOT
BRANCH   6   7
ATOM      7  C   UNL     1       4.899   4.146  17.761  0.00  0.00    +0.000 A 
ATOM      8  N   UNL     1       6.091   4.323  18.290  0.00  0.00    +0.000 NA
ATOM      9  C   UNL     1       6.912   4.433  17.204  0.00  0.00    +0.000 A 
ATOM     10  C   UNL     1       6.197   4.311  16.032  0.00  0.00    +0.000 A 
ATOM     11  O   UNL     1       4.887   4.163  16.389  0.00  0.00    +0.000 OA
BRANCH  10  12
ATOM     12  C   UNL     1       6.532   4.315  14.616  0.00  0.00    +0.000 A 
ATOM     13  C   UNL     1       7.542   5.180  14.164  0.00  0.00    +0.000 A 
ATOM     14  C   UNL     1       7.888   5.245  12.815  0.00  0.00    +0.000 A 
ATOM     15  C   UNL     1       7.229   4.446  11.888  0.00  0.00    +0.000 A 
ATOM     16  C   UNL     1       6.228   3.568  12.320  0.00  0.00    +0.000 A 
ATOM     17  C   UNL     1       5.883   3.505  13.676  0.00  0.00    +0.000 A 
ENDBRANCH  10  12
ENDBRANCH   6   7
BRANCH   1  19
ATOM     18  O   UNL     1       4.169   6.888  18.177  0.00  0.00    +0.000 OA
ATOM     19  C   UNL     1       3.028   6.465  18.358  0.00  0.00    +0.000 C 
ATOM     20  N   UNL     1       1.897   7.239  18.213  0.00  0.00    +0.000 N 
ATOM     21  H   UNL     1       0.977   6.837  18.328  0.00  0.00    +0.000 HD
BRANCH  20  22
ATOM     22  C   UNL     1       1.950   8.601  17.755  0.00  0.00    +0.000 C 
BRANCH  22  23
ATOM     23  C   UNL     1       1.514   9.543  18.849  0.00  0.00    +0.000 A 
ATOM     24  C   UNL     1       1.108   9.021  20.100  0.00  0.00    +0.000 A 
ATOM     25  C   UNL     1       0.729   9.868  21.146  0.00  0.00    +0.000 A 
ATOM     26  C   UNL     1       0.749  11.225  20.908  0.00  0.00    +0.000 A 
ATOM     27  C   UNL     1       1.114  11.741  19.688  0.00  0.00    +0.000 A 
ATOM     28  C   UNL     1       1.493  10.931  18.637  0.00  0.00    +0.000 A 
ATOM     29  O   UNL     1       1.069  13.100  19.664  0.00  0.00    +0.000 OA
ATOM     30  C   UNL     1       0.603  13.378  21.001  0.00  0.00    +0.000 C 
ATOM     31  O   UNL     1       0.429  12.193  21.807  0.00  0.00    +0.000 OA
ENDBRANCH  22  23
ENDBRANCH  20  22
ENDBRANCH   1  19
TORSDOF 5
ENDMDL
