MODEL 1
REMARK VINA RESULT:      -8.4      0.000      0.000
REMARK  Name = 
REMARK  7 active torsions:
REMARK  status: ('A' for Active; 'I' for Inactive)
REMARK    1  A    between atoms: C_1  and  C_2
REMARK    2  A    between atoms: C_5  and  S_6
REMARK    3  A    between atoms: S_6  and  C_7
REMARK    4  A    between atoms: C_10  and  N_11
REMARK    5  A    between atoms: C_12  and  C_14
REMARK    6  A    between atoms: C_14  and  N_15
REMARK    7  A    between atoms: C_28  and  C_29
REMARK                            x       y       z     vdW  Elec       q    Type
REMARK                         _______ _______ _______ _____ _____    ______ ____
ROOT
ATOM      1  N   UNL     1       0.758  10.940  18.882  0.00  0.00    +0.000 N 
ATOM      2  C   UNL     1       1.513  11.990  18.384  0.00  0.00    +0.000 C 
ATOM      3  O   UNL     1       2.702  11.949  18.050  0.00  0.00    +0.000 OA
ATOM      4  H   UNL     1      -0.239  11.103  18.997  0.00  0.00    +0.000 HD
ENDROOT
BRANCH   1   8
ATOM      5  C   UNL     1       2.133   7.081  19.892  0.00  0.00    +0.000 A 
ATOM      6  C   UNL     1       2.288   7.551  18.588  0.00  0.00    +0.000 A 
ATOM      7  C   UNL     1       1.850   8.829  18.241  0.00  0.00    +0.000 A 
ATOM      8  C   UNL     1       1.222   9.645  19.178  0.00  0.00    +0.000 A 
ATOM      9  C   UNL     1       1.043   9.166  20.483  0.00  0.00    +0.000 A 
ATOM     10  C   UNL     1       1.503   7.891  20.839  0.00  0.00    +0.000 A 
BRANCH   5  11
ATOM     11  S   UNL     1       2.675   5.439  20.292  0.00  0.00    +0.000 S 
BRANCH  11  16
ATOM     12  C   UNL     1       6.421   4.030  15.652  0.00  0.00    +0.000 C 
ATOM     13  C   UNL     1       5.510   4.375  16.791  0.00  0.00    +0.000 A 
ATOM     14  C   UNL     1       5.992   5.027  17.923  0.00  0.00    +0.000 A 
ATOM     15  C   UNL     1       5.131   5.335  18.980  0.00  0.00    +0.000 A 
ATOM     16  C   UNL     1       3.769   4.990  18.941  0.00  0.00    +0.000 A 
ATOM     17  C   UNL     1       3.270   4.352  17.786  0.00  0.00    +0.000 A 
ATOM     18  C   UNL     1       1.831   3.941  17.598  0.00  0.00    +0.000 C 
ATOM     19  C   UNL     1       4.152   4.042  16.737  0.00  0.00    +0.000 A 
ENDBRANCH  11  16
ENDBRANCH   5  11
ENDBRANCH   1   8
BRANCH   2  20
ATOM     20  C   UNL     1       0.758  13.294  18.321  0.00  0.00    +0.000 C 
BRANCH  20  21
ATOM     21  N   UNL     1       0.971  14.137  19.502  0.00  0.00    +0.000 N 
ATOM     22  N   UNL     1      -0.224  14.448  20.152  0.00  0.00    +0.000 NA
ATOM     23  C   UNL     1      -0.752  15.597  19.865  0.00  0.00    +0.000 A 
ATOM     24  C   UNL     1      -0.128  16.521  18.926  0.00  0.00    +0.000 A 
ATOM     25  C   UNL     1      -0.884  17.376  18.135  0.00  0.00    +0.000 A 
ATOM     26  C   UNL     1      -0.230  18.138  17.166  0.00  0.00    +0.000 A 
ATOM     27  C   UNL     1       1.165  18.095  17.049  0.00  0.00    +0.000 A 
ATOM     28  C   UNL     1       1.914  17.234  17.850  0.00  0.00    +0.000 A 
ATOM     29  C   UNL     1       1.247  16.404  18.748  0.00  0.00    +0.000 A 
ATOM     30  C   UNL     1       1.894  15.167  19.238  0.00  0.00    +0.000 A 
ATOM     31  O   UNL     1       3.097  14.986  19.083  0.00  0.00    +0.000 OA
ENDBRANCH  20  21
ENDBRANCH   2  20
TORSDOF 5
ENDMDL
MODEL 2
REMARK VINA RESULT:      -8.3      6.378      7.431
REMARK  Name = 
REMARK  7 active torsions:
REMARK  status: ('A' for Active; 'I' for Inactive)
REMARK    1  A    between atoms: C_1  and  C_2
REMARK    2  A    between atoms: C_5  and  S_6
REMARK    3  A    between atoms: S_6  and  C_7
REMARK    4  A    between atoms: C_10  and  N_11
REMARK    5  A    between atoms: C_12  and  C_14
REMARK    6  A    between atoms: C_14  and  N_15
REMARK    7  A    between atoms: C_28  and  C_29
REMARK                            x       y       z     vdW  Elec       q    Type
REMARK                         _______ _______ _______ _____ _____    ______ ____
ROOT
ATOM      1  N   UNL     1       7.465   8.587  17.365  0.00  0.00    +0.000 N 
ATOM      2  C   UNL     1       8.422   8.909  18.314  0.00  0.00    +0.000 C 
ATOM      3  O   UNL     1       8.890   8.156  19.174  0.00  0.00    +0.000 OA
ATOM      4  H   UNL     1       7.272   9.284  16.649  0.00  0.00    +0.000 HD
ENDROOT
BRANCH   1   8
ATOM      5  C   UNL     1       5.309   4.976  17.022  0.00  0.00    +0.000 A 
ATOM      6  C   UNL     1       6.673   4.942  17.310  0.00  0.00    +0.000 A 
ATOM      7  C   UNL     1       7.398   6.127  17.439  0.00  0.00    +0.000 A 
ATOM      8  C   UNL     1       6.782   7.362  17.250  0.00  0.00    +0.000 A 
ATOM      9  C   UNL     1       5.417   7.398  16.937  0.00  0.00    +0.000 A 
ATOM     10  C   UNL     1       4.683   6.210  16.829  0.00  0.00    +0.000 A 
BRANCH   5  11
ATOM     11  S   UNL     1       4.424   3.448  16.836  0.00  0.00    +0.000 S 
BRANCH  11  16
ATOM     12  C   UNL     1       1.463   2.628  22.137  0.00  0.00    +0.000 C 
ATOM     13  C   UNL     1       2.193   2.827  20.843  0.00  0.00    +0.000 A 
ATOM     14  C   UNL     1       3.496   2.366  20.676  0.00  0.00    +0.000 A 
ATOM     15  C   UNL     1       4.166   2.568  19.466  0.00  0.00    +0.000 A 
ATOM     16  C   UNL     1       3.558   3.244  18.395  0.00  0.00    +0.000 A 
ATOM     17  C   UNL     1       2.230   3.692  18.550  0.00  0.00    +0.000 A 
ATOM     18  C   UNL     1       1.448   4.415  17.482  0.00  0.00    +0.000 C 
ATOM     19  C   UNL     1       1.575   3.489  19.777  0.00  0.00    +0.000 A 
ENDBRANCH  11  16
ENDBRANCH   5  11
ENDBRANCH   1   8
BRANCH   2  20
ATOM     20  C   UNL     1       8.851  10.354  18.265  0.00  0.00    +0.000 C 
BRANCH  20  21
ATOM     21  N   UNL     1       9.862  10.686  19.274  0.00  0.00    +0.000 N 
ATOM     22  N   UNL     1       9.302  10.893  20.535  0.00  0.00    +0.000 NA
ATOM     23  C   UNL     1       9.077  12.126  20.869  0.00  0.00    +0.000 A 
ATOM     24  C   UNL     1       9.401  13.237  19.983  0.00  0.00    +0.000 A 
ATOM     25  C   UNL     1       8.652  14.406  19.978  0.00  0.00    +0.000 A 
ATOM     26  C   UNL     1       8.938  15.374  19.014  0.00  0.00    +0.000 A 
ATOM     27  C   UNL     1      10.005  15.201  18.124  0.00  0.00    +0.000 A 
ATOM     28  C   UNL     1      10.751  14.022  18.139  0.00  0.00    +0.000 A 
ATOM     29  C   UNL     1      10.400  13.018  19.038  0.00  0.00    +0.000 A 
ATOM     30  C   UNL     1      10.796  11.616  18.779  0.00  0.00    +0.000 A 
ATOM     31  O   UNL     1      11.646  11.352  17.936  0.00  0.00    +0.000 OA
ENDBRANCH  20  21
ENDBRANCH   2  20
TORSDOF 5
ENDMDL
MODEL 3
REMARK VINA RESULT:      -8.3      3.323      4.269
REMARK  Name = 
REMARK  7 active torsions:
REMARK  status: ('A' for Active; 'I' for Inactive)
REMARK    1  A    between atoms: C_1  and  C_2
REMARK    2  A    between atoms: C_5  and  S_6
REMARK    3  A    between atoms: S_6  and  C_7
REMARK    4  A    between atoms: C_10  and  N_11
REMARK    5  A    between atoms: C_12  and  C_14
REMARK    6  A    between atoms: C_14  and  N_15
REMARK    7  A    between atoms: C_28  and  C_29
REMARK                            x       y       z     vdW  Elec       q    Type
REMARK                         _______ _______ _______ _____ _____    ______ ____
ROOT
ATOM      1  N   UNL     1       0.916   8.456  20.457  0.00  0.00    +0.000 N 
ATOM      2  C   UNL     1       0.988   9.272  21.575  0.00  0.00    +0.000 C 
ATOM      3  O   UNL     1       1.815   9.198  22.489  0.00  0.00    +0.000 OA
ATOM      4  H   UNL     1       0.251   8.721  19.734  0.00  0.00    +0.000 HD
ENDROOT
BRANCH   1   8
ATOM      5  C   UNL     1       3.363   5.142  19.545  0.00  0.00    +0.000 A 
ATOM      6  C   UNL     1       2.483   5.075  20.625  0.00  0.00    +0.000 A 
ATOM      7  C   UNL     1       1.659   6.157  20.932  0.00  0.00    +0.000 A 
ATOM      8  C   UNL     1       1.722   7.334  20.190  0.00  0.00    +0.000 A 
ATOM      9  C   UNL     1       2.623   7.412  19.120  0.00  0.00    +0.000 A 
ATOM     10  C   UNL     1       3.436   6.319  18.795  0.00  0.00    +0.000 A 
BRANCH   5  11
ATOM     11  S   UNL     1       4.420   3.758  19.200  0.00  0.00    +0.000 S 
BRANCH  11  16
ATOM     12  C   UNL     1       7.310   5.172  13.986  0.00  0.00    +0.000 C 
ATOM     13  C   UNL     1       6.598   4.825  15.258  0.00  0.00    +0.000 A 
ATOM     14  C   UNL     1       5.403   4.110  15.239  0.00  0.00    +0.000 A 
ATOM     15  C   UNL     1       4.747   3.801  16.434  0.00  0.00    +0.000 A 
ATOM     16  C   UNL     1       5.258   4.207  17.678  0.00  0.00    +0.000 A 
ATOM     17  C   UNL     1       6.481   4.911  17.705  0.00  0.00    +0.000 A 
ATOM     18  C   UNL     1       7.155   5.392  18.965  0.00  0.00    +0.000 C 
ATOM     19  C   UNL     1       7.122   5.221  16.494  0.00  0.00    +0.000 A 
ENDBRANCH  11  16
ENDBRANCH   5  11
ENDBRANCH   1   8
BRANCH   2  20
ATOM     20  C   UNL     1      -0.117  10.297  21.640  0.00  0.00    +0.000 C 
BRANCH  20  21
ATOM     21  N   UNL     1       0.214  11.542  20.938  0.00  0.00    +0.000 N 
ATOM     22  N   UNL     1       0.188  12.650  21.786  0.00  0.00    +0.000 NA
ATOM     23  C   UNL     1      -0.902  13.352  21.780  0.00  0.00    +0.000 A 
ATOM     24  C   UNL     1      -2.034  13.013  20.927  0.00  0.00    +0.000 A 
ATOM     25  C   UNL     1      -3.341  13.278  21.314  0.00  0.00    +0.000 A 
ATOM     26  C   UNL     1      -4.380  12.810  20.509  0.00  0.00    +0.000 A 
ATOM     27  C   UNL     1      -4.107  12.155  19.302  0.00  0.00    +0.000 A 
ATOM     28  C   UNL     1      -2.790  11.895  18.923  0.00  0.00    +0.000 A 
ATOM     29  C   UNL     1      -1.759  12.279  19.778  0.00  0.00    +0.000 A 
ATOM     30  C   UNL     1      -0.438  11.618  19.692  0.00  0.00    +0.000 A 
ATOM     31  O   UNL     1      -0.145  10.929  18.722  0.00  0.00    +0.000 OA
ENDBRANCH  20  21
ENDBRANCH   2  20
TORSDOF 5
ENDMDL
MODEL 4
REMARK VINA RESULT:      -8.3      3.309      4.475
REMARK  Name = 
REMARK  7 active torsions:
REMARK  status: ('A' for Active; 'I' for Inactive)
REMARK    1  A    between atoms: C_1  and  C_2
REMARK    2  A    between atoms: C_5  and  S_6
REMARK    3  A    between atoms: S_6  and  C_7
REMARK    4  A    between atoms: C_10  and  N_11
REMARK    5  A    between atoms: C_12  and  C_14
REMARK    6  A    between atoms: C_14  and  N_15
REMARK    7  A    between atoms: C_28  and  C_29
REMARK                            x       y       z     vdW  Elec       q    Type
REMARK                         _______ _______ _______ _____ _____    ______ ____
ROOT
ATOM      1  N   UNL     1       0.783   8.373  20.153  0.00  0.00    +0.000 N 
ATOM      2  C   UNL     1       0.817   9.323  21.162  0.00  0.00    +0.000 C 
ATOM      3  O   UNL     1       1.682   9.441  22.034  0.00  0.00    +0.000 OA
ATOM      4  H   UNL     1       0.067   8.483  19.439  0.00  0.00    +0.000 HD
ENDROOT
BRANCH   1   8
ATOM      5  C   UNL     1       3.528   5.233  19.517  0.00  0.00    +0.000 A 
ATOM      6  C   UNL     1       2.594   5.137  20.549  0.00  0.00    +0.000 A 
ATOM      7  C   UNL     1       1.672   6.160  20.764  0.00  0.00    +0.000 A 
ATOM      8  C   UNL     1       1.687   7.310  19.978  0.00  0.00    +0.000 A 
ATOM      9  C   UNL     1       2.641   7.419  18.957  0.00  0.00    +0.000 A 
ATOM     10  C   UNL     1       3.553   6.382  18.724  0.00  0.00    +0.000 A 
BRANCH   5  11
ATOM     11  S   UNL     1       4.707   3.924  19.290  0.00  0.00    +0.000 S 
BRANCH  11  16
ATOM     12  C   UNL     1       7.237   4.957  13.806  0.00  0.00    +0.000 C 
ATOM     13  C   UNL     1       6.612   4.703  15.144  0.00  0.00    +0.000 A 
ATOM     14  C   UNL     1       5.391   4.042  15.252  0.00  0.00    +0.000 A 
ATOM     15  C   UNL     1       4.818   3.821  16.508  0.00  0.00    +0.000 A 
ATOM     16  C   UNL     1       5.441   4.263  17.687  0.00  0.00    +0.000 A 
ATOM     17  C   UNL     1       6.690   4.912  17.585  0.00  0.00    +0.000 A 
ATOM     18  C   UNL     1       7.480   5.423  18.764  0.00  0.00    +0.000 C 
ATOM     19  C   UNL     1       7.247   5.134  16.315  0.00  0.00    +0.000 A 
ENDBRANCH  11  16
ENDBRANCH   5  11
ENDBRANCH   1   8
BRANCH   2  20
ATOM     20  C   UNL     1      -0.383  10.238  21.163  0.00  0.00    +0.000 C 
BRANCH  20  21
ATOM     21  N   UNL     1      -0.177  11.455  20.371  0.00  0.00    +0.000 N 
ATOM     22  N   UNL     1      -0.962  12.517  20.821  0.00  0.00    +0.000 NA
ATOM     23  C   UNL     1      -2.075  12.718  20.186  0.00  0.00    +0.000 A 
ATOM     24  C   UNL     1      -2.480  11.890  19.057  0.00  0.00    +0.000 A 
ATOM     25  C   UNL     1      -3.818  11.633  18.787  0.00  0.00    +0.000 A 
ATOM     26  C   UNL     1      -4.128  10.728  17.771  0.00  0.00    +0.000 A 
ATOM     27  C   UNL     1      -3.114  10.152  16.995  0.00  0.00    +0.000 A 
ATOM     28  C   UNL     1      -1.774  10.419  17.275  0.00  0.00    +0.000 A 
ATOM     29  C   UNL     1      -1.467  11.247  18.353  0.00  0.00    +0.000 A 
ATOM     30  C   UNL     1      -0.135  11.170  18.993  0.00  0.00    +0.000 A 
ATOM     31  O   UNL     1       0.792  10.589  18.441  0.00  0.00    +0.000 OA
ENDBRANCH  20  21
ENDBRANCH   2  20
TORSDOF 5
ENDMDL
MODEL 5
REMARK VINA RESULT:      -8.2      3.302      4.155
REMARK  Name = 
REMARK  7 active torsions:
REMARK  status: ('A' for Active; 'I' for Inactive)
REMARK    1  A    between atoms: C_1  and  C_2
REMARK    2  A    between atoms: C_5  and  S_6
REMARK    3  A    between atoms: S_6  and  C_7
REMARK    4  A    between atoms: C_10  and  N_11
REMARK    5  A    between atoms: C_12  and  C_14
REMARK    6  A    between atoms: C_14  and  N_15
REMARK    7  A    between atoms: C_28  and  C_29
REMARK                            x       y       z     vdW  Elec       q    Type
REMARK                         _______ _______ _______ _____ _____    ______ ____
ROOT
ATOM      1  N   UNL     1       0.781   8.458  20.350  0.00  0.00    +0.000 N 
ATOM      2  C   UNL     1       0.848   9.309  21.441  0.00  0.00    +0.000 C 
ATOM      3  O   UNL     1       1.708   9.305  22.328  0.00  0.00    +0.000 OA
ATOM      4  H   UNL     1       0.079   8.667  19.644  0.00  0.00    +0.000 HD
ENDROOT
BRANCH   1   8
ATOM      5  C   UNL     1       3.310   5.150  19.662  0.00  0.00    +0.000 A 
ATOM      6  C   UNL     1       3.424   6.287  18.862  0.00  0.00    +0.000 A 
ATOM      7  C   UNL     1       2.605   7.393  19.084  0.00  0.00    +0.000 A 
ATOM      8  C   UNL     1       1.636   7.372  20.085  0.00  0.00    +0.000 A 
ATOM      9  C   UNL     1       1.503   6.223  20.874  0.00  0.00    +0.000 A 
ATOM     10  C   UNL     1       2.340   5.119  20.667  0.00  0.00    +0.000 A 
BRANCH   5  11
ATOM     11  S   UNL     1       4.349   3.749  19.333  0.00  0.00    +0.000 S 
BRANCH  11  16
ATOM     12  C   UNL     1       7.277   5.079  14.118  0.00  0.00    +0.000 C 
ATOM     13  C   UNL     1       6.556   4.752  15.391  0.00  0.00    +0.000 A 
ATOM     14  C   UNL     1       5.373   4.016  15.376  0.00  0.00    +0.000 A 
ATOM     15  C   UNL     1       4.708   3.728  16.571  0.00  0.00    +0.000 A 
ATOM     16  C   UNL     1       5.198   4.174  17.810  0.00  0.00    +0.000 A 
ATOM     17  C   UNL     1       6.408   4.898  17.833  0.00  0.00    +0.000 A 
ATOM     18  C   UNL     1       7.060   5.423  19.088  0.00  0.00    +0.000 C 
ATOM     19  C   UNL     1       7.059   5.188  16.621  0.00  0.00    +0.000 A 
ENDBRANCH  11  16
ENDBRANCH   5  11
ENDBRANCH   1   8
BRANCH   2  20
ATOM     20  C   UNL     1      -0.307  10.277  21.517  0.00  0.00    +0.000 C 
BRANCH  20  21
ATOM     21  N   UNL     1      -0.001  11.582  20.923  0.00  0.00    +0.000 N 
ATOM     22  N   UNL     1      -0.501  12.639  21.684  0.00  0.00    +0.000 NA
ATOM     23  C   UNL     1      -1.640  13.131  21.305  0.00  0.00    +0.000 A 
ATOM     24  C   UNL     1      -2.354  12.618  20.143  0.00  0.00    +0.000 A 
ATOM     25  C   UNL     1      -3.742  12.628  20.079  0.00  0.00    +0.000 A 
ATOM     26  C   UNL     1      -4.361  12.003  18.996  0.00  0.00    +0.000 A 
ATOM     27  C   UNL     1      -3.597  11.447  17.962  0.00  0.00    +0.000 A 
ATOM     28  C   UNL     1      -2.204  11.445  18.037  0.00  0.00    +0.000 A 
ATOM     29  C   UNL     1      -1.593  11.983  19.167  0.00  0.00    +0.000 A 
ATOM     30  C   UNL     1      -0.218  11.578  19.532  0.00  0.00    +0.000 A 
ATOM     31  O   UNL     1       0.494  10.985  18.729  0.00  0.00    +0.000 OA
ENDBRANCH  20  21
ENDBRANCH   2  20
TORSDOF 5
ENDMDL
MODEL 6
REMARK VINA RESULT:      -8.2      4.251     10.756
REMARK  Name = 
REMARK  7 active torsions:
REMARK  status: ('A' for Active; 'I' for Inactive)
REMARK    1  A    between atoms: C_1  and  C_2
REMARK    2  A    between atoms: C_5  and  S_6
REMARK    3  A    between atoms: S_6  and  C_7
REMARK    4  A    between atoms: C_10  and  N_11
REMARK    5  A    between atoms: C_12  and  C_14
REMARK    6  A    between atoms: C_14  and  N_15
REMARK    7  A    between atoms: C_28  and  C_29
REMARK                            x       y       z     vdW  Elec       q    Type
REMARK                         _______ _______ _______ _____ _____    ______ ____
ROOT
ATOM      1  N   UNL     1       1.645   8.420  20.216  0.00  0.00    +0.000 N 
ATOM      2  C   UNL     1       1.808   8.245  18.852  0.00  0.00    +0.000 C 
ATOM      3  O   UNL     1       1.421   9.007  17.960  0.00  0.00    +0.000 OA
ATOM      4  H   UNL     1       2.127   7.764  20.827  0.00  0.00    +0.000 HD
ENDROOT
BRANCH   1   8
ATOM      5  C   UNL     1      -0.546  11.454  22.166  0.00  0.00    +0.000 A 
ATOM      6  C   UNL     1       0.285  11.781  21.095  0.00  0.00    +0.000 A 
ATOM      7  C   UNL     1       1.006  10.788  20.432  0.00  0.00    +0.000 A 
ATOM      8  C   UNL     1       0.937   9.460  20.847  0.00  0.00    +0.000 A 
ATOM      9  C   UNL     1       0.123   9.133  21.938  0.00  0.00    +0.000 A 
ATOM     10  C   UNL     1      -0.620  10.125  22.591  0.00  0.00    +0.000 A 
BRANCH   5  11
ATOM     11  S   UNL     1      -1.427  12.746  23.006  0.00  0.00    +0.000 S 
BRANCH  11  16
ATOM     12  C   UNL     1      -6.971  12.825  20.398  0.00  0.00    +0.000 C 
ATOM     13  C   UNL     1      -5.612  12.804  21.031  0.00  0.00    +0.000 A 
ATOM     14  C   UNL     1      -4.458  12.831  20.252  0.00  0.00    +0.000 A 
ATOM     15  C   UNL     1      -3.198  12.802  20.857  0.00  0.00    +0.000 A 
ATOM     16  C   UNL     1      -3.056  12.735  22.253  0.00  0.00    +0.000 A 
ATOM     17  C   UNL     1      -4.222  12.732  23.048  0.00  0.00    +0.000 A 
ATOM     18  C   UNL     1      -4.221  12.680  24.555  0.00  0.00    +0.000 C 
ATOM     19  C   UNL     1      -5.480  12.751  22.423  0.00  0.00    +0.000 A 
ENDBRANCH  11  16
ENDBRANCH   5  11
ENDBRANCH   1   8
BRANCH   2  20
ATOM     20  C   UNL     1       2.487   6.948  18.491  0.00  0.00    +0.000 C 
BRANCH  20  21
ATOM     21  N   UNL     1       3.108   6.286  19.643  0.00  0.00    +0.000 N 
ATOM     22  N   UNL     1       4.427   5.908  19.387  0.00  0.00    +0.000 NA
ATOM     23  C   UNL     1       4.611   4.675  19.030  0.00  0.00    +0.000 A 
ATOM     24  C   UNL     1       3.507   3.731  18.912  0.00  0.00    +0.000 A 
ATOM     25  C   UNL     1       3.527   2.699  17.983  0.00  0.00    +0.000 A 
ATOM     26  C   UNL     1       2.383   1.915  17.836  0.00  0.00    +0.000 A 
ATOM     27  C   UNL     1       1.268   2.118  18.660  0.00  0.00    +0.000 A 
ATOM     28  C   UNL     1       1.260   3.158  19.590  0.00  0.00    +0.000 A 
ATOM     29  C   UNL     1       2.367   3.998  19.665  0.00  0.00    +0.000 A 
ATOM     30  C   UNL     1       2.232   5.357  20.236  0.00  0.00    +0.000 A 
ATOM     31  O   UNL     1       1.237   5.668  20.882  0.00  0.00    +0.000 OA
ENDBRANCH  20  21
ENDBRANCH   2  20
TORSDOF 5
ENDMDL
MODEL 7
REMARK VINA RESULT:      -8.2      1.133      1.436
REMARK  Name = 
REMARK  7 active torsions:
REMARK  status: ('A' for Active; 'I' for Inactive)
REMARK    1  A    between atoms: C_1  and  C_2
REMARK    2  A    between atoms: C_5  and  S_6
REMARK    3  A    between atoms: S_6  and  C_7
REMARK    4  A    between atoms: C_10  and  N_11
REMARK    5  A    between atoms: C_12  and  C_14
REMARK    6  A    between atoms: C_14  and  N_15
REMARK    7  A    between atoms: C_28  and  C_29
REMARK                            x       y       z     vdW  Elec       q    Type
REMARK                         _______ _______ _______ _____ _____    ______ ____
ROOT
ATOM      1  N   UNL     1       1.063  11.393  18.871  0.00  0.00    +0.000 N 
ATOM      2  C   UNL     1      -0.217  11.903  18.731  0.00  0.00    +0.000 C 
ATOM      3  O   UNL     1      -1.274  11.266  18.787  0.00  0.00    +0.000 OA
ATOM      4  H   UNL     1       1.826  12.065  18.919  0.00  0.00    +0.000 HD
ENDROOT
BRANCH   1   8
ATOM      5  C   UNL     1       2.110   7.319  19.208  0.00  0.00    +0.000 A 
ATOM      6  C   UNL     1       1.646   8.009  20.328  0.00  0.00    +0.000 A 
ATOM      7  C   UNL     1       1.284   9.352  20.230  0.00  0.00    +0.000 A 
ATOM      8  C   UNL     1       1.410  10.038  19.024  0.00  0.00    +0.000 A 
ATOM      9  C   UNL     1       1.900   9.353  17.904  0.00  0.00    +0.000 A 
ATOM     10  C   UNL     1       2.242   7.998  17.995  0.00  0.00    +0.000 A 
BRANCH   5  11
ATOM     11  S   UNL     1       2.589   5.618  19.375  0.00  0.00    +0.000 S 
BRANCH  11  16
ATOM     12  C   UNL     1       6.701   4.874  14.893  0.00  0.00    +0.000 C 
ATOM     13  C   UNL     1       5.699   5.060  15.992  0.00  0.00    +0.000 A 
ATOM     14  C   UNL     1       5.763   6.161  16.842  0.00  0.00    +0.000 A 
ATOM     15  C   UNL     1       4.826   6.316  17.868  0.00  0.00    +0.000 A 
ATOM     16  C   UNL     1       3.808   5.371  18.080  0.00  0.00    +0.000 A 
ATOM     17  C   UNL     1       3.723   4.266  17.207  0.00  0.00    +0.000 A 
ATOM     18  C   UNL     1       2.675   3.186  17.303  0.00  0.00    +0.000 C 
ATOM     19  C   UNL     1       4.679   4.122  16.187  0.00  0.00    +0.000 A 
ENDBRANCH  11  16
ENDBRANCH   5  11
ENDBRANCH   1   8
BRANCH   2  20
ATOM     20  C   UNL     1      -0.244  13.380  18.428  0.00  0.00    +0.000 C 
BRANCH  20  21
ATOM     21  N   UNL     1       0.092  14.209  19.591  0.00  0.00    +0.000 N 
ATOM     22  N   UNL     1      -1.030  14.838  20.133  0.00  0.00    +0.000 NA
ATOM     23  C   UNL     1      -1.235  16.064  19.764  0.00  0.00    +0.000 A 
ATOM     24  C   UNL     1      -0.341  16.754  18.844  0.00  0.00    +0.000 A 
ATOM     25  C   UNL     1      -0.806  17.723  17.965  0.00  0.00    +0.000 A 
ATOM     26  C   UNL     1       0.080  18.248  17.024  0.00  0.00    +0.000 A 
ATOM     27  C   UNL     1       1.426  17.860  17.018  0.00  0.00    +0.000 A 
ATOM     28  C   UNL     1       1.882  16.886  17.906  0.00  0.00    +0.000 A 
ATOM     29  C   UNL     1       0.971  16.295  18.779  0.00  0.00    +0.000 A 
ATOM     30  C   UNL     1       1.257  14.966  19.363  0.00  0.00    +0.000 A 
ATOM     31  O   UNL     1       2.385  14.488  19.310  0.00  0.00    +0.000 OA
ENDBRANCH  20  21
ENDBRANCH   2  20
TORSDOF 5
ENDMDL
MODEL 8
REMARK VINA RESULT:      -8.2      3.991     10.760
REMARK  Name = 
REMARK  7 active torsions:
REMARK  status: ('A' for Active; 'I' for Inactive)
REMARK    1  A    between atoms: C_1  and  C_2
REMARK    2  A    between atoms: C_5  and  S_6
REMARK    3  A    between atoms: S_6  and  C_7
REMARK    4  A    between atoms: C_10  and  N_11
REMARK    5  A    between atoms: C_12  and  C_14
REMARK    6  A    between atoms: C_14  and  N_15
REMARK    7  A    between atoms: C_28  and  C_29
REMARK                            x       y       z     vdW  Elec       q    Type
REMARK                         _______ _______ _______ _____ _____    ______ ____
ROOT
ATOM      1  N   UNL     1       1.027   8.973  19.232  0.00  0.00    +0.000 N 
ATOM      2  C   UNL     1       1.876   8.732  18.164  0.00  0.00    +0.000 C 
ATOM      3  O   UNL     1       2.317   9.569  17.371  0.00  0.00    +0.000 OA
ATOM      4  H   UNL     1       0.849   8.197  19.866  0.00  0.00    +0.000 HD
ENDROOT
BRANCH   1   8
ATOM      5  C   UNL     1      -0.796  12.670  20.136  0.00  0.00    +0.000 A 
ATOM      6  C   UNL     1       0.257  12.207  20.924  0.00  0.00    +0.000 A 
ATOM      7  C   UNL     1       0.878  10.993  20.632  0.00  0.00    +0.000 A 
ATOM      8  C   UNL     1       0.439  10.206  19.570  0.00  0.00    +0.000 A 
ATOM      9  C   UNL     1      -0.635  10.658  18.791  0.00  0.00    +0.000 A 
ATOM     10  C   UNL     1      -1.246  11.887  19.070  0.00  0.00    +0.000 A 
BRANCH   5  11
ATOM     11  S   UNL     1      -1.584  14.205  20.555  0.00  0.00    +0.000 S 
BRANCH  11  16
ATOM     12  C   UNL     1      -6.317  12.681  24.134  0.00  0.00    +0.000 C 
ATOM     13  C   UNL     1      -5.162  13.052  23.254  0.00  0.00    +0.000 A 
ATOM     14  C   UNL     1      -5.295  13.071  21.868  0.00  0.00    +0.000 A 
ATOM     15  C   UNL     1      -4.205  13.410  21.060  0.00  0.00    +0.000 A 
ATOM     16  C   UNL     1      -2.953  13.728  21.612  0.00  0.00    +0.000 A 
ATOM     17  C   UNL     1      -2.820  13.733  23.017  0.00  0.00    +0.000 A 
ATOM     18  C   UNL     1      -1.544  14.070  23.747  0.00  0.00    +0.000 C 
ATOM     19  C   UNL     1      -3.922  13.380  23.813  0.00  0.00    +0.000 A 
ENDBRANCH  11  16
ENDBRANCH   5  11
ENDBRANCH   1   8
BRANCH   2  20
ATOM     20  C   UNL     1       2.211   7.273  17.983  0.00  0.00    +0.000 C 
BRANCH  20  21
ATOM     21  N   UNL     1       3.073   6.746  19.045  0.00  0.00    +0.000 N 
ATOM     22  N   UNL     1       4.233   6.157  18.540  0.00  0.00    +0.000 NA
ATOM     23  C   UNL     1       4.211   4.867  18.407  0.00  0.00    +0.000 A 
ATOM     24  C   UNL     1       3.046   4.073  18.774  0.00  0.00    +0.000 A 
ATOM     25  C   UNL     1       2.723   2.901  18.103  0.00  0.00    +0.000 A 
ATOM     26  C   UNL     1       1.523   2.262  18.421  0.00  0.00    +0.000 A 
ATOM     27  C   UNL     1       0.704   2.753  19.445  0.00  0.00    +0.000 A 
ATOM     28  C   UNL     1       1.039   3.931  20.113  0.00  0.00    +0.000 A 
ATOM     29  C   UNL     1       2.188   4.617  19.725  0.00  0.00    +0.000 A 
ATOM     30  C   UNL     1       2.326   6.060  20.021  0.00  0.00    +0.000 A 
ATOM     31  O   UNL     1       1.581   6.608  20.825  0.00  0.00    +0.000 OA
ENDBRANCH  20  21
ENDBRANCH   2  20
TORSDOF 5
ENDMDL
MODEL 9
REMARK VINA RESULT:      -8.2      3.138      4.173
REMARK  Name = 
REMARK  7 active torsions:
REMARK  status: ('A' for Active; 'I' for Inactive)
REMARK    1  A    between atoms: C_1  and  C_2
REMARK    2  A    between atoms: C_5  and  S_6
REMARK    3  A    between atoms: S_6  and  C_7
REMARK    4  A    between atoms: C_10  and  N_11
REMARK    5  A    between atoms: C_12  and  C_14
REMARK    6  A    between atoms: C_14  and  N_15
REMARK    7  A    between atoms: C_28  and  C_29
REMARK                            x       y       z     vdW  Elec       q    Type
REMARK                         _______ _______ _______ _____ _____    ______ ____
ROOT
ATOM      1  N   UNL     1       1.407   8.862  19.387  0.00  0.00    +0.000 N 
ATOM      2  C   UNL     1       1.407  10.046  18.668  0.00  0.00    +0.000 C 
ATOM      3  O   UNL     1       2.043  10.280  17.635  0.00  0.00    +0.000 OA
ATOM      4  H   UNL     1       0.737   8.785  20.150  0.00  0.00    +0.000 HD
ENDROOT
BRANCH   1   8
ATOM      5  C   UNL     1       3.746   5.415  18.716  0.00  0.00    +0.000 A 
ATOM      6  C   UNL     1       3.727   6.434  17.764  0.00  0.00    +0.000 A 
ATOM      7  C   UNL     1       2.969   7.585  17.977  0.00  0.00    +0.000 A 
ATOM      8  C   UNL     1       2.192   7.724  19.124  0.00  0.00    +0.000 A 
ATOM      9  C   UNL     1       2.189   6.691  20.070  0.00  0.00    +0.000 A 
ATOM     10  C   UNL     1       2.968   5.544  19.869  0.00  0.00    +0.000 A 
BRANCH   5  11
ATOM     11  S   UNL     1       4.698   3.950  18.400  0.00  0.00    +0.000 S 
BRANCH  11  16
ATOM     12  C   UNL     1       7.683   5.047  13.162  0.00  0.00    +0.000 C 
ATOM     13  C   UNL     1       6.947   4.778  14.440  0.00  0.00    +0.000 A 
ATOM     14  C   UNL     1       5.687   4.187  14.431  0.00  0.00    +0.000 A 
ATOM     15  C   UNL     1       5.010   3.950  15.632  0.00  0.00    +0.000 A 
ATOM     16  C   UNL     1       5.568   4.308  16.871  0.00  0.00    +0.000 A 
ATOM     17  C   UNL     1       6.855   4.885  16.887  0.00  0.00    +0.000 A 
ATOM     18  C   UNL     1       7.583   5.300  18.141  0.00  0.00    +0.000 C 
ATOM     19  C   UNL     1       7.517   5.124  15.671  0.00  0.00    +0.000 A 
ENDBRANCH  11  16
ENDBRANCH   5  11
ENDBRANCH   1   8
BRANCH   2  20
ATOM     20  C   UNL     1       0.568  11.130  19.297  0.00  0.00    +0.000 C 
BRANCH  20  21
ATOM     21  N   UNL     1      -0.732  10.644  19.773  0.00  0.00    +0.000 N 
ATOM     22  N   UNL     1      -1.789  11.116  18.994  0.00  0.00    +0.000 NA
ATOM     23  C   UNL     1      -2.413  12.160  19.445  0.00  0.00    +0.000 A 
ATOM     24  C   UNL     1      -2.041  12.800  20.700  0.00  0.00    +0.000 A 
ATOM     25  C   UNL     1      -2.193  14.167  20.893  0.00  0.00    +0.000 A 
ATOM     26  C   UNL     1      -1.696  14.731  22.069  0.00  0.00    +0.000 A 
ATOM     27  C   UNL     1      -1.125  13.923  23.061  0.00  0.00    +0.000 A 
ATOM     28  C   UNL     1      -0.979  12.552  22.856  0.00  0.00    +0.000 A 
ATOM     29  C   UNL     1      -1.389  12.008  21.641  0.00  0.00    +0.000 A 
ATOM     30  C   UNL     1      -0.827  10.721  21.175  0.00  0.00    +0.000 A 
ATOM     31  O   UNL     1      -0.212   9.992  21.945  0.00  0.00    +0.000 OA
ENDBRANCH  20  21
ENDBRANCH   2  20
TORSDOF 5
ENDMDL
