MODEL 1
REMARK VINA RESULT:      -8.6      0.000      0.000
REMARK  Name = 
REMARK  6 active torsions:
REMARK  status: ('A' for Active; 'I' for Inactive)
REMARK    1  A    between atoms: C_2  and  C_3
REMARK    2  A    between atoms: C_3  and  N_4
REMARK    3  A    between atoms: N_13  and  C_14
REMARK    4  A    between atoms: C_14  and  C_15
REMARK    5  A    between atoms: C_15  and  C_16
REMARK    6  A    between atoms: C_20  and  C_21
REMARK                            x       y       z     vdW  Elec       q    Type
REMARK                         _______ _______ _______ _____ _____    ______ ____
ROOT
ATOM      1  C   UNL     1       1.919   5.582  20.462  0.00  0.00    +0.000 C 
ENDROOT
BRANCH   1   2
ATOM      2  C   UNL     1       2.586   4.665  19.390  0.00  0.00    +0.000 C 
ATOM      3  C   UNL     1       1.559   4.194  18.326  0.00  0.00    +0.000 C 
ATOM      4  C   UNL     1       2.084   2.859  17.791  0.00  0.00    +0.000 C 
ATOM      5  C   UNL     1       3.071   2.332  18.827  0.00  0.00    +0.000 C 
ATOM      6  C   UNL     1       2.992   3.298  20.004  0.00  0.00    +0.000 C 
BRANCH   2   7
ATOM      7  C   UNL     1       3.751   5.417  18.692  0.00  0.00    +0.000 A 
ATOM      8  C   UNL     1       3.509   6.178  17.533  0.00  0.00    +0.000 A 
ATOM      9  C   UNL     1       4.546   6.817  16.845  0.00  0.00    +0.000 A 
ATOM     10  C   UNL     1       5.860   6.698  17.285  0.00  0.00    +0.000 A 
ATOM     11  C   UNL     1       6.146   5.954  18.432  0.00  0.00    +0.000 A 
ATOM     12  C   UNL     1       5.085   5.349  19.136  0.00  0.00    +0.000 A 
BRANCH  11  13
ATOM     13  C   UNL     1       7.566   5.757  18.906  0.00  0.00    +0.000 C 
ATOM     14  F   UNL     1       8.190   4.686  18.341  0.00  0.00    +0.000 F 
ATOM     15  F   UNL     1       8.359   6.832  18.648  0.00  0.00    +0.000 F 
ATOM     16  F   UNL     1       7.638   5.558  20.253  0.00  0.00    +0.000 F 
ENDBRANCH  11  13
ENDBRANCH   2   7
ENDBRANCH   1   2
BRANCH   1  19
ATOM     17  O   UNL     1       0.293   7.689  21.476  0.00  0.00    +0.000 OA
ATOM     18  C   UNL     1       1.286   7.964  20.808  0.00  0.00    +0.000 C 
ATOM     19  N   UNL     1       2.129   7.016  20.267  0.00  0.00    +0.000 N 
ATOM     20  H   UNL     1       2.761   7.338  19.539  0.00  0.00    +0.000 HD
BRANCH  18  21
ATOM     21  C   UNL     1       1.656   9.407  20.448  0.00  0.00    +0.000 C 
BRANCH  21  22
ATOM     22  N   UNL     1       0.611  10.024  19.629  0.00  0.00    +0.000 N 
ATOM     23  C   UNL     1      -0.316  10.862  20.218  0.00  0.00    +0.000 A 
ATOM     24  C   UNL     1      -1.320  11.423  19.532  0.00  0.00    +0.000 A 
ATOM     25 BR   UNL     1      -2.562  12.564  20.317  0.00  0.00    +0.000 Br
ATOM     26  C   UNL     1      -1.437  11.100  18.083  0.00  0.00    +0.000 A 
ATOM     27  O   UNL     1      -2.352  11.503  17.376  0.00  0.00    +0.000 OA
ATOM     28  N   UNL     1      -0.445  10.304  17.569  0.00  0.00    +0.000 N 
ATOM     29  C   UNL     1       0.562   9.708  18.279  0.00  0.00    +0.000 A 
ATOM     30  O   UNL     1       1.346   8.929  17.738  0.00  0.00    +0.000 OA
ATOM     31  H   UNL     1      -0.519  10.071  16.592  0.00  0.00    +0.000 HD
ENDBRANCH  21  22
ENDBRANCH  18  21
ENDBRANCH   1  19
TORSDOF 6
ENDMDL
MODEL 2
REMARK VINA RESULT:      -8.5      1.288      1.755
REMARK  Name = 
REMARK  6 active torsions:
REMARK  status: ('A' for Active; 'I' for Inactive)
REMARK    1  A    between atoms: C_2  and  C_3
REMARK    2  A    between atoms: C_3  and  N_4
REMARK    3  A    between atoms: N_13  and  C_14
REMARK    4  A    between atoms: C_14  and  C_15
REMARK    5  A    between atoms: C_15  and  C_16
REMARK    6  A    between atoms: C_20  and  C_21
REMARK                            x       y       z     vdW  Elec       q    Type
REMARK                         _______ _______ _______ _____ _____    ______ ____
ROOT
ATOM      1  C   UNL     1       1.975   5.580  20.555  0.00  0.00    +0.000 C 
ENDROOT
BRANCH   1   2
ATOM      2  C   UNL     1       2.615   4.632  19.495  0.00  0.00    +0.000 C 
ATOM      3  C   UNL     1       1.566   4.141  18.462  0.00  0.00    +0.000 C 
ATOM      4  C   UNL     1       2.072   2.789  17.952  0.00  0.00    +0.000 C 
ATOM      5  C   UNL     1       3.074   2.282  18.983  0.00  0.00    +0.000 C 
ATOM      6  C   UNL     1       3.023   3.278  20.136  0.00  0.00    +0.000 C 
BRANCH   2   7
ATOM      7  C   UNL     1       3.772   5.357  18.757  0.00  0.00    +0.000 A 
ATOM      8  C   UNL     1       3.521   6.059  17.563  0.00  0.00    +0.000 A 
ATOM      9  C   UNL     1       4.551   6.671  16.841  0.00  0.00    +0.000 A 
ATOM     10  C   UNL     1       5.868   6.583  17.282  0.00  0.00    +0.000 A 
ATOM     11  C   UNL     1       6.163   5.898  18.463  0.00  0.00    +0.000 A 
ATOM     12  C   UNL     1       5.108   5.320  19.200  0.00  0.00    +0.000 A 
BRANCH  11  13
ATOM     13  C   UNL     1       7.586   5.735  18.941  0.00  0.00    +0.000 C 
ATOM     14  F   UNL     1       7.694   5.548  20.286  0.00  0.00    +0.000 F 
ATOM     15  F   UNL     1       8.214   4.675  18.364  0.00  0.00    +0.000 F 
ATOM     16  F   UNL     1       8.355   6.823  18.656  0.00  0.00    +0.000 F 
ENDBRANCH  11  13
ENDBRANCH   2   7
ENDBRANCH   1   2
BRANCH   1  19
ATOM     17  O   UNL     1       0.290   7.675  21.497  0.00  0.00    +0.000 OA
ATOM     18  C   UNL     1       1.254   7.952  20.788  0.00  0.00    +0.000 C 
ATOM     19  N   UNL     1       2.121   7.009  20.276  0.00  0.00    +0.000 N 
ATOM     20  H   UNL     1       2.720   7.315  19.515  0.00  0.00    +0.000 HD
BRANCH  18  21
ATOM     21  C   UNL     1       1.555   9.386  20.340  0.00  0.00    +0.000 C 
BRANCH  21  22
ATOM     22  N   UNL     1       0.318  10.107  20.033  0.00  0.00    +0.000 N 
ATOM     23  C   UNL     1      -0.314   9.898  18.823  0.00  0.00    +0.000 A 
ATOM     24  C   UNL     1      -1.424  10.557  18.465  0.00  0.00    +0.000 A 
ATOM     25 BR   UNL     1      -2.287  10.270  16.843  0.00  0.00    +0.000 Br
ATOM     26  C   UNL     1      -1.969  11.565  19.415  0.00  0.00    +0.000 A 
ATOM     27  O   UNL     1      -2.938  12.271  19.164  0.00  0.00    +0.000 OA
ATOM     28  N   UNL     1      -1.311  11.670  20.614  0.00  0.00    +0.000 N 
ATOM     29  C   UNL     1      -0.160  11.017  20.964  0.00  0.00    +0.000 A 
ATOM     30  O   UNL     1       0.407  11.256  22.029  0.00  0.00    +0.000 OA
ATOM     31  H   UNL     1      -1.665  12.356  21.262  0.00  0.00    +0.000 HD
ENDBRANCH  21  22
ENDBRANCH  18  21
ENDBRANCH   1  19
TORSDOF 6
ENDMDL
MODEL 3
REMARK VINA RESULT:      -8.4      2.837      3.454
REMARK  Name = 
REMARK  6 active torsions:
REMARK  status: ('A' for Active; 'I' for Inactive)
REMARK    1  A    between atoms: C_2  and  C_3
REMARK    2  A    between atoms: C_3  and  N_4
REMARK    3  A    between atoms: N_13  and  C_14
REMARK    4  A    between atoms: C_14  and  C_15
REMARK    5  A    between atoms: C_15  and  C_16
REMARK    6  A    between atoms: C_20  and  C_21
REMARK                            x       y       z     vdW  Elec       q    Type
REMARK                         _______ _______ _______ _____ _____    ______ ____
ROOT
ATOM      1  C   UNL     1       3.559   5.492  19.544  0.00  0.00    +0.000 C 
ENDROOT
BRANCH   1   2
ATOM      2  C   UNL     1       3.732   4.197  18.692  0.00  0.00    +0.000 C 
ATOM      3  C   UNL     1       2.514   3.963  17.759  0.00  0.00    +0.000 C 
ATOM      4  C   UNL     1       2.445   2.453  17.521  0.00  0.00    +0.000 C 
ATOM      5  C   UNL     1       3.245   1.798  18.642  0.00  0.00    +0.000 C 
ATOM      6  C   UNL     1       3.642   2.930  19.584  0.00  0.00    +0.000 C 
BRANCH   2   7
ATOM      7  C   UNL     1       5.029   4.283  17.844  0.00  0.00    +0.000 A 
ATOM      8  C   UNL     1       6.262   4.567  18.461  0.00  0.00    +0.000 A 
ATOM      9  C   UNL     1       7.438   4.712  17.718  0.00  0.00    +0.000 A 
ATOM     10  C   UNL     1       7.413   4.598  16.331  0.00  0.00    +0.000 A 
ATOM     11  C   UNL     1       6.212   4.316  15.678  0.00  0.00    +0.000 A 
ATOM     12  C   UNL     1       5.043   4.133  16.444  0.00  0.00    +0.000 A 
BRANCH  11  13
ATOM     13  C   UNL     1       6.137   4.241  14.171  0.00  0.00    +0.000 C 
ATOM     14  F   UNL     1       6.990   5.091  13.536  0.00  0.00    +0.000 F 
ATOM     15  F   UNL     1       6.422   2.999  13.693  0.00  0.00    +0.000 F 
ATOM     16  F   UNL     1       4.895   4.543  13.700  0.00  0.00    +0.000 F 
ENDBRANCH  11  13
ENDBRANCH   2   7
ENDBRANCH   1   2
BRANCH   1  19
ATOM     17  O   UNL     1       3.907   7.736  17.824  0.00  0.00    +0.000 OA
ATOM     18  C   UNL     1       2.783   7.463  18.237  0.00  0.00    +0.000 C 
ATOM     19  N   UNL     1       2.515   6.405  19.080  0.00  0.00    +0.000 N 
ATOM     20  H   UNL     1       1.614   6.421  19.550  0.00  0.00    +0.000 HD
BRANCH  18  21
ATOM     21  C   UNL     1       1.559   8.324  17.907  0.00  0.00    +0.000 C 
BRANCH  21  22
ATOM     22  N   UNL     1       1.377   9.377  18.908  0.00  0.00    +0.000 N 
ATOM     23  C   UNL     1       0.820   9.066  20.135  0.00  0.00    +0.000 A 
ATOM     24  C   UNL     1       0.588   9.989  21.076  0.00  0.00    +0.000 A 
ATOM     25 BR   UNL     1      -0.147   9.575  22.734  0.00  0.00    +0.000 Br
ATOM     26  C   UNL     1       0.930  11.404  20.761  0.00  0.00    +0.000 A 
ATOM     27  O   UNL     1       0.699  12.337  21.520  0.00  0.00    +0.000 OA
ATOM     28  N   UNL     1       1.526  11.615  19.544  0.00  0.00    +0.000 N 
ATOM     29  C   UNL     1       1.735  10.674  18.572  0.00  0.00    +0.000 A 
ATOM     30  O   UNL     1       2.189  10.986  17.472  0.00  0.00    +0.000 OA
ATOM     31  H   UNL     1       1.754  12.569  19.315  0.00  0.00    +0.000 HD
ENDBRANCH  21  22
ENDBRANCH  18  21
ENDBRANCH   1  19
TORSDOF 6
ENDMDL
MODEL 4
REMARK VINA RESULT:      -8.4      2.333      3.159
REMARK  Name = 
REMARK  6 active torsions:
REMARK  status: ('A' for Active; 'I' for Inactive)
REMARK    1  A    between atoms: C_2  and  C_3
REMARK    2  A    between atoms: C_3  and  N_4
REMARK    3  A    between atoms: N_13  and  C_14
REMARK    4  A    between atoms: C_14  and  C_15
REMARK    5  A    between atoms: C_15  and  C_16
REMARK    6  A    between atoms: C_20  and  C_21
REMARK                            x       y       z     vdW  Elec       q    Type
REMARK                         _______ _______ _______ _____ _____    ______ ____
ROOT
ATOM      1  C   UNL     1       2.399   7.344  17.933  0.00  0.00    +0.000 C 
ENDROOT
BRANCH   1   2
ATOM      2  C   UNL     1       2.630   5.913  18.511  0.00  0.00    +0.000 C 
ATOM      3  C   UNL     1       1.619   4.893  17.924  0.00  0.00    +0.000 C 
ATOM      4  C   UNL     1       1.466   3.793  18.978  0.00  0.00    +0.000 C 
ATOM      5  C   UNL     1       1.953   4.383  20.297  0.00  0.00    +0.000 C 
ATOM      6  C   UNL     1       2.243   5.853  20.013  0.00  0.00    +0.000 C 
BRANCH   2   7
ATOM      7  C   UNL     1       4.078   5.442  18.211  0.00  0.00    +0.000 A 
ATOM      8  C   UNL     1       5.046   5.431  19.233  0.00  0.00    +0.000 A 
ATOM      9  C   UNL     1       6.374   5.071  18.983  0.00  0.00    +0.000 A 
ATOM     10  C   UNL     1       6.780   4.730  17.696  0.00  0.00    +0.000 A 
ATOM     11  C   UNL     1       5.853   4.725  16.652  0.00  0.00    +0.000 A 
ATOM     12  C   UNL     1       4.509   5.052  16.929  0.00  0.00    +0.000 A 
BRANCH  11  13
ATOM     13  C   UNL     1       6.269   4.414  15.234  0.00  0.00    +0.000 C 
ATOM     14  F   UNL     1       5.496   5.020  14.290  0.00  0.00    +0.000 F 
ATOM     15  F   UNL     1       7.549   4.791  14.968  0.00  0.00    +0.000 F 
ATOM     16  F   UNL     1       6.210   3.080  14.959  0.00  0.00    +0.000 F 
ENDBRANCH  11  13
ENDBRANCH   2   7
ENDBRANCH   1   2
BRANCH   1  19
ATOM     17  O   UNL     1       2.076  10.151  17.569  0.00  0.00    +0.000 OA
ATOM     18  C   UNL     1       1.569   9.609  18.548  0.00  0.00    +0.000 C 
ATOM     19  N   UNL     1       1.677   8.260  18.815  0.00  0.00    +0.000 N 
ATOM     20  H   UNL     1       1.440   7.968  19.759  0.00  0.00    +0.000 HD
BRANCH  18  21
ATOM     21  C   UNL     1       0.812  10.399  19.620  0.00  0.00    +0.000 C 
BRANCH  21  22
ATOM     22  N   UNL     1      -0.535  10.742  19.161  0.00  0.00    +0.000 N 
ATOM     23  C   UNL     1      -1.000  10.236  17.962  0.00  0.00    +0.000 A 
ATOM     24  C   UNL     1      -2.204  10.544  17.466  0.00  0.00    +0.000 A 
ATOM     25 BR   UNL     1      -2.840   9.855  15.860  0.00  0.00    +0.000 Br
ATOM     26  C   UNL     1      -3.054  11.489  18.243  0.00  0.00    +0.000 A 
ATOM     27  O   UNL     1      -4.142  11.892  17.853  0.00  0.00    +0.000 OA
ATOM     28  N   UNL     1      -2.538  11.901  19.446  0.00  0.00    +0.000 N 
ATOM     29  C   UNL     1      -1.294  11.607  19.935  0.00  0.00    +0.000 A 
ATOM     30  O   UNL     1      -0.888  12.108  20.983  0.00  0.00    +0.000 OA
ATOM     31  H   UNL     1      -3.099  12.548  19.977  0.00  0.00    +0.000 HD
ENDBRANCH  21  22
ENDBRANCH  18  21
ENDBRANCH   1  19
TORSDOF 6
ENDMDL
MODEL 5
REMARK VINA RESULT:      -8.3      2.535      3.531
REMARK  Name = 
REMARK  6 active torsions:
REMARK  status: ('A' for Active; 'I' for Inactive)
REMARK    1  A    between atoms: C_2  and  C_3
REMARK    2  A    between atoms: C_3  and  N_4
REMARK    3  A    between atoms: N_13  and  C_14
REMARK    4  A    between atoms: C_14  and  C_15
REMARK    5  A    between atoms: C_15  and  C_16
REMARK    6  A    between atoms: C_20  and  C_21
REMARK                            x       y       z     vdW  Elec       q    Type
REMARK                         _______ _______ _______ _____ _____    ______ ____
ROOT
ATOM      1  C   UNL     1       2.997   7.698  17.873  0.00  0.00    +0.000 C 
ENDROOT
BRANCH   1   2
ATOM      2  C   UNL     1       3.130   6.226  18.373  0.00  0.00    +0.000 C 
ATOM      3  C   UNL     1       1.974   5.339  17.842  0.00  0.00    +0.000 C 
ATOM      4  C   UNL     1       1.801   4.211  18.862  0.00  0.00    +0.000 C 
ATOM      5  C   UNL     1       2.457   4.688  20.154  0.00  0.00    +0.000 C 
ATOM      6  C   UNL     1       2.870   6.133  19.900  0.00  0.00    +0.000 C 
BRANCH   2   7
ATOM      7  C   UNL     1       4.491   5.630  17.925  0.00  0.00    +0.000 A 
ATOM      8  C   UNL     1       5.553   5.519  18.843  0.00  0.00    +0.000 A 
ATOM      9  C   UNL     1       6.810   5.043  18.457  0.00  0.00    +0.000 A 
ATOM     10  C   UNL     1       7.051   4.683  17.134  0.00  0.00    +0.000 A 
ATOM     11  C   UNL     1       6.026   4.776  16.190  0.00  0.00    +0.000 A 
ATOM     12  C   UNL     1       4.753   5.219  16.604  0.00  0.00    +0.000 A 
BRANCH  11  13
ATOM     13  C   UNL     1       6.266   4.447  14.736  0.00  0.00    +0.000 C 
ATOM     14  F   UNL     1       6.403   3.115  14.490  0.00  0.00    +0.000 F 
ATOM     15  F   UNL     1       5.258   4.876  13.928  0.00  0.00    +0.000 F 
ATOM     16  F   UNL     1       7.401   5.030  14.255  0.00  0.00    +0.000 F 
ENDBRANCH  11  13
ENDBRANCH   2   7
ENDBRANCH   1   2
BRANCH   1  19
ATOM     17  O   UNL     1       2.319  10.465  17.863  0.00  0.00    +0.000 OA
ATOM     18  C   UNL     1       1.425   9.627  17.949  0.00  0.00    +0.000 C 
ATOM     19  N   UNL     1       1.653   8.267  17.972  0.00  0.00    +0.000 N 
ATOM     20  H   UNL     1       0.883   7.687  18.293  0.00  0.00    +0.000 HD
BRANCH  18  21
ATOM     21  C   UNL     1      -0.048  10.016  18.111  0.00  0.00    +0.000 C 
BRANCH  21  22
ATOM     22  N   UNL     1      -0.275  10.673  19.399  0.00  0.00    +0.000 N 
ATOM     23  C   UNL     1      -0.124   9.956  20.571  0.00  0.00    +0.000 A 
ATOM     24  C   UNL     1      -0.358  10.486  21.778  0.00  0.00    +0.000 A 
ATOM     25 BR   UNL     1      -0.141   9.529  23.358  0.00  0.00    +0.000 Br
ATOM     26  C   UNL     1      -0.819  11.901  21.837  0.00  0.00    +0.000 A 
ATOM     27  O   UNL     1      -1.126  12.465  22.879  0.00  0.00    +0.000 OA
ATOM     28  N   UNL     1      -0.891  12.554  20.633  0.00  0.00    +0.000 N 
ATOM     29  C   UNL     1      -0.681  12.000  19.398  0.00  0.00    +0.000 A 
ATOM     30  O   UNL     1      -0.867  12.649  18.370  0.00  0.00    +0.000 OA
ATOM     31  H   UNL     1      -1.211  13.509  20.659  0.00  0.00    +0.000 HD
ENDBRANCH  21  22
ENDBRANCH  18  21
ENDBRANCH   1  19
TORSDOF 6
ENDMDL
MODEL 6
REMARK VINA RESULT:      -8.3      1.720      2.006
REMARK  Name = 
REMARK  6 active torsions:
REMARK  status: ('A' for Active; 'I' for Inactive)
REMARK    1  A    between atoms: C_2  and  C_3
REMARK    2  A    between atoms: C_3  and  N_4
REMARK    3  A    between atoms: N_13  and  C_14
REMARK    4  A    between atoms: C_14  and  C_15
REMARK    5  A    between atoms: C_15  and  C_16
REMARK    6  A    between atoms: C_20  and  C_21
REMARK                            x       y       z     vdW  Elec       q    Type
REMARK                         _______ _______ _______ _____ _____    ______ ____
ROOT
ATOM      1  C   UNL     1       2.151   6.068  20.742  0.00  0.00    +0.000 C 
ENDROOT
BRANCH   1   2
ATOM      2  C   UNL     1       2.622   5.037  19.671  0.00  0.00    +0.000 C 
ATOM      3  C   UNL     1       1.466   4.643  18.714  0.00  0.00    +0.000 C 
ATOM      4  C   UNL     1       1.793   3.236  18.208  0.00  0.00    +0.000 C 
ATOM      5  C   UNL     1       2.798   2.643  19.191  0.00  0.00    +0.000 C 
ATOM      6  C   UNL     1       2.923   3.660  20.320  0.00  0.00    +0.000 C 
BRANCH   2   7
ATOM      7  C   UNL     1       3.801   5.621  18.848  0.00  0.00    +0.000 A 
ATOM      8  C   UNL     1       3.561   6.248  17.611  0.00  0.00    +0.000 A 
ATOM      9  C   UNL     1       4.607   6.730  16.816  0.00  0.00    +0.000 A 
ATOM     10  C   UNL     1       5.928   6.581  17.227  0.00  0.00    +0.000 A 
ATOM     11  C   UNL     1       6.213   5.968  18.449  0.00  0.00    +0.000 A 
ATOM     12  C   UNL     1       5.146   5.523  19.256  0.00  0.00    +0.000 A 
BRANCH  11  13
ATOM     13  C   UNL     1       7.636   5.740  18.900  0.00  0.00    +0.000 C 
ATOM     14  F   UNL     1       7.754   5.484  20.233  0.00  0.00    +0.000 F 
ATOM     15  F   UNL     1       8.227   4.692  18.263  0.00  0.00    +0.000 F 
ATOM     16  F   UNL     1       8.433   6.819  18.659  0.00  0.00    +0.000 F 
ENDBRANCH  11  13
ENDBRANCH   2   7
ENDBRANCH   1   2
BRANCH   1  19
ATOM     17  O   UNL     1       1.658   8.567  22.018  0.00  0.00    +0.000 OA
ATOM     18  C   UNL     1       1.153   8.342  20.922  0.00  0.00    +0.000 C 
ATOM     19  N   UNL     1       1.324   7.161  20.230  0.00  0.00    +0.000 N 
ATOM     20  H   UNL     1       0.674   6.986  19.469  0.00  0.00    +0.000 HD
BRANCH  18  21
ATOM     21  C   UNL     1       0.213   9.338  20.234  0.00  0.00    +0.000 C 
BRANCH  21  22
ATOM     22  N   UNL     1       0.965  10.466  19.682  0.00  0.00    +0.000 N 
ATOM     23  C   UNL     1       1.061  11.643  20.401  0.00  0.00    +0.000 A 
ATOM     24  C   UNL     1       1.697  12.724  19.933  0.00  0.00    +0.000 A 
ATOM     25 BR   UNL     1       1.843  14.305  20.903  0.00  0.00    +0.000 Br
ATOM     26  C   UNL     1       2.299  12.643  18.574  0.00  0.00    +0.000 A 
ATOM     27  O   UNL     1       2.845  13.589  18.021  0.00  0.00    +0.000 OA
ATOM     28  N   UNL     1       2.203  11.423  17.953  0.00  0.00    +0.000 N 
ATOM     29  C   UNL     1       1.526  10.329  18.421  0.00  0.00    +0.000 A 
ATOM     30  O   UNL     1       1.417   9.310  17.740  0.00  0.00    +0.000 OA
ATOM     31  H   UNL     1       2.598  11.358  17.028  0.00  0.00    +0.000 HD
ENDBRANCH  21  22
ENDBRANCH  18  21
ENDBRANCH   1  19
TORSDOF 6
ENDMDL
MODEL 7
REMARK VINA RESULT:      -8.3      2.275      2.787
REMARK  Name = 
REMARK  6 active torsions:
REMARK  status: ('A' for Active; 'I' for Inactive)
REMARK    1  A    between atoms: C_2  and  C_3
REMARK    2  A    between atoms: C_3  and  N_4
REMARK    3  A    between atoms: N_13  and  C_14
REMARK    4  A    between atoms: C_14  and  C_15
REMARK    5  A    between atoms: C_15  and  C_16
REMARK    6  A    between atoms: C_20  and  C_21
REMARK                            x       y       z     vdW  Elec       q    Type
REMARK                         _______ _______ _______ _____ _____    ______ ____
ROOT
ATOM      1  C   UNL     1       2.920   6.027  19.610  0.00  0.00    +0.000 C 
ENDROOT
BRANCH   1   2
ATOM      2  C   UNL     1       3.233   4.668  18.910  0.00  0.00    +0.000 C 
ATOM      3  C   UNL     1       2.179   4.332  17.822  0.00  0.00    +0.000 C 
ATOM      4  C   UNL     1       2.157   2.806  17.708  0.00  0.00    +0.000 C 
ATOM      5  C   UNL     1       2.775   2.265  18.993  0.00  0.00    +0.000 C 
ATOM      6  C   UNL     1       3.012   3.479  19.883  0.00  0.00    +0.000 C 
BRANCH   2   7
ATOM      7  C   UNL     1       4.647   4.708  18.270  0.00  0.00    +0.000 A 
ATOM      8  C   UNL     1       5.777   4.977  19.066  0.00  0.00    +0.000 A 
ATOM      9  C   UNL     1       7.057   5.081  18.511  0.00  0.00    +0.000 A 
ATOM     10  C   UNL     1       7.242   4.939  17.139  0.00  0.00    +0.000 A 
ATOM     11  C   UNL     1       6.149   4.669  16.312  0.00  0.00    +0.000 A 
ATOM     12  C   UNL     1       4.872   4.528  16.892  0.00  0.00    +0.000 A 
BRANCH  11  13
ATOM     13  C   UNL     1       6.305   4.564  14.814  0.00  0.00    +0.000 C 
ATOM     14  F   UNL     1       7.445   5.139  14.339  0.00  0.00    +0.000 F 
ATOM     15  F   UNL     1       6.326   3.274  14.378  0.00  0.00    +0.000 F 
ATOM     16  F   UNL     1       5.281   5.165  14.145  0.00  0.00    +0.000 F 
ENDBRANCH  11  13
ENDBRANCH   2   7
ENDBRANCH   1   2
BRANCH   1  19
ATOM     17  O   UNL     1       1.562   8.448  20.248  0.00  0.00    +0.000 OA
ATOM     18  C   UNL     1       1.995   8.283  19.111  0.00  0.00    +0.000 C 
ATOM     19  N   UNL     1       2.657   7.144  18.703  0.00  0.00    +0.000 N 
ATOM     20  H   UNL     1       2.748   7.011  17.699  0.00  0.00    +0.000 HD
BRANCH  18  21
ATOM     21  C   UNL     1       1.781   9.314  17.997  0.00  0.00    +0.000 C 
BRANCH  21  22
ATOM     22  N   UNL     1       0.596  10.131  18.263  0.00  0.00    +0.000 N 
ATOM     23  C   UNL     1      -0.650   9.680  17.871  0.00  0.00    +0.000 A 
ATOM     24  C   UNL     1      -1.766  10.397  18.047  0.00  0.00    +0.000 A 
ATOM     25 BR   UNL     1      -3.447   9.789  17.534  0.00  0.00    +0.000 Br
ATOM     26  C   UNL     1      -1.635  11.742  18.673  0.00  0.00    +0.000 A 
ATOM     27  O   UNL     1      -2.578  12.510  18.822  0.00  0.00    +0.000 OA
ATOM     28  N   UNL     1      -0.372  12.089  19.080  0.00  0.00    +0.000 N 
ATOM     29  C   UNL     1       0.772  11.366  18.871  0.00  0.00    +0.000 A 
ATOM     30  O   UNL     1       1.873  11.812  19.189  0.00  0.00    +0.000 OA
ATOM     31  H   UNL     1      -0.269  13.000  19.497  0.00  0.00    +0.000 HD
ENDBRANCH  21  22
ENDBRANCH  18  21
ENDBRANCH   1  19
TORSDOF 6
ENDMDL
MODEL 8
REMARK VINA RESULT:      -8.3      1.841      2.495
REMARK  Name = 
REMARK  6 active torsions:
REMARK  status: ('A' for Active; 'I' for Inactive)
REMARK    1  A    between atoms: C_2  and  C_3
REMARK    2  A    between atoms: C_3  and  N_4
REMARK    3  A    between atoms: N_13  and  C_14
REMARK    4  A    between atoms: C_14  and  C_15
REMARK    5  A    between atoms: C_15  and  C_16
REMARK    6  A    between atoms: C_20  and  C_21
REMARK                            x       y       z     vdW  Elec       q    Type
REMARK                         _______ _______ _______ _____ _____    ______ ____
ROOT
ATOM      1  C   UNL     1       2.394   7.276  17.742  0.00  0.00    +0.000 C 
ENDROOT
BRANCH   1   2
ATOM      2  C   UNL     1       2.744   5.866  18.312  0.00  0.00    +0.000 C 
ATOM      3  C   UNL     1       1.704   4.801  17.873  0.00  0.00    +0.000 C 
ATOM      4  C   UNL     1       1.720   3.720  18.956  0.00  0.00    +0.000 C 
ATOM      5  C   UNL     1       2.345   4.354  20.195  0.00  0.00    +0.000 C 
ATOM      6  C   UNL     1       2.546   5.825  19.851  0.00  0.00    +0.000 C 
BRANCH   2   7
ATOM      7  C   UNL     1       4.159   5.436  17.843  0.00  0.00    +0.000 A 
ATOM      8  C   UNL     1       4.312   4.629  16.700  0.00  0.00    +0.000 A 
ATOM      9  C   UNL     1       5.568   4.173  16.286  0.00  0.00    +0.000 A 
ATOM     10  C   UNL     1       6.709   4.495  17.016  0.00  0.00    +0.000 A 
ATOM     11  C   UNL     1       6.604   5.295  18.155  0.00  0.00    +0.000 A 
ATOM     12  C   UNL     1       5.336   5.779  18.536  0.00  0.00    +0.000 A 
BRANCH  11  13
ATOM     13  C   UNL     1       7.812   5.618  19.002  0.00  0.00    +0.000 C 
ATOM     14  F   UNL     1       8.824   4.714  18.881  0.00  0.00    +0.000 F 
ATOM     15  F   UNL     1       8.354   6.829  18.701  0.00  0.00    +0.000 F 
ATOM     16  F   UNL     1       7.514   5.664  20.331  0.00  0.00    +0.000 F 
ENDBRANCH  11  13
ENDBRANCH   2   7
ENDBRANCH   1   2
BRANCH   1  19
ATOM     17  O   UNL     1       2.101  10.100  17.513  0.00  0.00    +0.000 OA
ATOM     18  C   UNL     1       1.583   9.517  18.461  0.00  0.00    +0.000 C 
ATOM     19  N   UNL     1       1.675   8.156  18.664  0.00  0.00    +0.000 N 
ATOM     20  H   UNL     1       1.429   7.821  19.591  0.00  0.00    +0.000 HD
BRANCH  18  21
ATOM     21  C   UNL     1       0.827  10.263  19.566  0.00  0.00    +0.000 C 
BRANCH  21  22
ATOM     22  N   UNL     1      -0.514  10.642  19.115  0.00  0.00    +0.000 N 
ATOM     23  C   UNL     1      -0.986  10.176  17.903  0.00  0.00    +0.000 A 
ATOM     24  C   UNL     1      -2.185  10.520  17.415  0.00  0.00    +0.000 A 
ATOM     25 BR   UNL     1      -2.832   9.885  15.791  0.00  0.00    +0.000 Br
ATOM     26  C   UNL     1      -3.017  11.460  18.217  0.00  0.00    +0.000 A 
ATOM     27  O   UNL     1      -4.098  11.893  17.837  0.00  0.00    +0.000 OA
ATOM     28  N   UNL     1      -2.495  11.830  19.430  0.00  0.00    +0.000 N 
ATOM     29  C   UNL     1      -1.257  11.501  19.912  0.00  0.00    +0.000 A 
ATOM     30  O   UNL     1      -0.843  11.967  20.972  0.00  0.00    +0.000 OA
ATOM     31  H   UNL     1      -3.044  12.473  19.977  0.00  0.00    +0.000 HD
ENDBRANCH  21  22
ENDBRANCH  18  21
ENDBRANCH   1  19
TORSDOF 6
ENDMDL
MODEL 9
REMARK VINA RESULT:      -8.2      2.780      3.478
REMARK  Name = 
REMARK  6 active torsions:
REMARK  status: ('A' for Active; 'I' for Inactive)
REMARK    1  A    between atoms: C_2  and  C_3
REMARK    2  A    between atoms: C_3  and  N_4
REMARK    3  A    between atoms: N_13  and  C_14
REMARK    4  A    between atoms: C_14  and  C_15
REMARK    5  A    between atoms: C_15  and  C_16
REMARK    6  A    between atoms: C_20  and  C_21
REMARK                            x       y       z     vdW  Elec       q    Type
REMARK                         _______ _______ _______ _____ _____    ______ ____
ROOT
ATOM      1  C   UNL     1       3.441   5.725  19.617  0.00  0.00    +0.000 C 
ENDROOT
BRANCH   1   2
ATOM      2  C   UNL     1       3.595   4.410  18.792  0.00  0.00    +0.000 C 
ATOM      3  C   UNL     1       2.397   4.199  17.829  0.00  0.00    +0.000 C 
ATOM      4  C   UNL     1       2.285   2.687  17.615  0.00  0.00    +0.000 C 
ATOM      5  C   UNL     1       3.033   2.027  18.769  0.00  0.00    +0.000 C 
ATOM      6  C   UNL     1       3.439   3.162  19.703  0.00  0.00    +0.000 C 
BRANCH   2   7
ATOM      7  C   UNL     1       4.917   4.440  17.979  0.00  0.00    +0.000 A 
ATOM      8  C   UNL     1       6.144   4.674  18.629  0.00  0.00    +0.000 A 
ATOM      9  C   UNL     1       7.345   4.768  17.918  0.00  0.00    +0.000 A 
ATOM     10  C   UNL     1       7.352   4.651  16.532  0.00  0.00    +0.000 A 
ATOM     11  C   UNL     1       6.159   4.416  15.846  0.00  0.00    +0.000 A 
ATOM     12  C   UNL     1       4.963   4.284  16.581  0.00  0.00    +0.000 A 
BRANCH  11  13
ATOM     13  C   UNL     1       6.122   4.339  14.338  0.00  0.00    +0.000 C 
ATOM     14  F   UNL     1       4.914   4.668  13.802  0.00  0.00    +0.000 F 
ATOM     15  F   UNL     1       7.031   5.163  13.749  0.00  0.00    +0.000 F 
ATOM     16  F   UNL     1       6.402   3.087  13.878  0.00  0.00    +0.000 F 
ENDBRANCH  11  13
ENDBRANCH   2   7
ENDBRANCH   1   2
BRANCH   1  19
ATOM     17  O   UNL     1       3.700   7.951  17.859  0.00  0.00    +0.000 OA
ATOM     18  C   UNL     1       2.593   7.665  18.308  0.00  0.00    +0.000 C 
ATOM     19  N   UNL     1       2.368   6.614  19.172  0.00  0.00    +0.000 N 
ATOM     20  H   UNL     1       1.481   6.621  19.669  0.00  0.00    +0.000 HD
BRANCH  18  21
ATOM     21  C   UNL     1       1.346   8.501  18.003  0.00  0.00    +0.000 C 
BRANCH  21  22
ATOM     22  N   UNL     1       1.320   9.716  18.818  0.00  0.00    +0.000 N 
ATOM     23  C   UNL     1       1.777  10.907  18.287  0.00  0.00    +0.000 A 
ATOM     24  C   UNL     1       1.820  12.044  18.993  0.00  0.00    +0.000 A 
ATOM     25 BR   UNL     1       2.421  13.653  18.278  0.00  0.00    +0.000 Br
ATOM     26  C   UNL     1       1.373  11.996  20.413  0.00  0.00    +0.000 A 
ATOM     27  O   UNL     1       1.431  12.958  21.169  0.00  0.00    +0.000 OA
ATOM     28  N   UNL     1       0.885  10.789  20.842  0.00  0.00    +0.000 N 
ATOM     29  C   UNL     1       0.871   9.621  20.127  0.00  0.00    +0.000 A 
ATOM     30  O   UNL     1       0.501   8.566  20.640  0.00  0.00    +0.000 OA
ATOM     31  H   UNL     1       0.588  10.741  21.804  0.00  0.00    +0.000 HD
ENDBRANCH  21  22
ENDBRANCH  18  21
ENDBRANCH   1  19
TORSDOF 6
ENDMDL
