MODEL 1
REMARK VINA RESULT:      -8.1      0.000      0.000
REMARK  Name = 
REMARK  1 active torsions:
REMARK  status: ('A' for Active; 'I' for Inactive)
REMARK    1  A    between atoms: C_2  and  C_3
REMARK                            x       y       z     vdW  Elec       q    Type
REMARK                         _______ _______ _______ _____ _____    ______ ____
ROOT
ATOM      1  O   UNL     1       0.888   4.487  20.615  0.00  0.00    +0.000 OA
ATOM      2  C   UNL     1       1.908   4.953  20.099  0.00  0.00    +0.000 C 
ATOM      3  N   UNL     1       2.849   4.119  19.524  0.00  0.00    +0.000 N 
ATOM      4  C   UNL     1       2.680   2.675  19.214  0.00  0.00    +0.000 C 
ATOM      5  C   UNL     1       3.813   2.356  18.192  0.00  0.00    +0.000 C 
ATOM      6  N   UNL     1       4.524   3.621  18.109  0.00  0.00    +0.000 N 
ATOM      7  C   UNL     1       3.983   4.564  18.926  0.00  0.00    +0.000 A 
ATOM      8  N   UNL     1       4.625   5.688  18.896  0.00  0.00    +0.000 NA
ATOM      9  C   UNL     1       5.511   5.519  17.867  0.00  0.00    +0.000 A 
ATOM     10  C   UNL     1       6.387   6.473  17.344  0.00  0.00    +0.000 A 
ATOM     11  C   UNL     1       7.087   6.152  16.183  0.00  0.00    +0.000 A 
ATOM     12  C   UNL     1       6.939   4.899  15.584  0.00  0.00    +0.000 A 
ATOM     13  C   UNL     1       6.114   3.897  16.136  0.00  0.00    +0.000 A 
ATOM     14  C   UNL     1       5.413   4.240  17.291  0.00  0.00    +0.000 A 
ENDROOT
BRANCH   2  15
ATOM     15  C   UNL     1       2.146   6.503  20.002  0.00  0.00    +0.000 C 
ATOM     16  C   UNL     1       1.257   7.295  20.973  0.00  0.00    +0.000 C 
ATOM     17  C   UNL     1       1.289   8.608  20.282  0.00  0.00    +0.000 A 
ATOM     18  C   UNL     1       0.955   9.870  20.747  0.00  0.00    +0.000 A 
ATOM     19  C   UNL     1       1.062  10.943  19.859  0.00  0.00    +0.000 A 
ATOM     20 CL   UNL     1       0.652  12.530  20.390  0.00  0.00    +0.000 Cl
ATOM     21  C   UNL     1       1.494  10.745  18.536  0.00  0.00    +0.000 A 
ATOM     22  C   UNL     1       1.812   9.459  18.081  0.00  0.00    +0.000 A 
ATOM     23  C   UNL     1       1.698   8.410  18.971  0.00  0.00    +0.000 A 
ATOM     24  O   UNL     1       1.951   7.086  18.684  0.00  0.00    +0.000 OA
ENDBRANCH   2  15
TORSDOF 1
ENDMDL
MODEL 2
REMARK VINA RESULT:      -8.0      2.051      4.282
REMARK  Name = 
REMARK  1 active torsions:
REMARK  status: ('A' for Active; 'I' for Inactive)
REMARK    1  A    between atoms: C_2  and  C_3
REMARK                            x       y       z     vdW  Elec       q    Type
REMARK                         _______ _______ _______ _____ _____    ______ ____
ROOT
ATOM      1  O   UNL     1       2.888   9.478  17.452  0.00  0.00    +0.000 OA
ATOM      2  C   UNL     1       2.473   8.504  18.086  0.00  0.00    +0.000 C 
ATOM      3  N   UNL     1       2.994   7.242  17.857  0.00  0.00    +0.000 N 
ATOM      4  C   UNL     1       4.216   6.919  17.077  0.00  0.00    +0.000 C 
ATOM      5  C   UNL     1       4.591   5.469  17.516  0.00  0.00    +0.000 C 
ATOM      6  N   UNL     1       3.505   5.127  18.418  0.00  0.00    +0.000 N 
ATOM      7  C   UNL     1       2.596   6.132  18.528  0.00  0.00    +0.000 A 
ATOM      8  N   UNL     1       1.600   5.832  19.298  0.00  0.00    +0.000 NA
ATOM      9  C   UNL     1       1.982   4.644  19.862  0.00  0.00    +0.000 A 
ATOM     10  C   UNL     1       1.307   3.925  20.851  0.00  0.00    +0.000 A 
ATOM     11  C   UNL     1       1.948   2.824  21.411  0.00  0.00    +0.000 A 
ATOM     12  C   UNL     1       3.215   2.434  20.970  0.00  0.00    +0.000 A 
ATOM     13  C   UNL     1       3.882   3.104  19.924  0.00  0.00    +0.000 A 
ATOM     14  C   UNL     1       3.230   4.210  19.382  0.00  0.00    +0.000 A 
ENDROOT
BRANCH   2  15
ATOM     15  C   UNL     1       1.404   8.658  19.226  0.00  0.00    +0.000 C 
ATOM     16  C   UNL     1       0.623   9.978  19.122  0.00  0.00    +0.000 C 
ATOM     17  C   UNL     1       0.166  10.076  20.530  0.00  0.00    +0.000 A 
ATOM     18  C   UNL     1      -0.835  10.853  21.092  0.00  0.00    +0.000 A 
ATOM     19  C   UNL     1      -1.038  10.760  22.471  0.00  0.00    +0.000 A 
ATOM     20 CL   UNL     1      -2.267  11.711  23.215  0.00  0.00    +0.000 Cl
ATOM     21  C   UNL     1      -0.250   9.905  23.261  0.00  0.00    +0.000 A 
ATOM     22  C   UNL     1       0.766   9.140  22.676  0.00  0.00    +0.000 A 
ATOM     23  C   UNL     1       0.955   9.246  21.313  0.00  0.00    +0.000 A 
ATOM     24  O   UNL     1       1.918   8.581  20.585  0.00  0.00    +0.000 OA
ENDBRANCH   2  15
TORSDOF 1
ENDMDL
MODEL 3
REMARK VINA RESULT:      -7.9      1.724      4.081
REMARK  Name = 
REMARK  1 active torsions:
REMARK  status: ('A' for Active; 'I' for Inactive)
REMARK    1  A    between atoms: C_2  and  C_3
REMARK                            x       y       z     vdW  Elec       q    Type
REMARK                         _______ _______ _______ _____ _____    ______ ____
ROOT
ATOM      1  O   UNL     1       4.066   8.155  16.749  0.00  0.00    +0.000 OA
ATOM      2  C   UNL     1       3.395   7.386  17.442  0.00  0.00    +0.000 C 
ATOM      3  N   UNL     1       3.788   6.070  17.613  0.00  0.00    +0.000 N 
ATOM      4  C   UNL     1       5.105   5.486  17.249  0.00  0.00    +0.000 C 
ATOM      5  C   UNL     1       5.178   4.151  18.052  0.00  0.00    +0.000 C 
ATOM      6  N   UNL     1       3.879   4.106  18.702  0.00  0.00    +0.000 N 
ATOM      7  C   UNL     1       3.107   5.175  18.372  0.00  0.00    +0.000 A 
ATOM      8  N   UNL     1       1.930   5.134  18.911  0.00  0.00    +0.000 NA
ATOM      9  C   UNL     1       2.017   4.081  19.781  0.00  0.00    +0.000 A 
ATOM     10  C   UNL     1       1.046   3.660  20.692  0.00  0.00    +0.000 A 
ATOM     11  C   UNL     1       1.394   2.670  21.608  0.00  0.00    +0.000 A 
ATOM     12  C   UNL     1       2.667   2.096  21.590  0.00  0.00    +0.000 A 
ATOM     13  C   UNL     1       3.638   2.458  20.632  0.00  0.00    +0.000 A 
ATOM     14  C   UNL     1       3.276   3.457  19.731  0.00  0.00    +0.000 A 
ENDROOT
BRANCH   2  15
ATOM     15  C   UNL     1       2.121   7.876  18.219  0.00  0.00    +0.000 C 
ATOM     16  C   UNL     1       1.617   9.239  17.718  0.00  0.00    +0.000 C 
ATOM     17  C   UNL     1       0.855   9.649  18.923  0.00  0.00    +0.000 A 
ATOM     18  C   UNL     1      -0.110  10.632  19.077  0.00  0.00    +0.000 A 
ATOM     19  C   UNL     1      -0.654  10.820  20.349  0.00  0.00    +0.000 A 
ATOM     20 CL   UNL     1      -1.853  12.034  20.590  0.00  0.00    +0.000 Cl
ATOM     21  C   UNL     1      -0.234  10.036  21.438  0.00  0.00    +0.000 A 
ATOM     22  C   UNL     1       0.754   9.059  21.264  0.00  0.00    +0.000 A 
ATOM     23  C   UNL     1       1.283   8.888  20.000  0.00  0.00    +0.000 A 
ATOM     24  O   UNL     1       2.270   7.989  19.662  0.00  0.00    +0.000 OA
ENDBRANCH   2  15
TORSDOF 1
ENDMDL
MODEL 4
REMARK VINA RESULT:      -7.5      3.304      6.648
REMARK  Name = 
REMARK  1 active torsions:
REMARK  status: ('A' for Active; 'I' for Inactive)
REMARK    1  A    between atoms: C_2  and  C_3
REMARK                            x       y       z     vdW  Elec       q    Type
REMARK                         _______ _______ _______ _____ _____    ______ ____
ROOT
ATOM      1  O   UNL     1       4.485   2.306  19.227  0.00  0.00    +0.000 OA
ATOM      2  C   UNL     1       4.046   3.391  18.834  0.00  0.00    +0.000 C 
ATOM      3  N   UNL     1       3.064   4.053  19.549  0.00  0.00    +0.000 N 
ATOM      4  C   UNL     1       2.607   3.735  20.926  0.00  0.00    +0.000 C 
ATOM      5  C   UNL     1       1.861   5.020  21.400  0.00  0.00    +0.000 C 
ATOM      6  N   UNL     1       1.919   5.867  20.221  0.00  0.00    +0.000 N 
ATOM      7  C   UNL     1       2.549   5.254  19.183  0.00  0.00    +0.000 A 
ATOM      8  N   UNL     1       2.578   5.977  18.110  0.00  0.00    +0.000 NA
ATOM      9  C   UNL     1       2.108   7.191  18.534  0.00  0.00    +0.000 A 
ATOM     10  C   UNL     1       2.025   8.369  17.788  0.00  0.00    +0.000 A 
ATOM     11  C   UNL     1       1.675   9.541  18.454  0.00  0.00    +0.000 A 
ATOM     12  C   UNL     1       1.387   9.528  19.820  0.00  0.00    +0.000 A 
ATOM     13  C   UNL     1       1.396   8.336  20.576  0.00  0.00    +0.000 A 
ATOM     14  C   UNL     1       1.758   7.176  19.896  0.00  0.00    +0.000 A 
ENDROOT
BRANCH   2  15
ATOM     15  C   UNL     1       4.631   4.103  17.561  0.00  0.00    +0.000 C 
ATOM     16  C   UNL     1       4.432   3.273  16.283  0.00  0.00    +0.000 C 
ATOM     17  C   UNL     1       5.506   3.878  15.457  0.00  0.00    +0.000 A 
ATOM     18  C   UNL     1       5.713   3.832  14.087  0.00  0.00    +0.000 A 
ATOM     19  C   UNL     1       6.835   4.484  13.573  0.00  0.00    +0.000 A 
ATOM     20 CL   UNL     1       7.137   4.449  11.878  0.00  0.00    +0.000 Cl
ATOM     21  C   UNL     1       7.726   5.166  14.421  0.00  0.00    +0.000 A 
ATOM     22  C   UNL     1       7.507   5.188  15.804  0.00  0.00    +0.000 A 
ATOM     23  C   UNL     1       6.394   4.535  16.296  0.00  0.00    +0.000 A 
ATOM     24  O   UNL     1       6.043   4.443  17.625  0.00  0.00    +0.000 OA
ENDBRANCH   2  15
TORSDOF 1
ENDMDL
MODEL 5
REMARK VINA RESULT:      -7.3      7.542      9.713
REMARK  Name = 
REMARK  1 active torsions:
REMARK  status: ('A' for Active; 'I' for Inactive)
REMARK    1  A    between atoms: C_2  and  C_3
REMARK                            x       y       z     vdW  Elec       q    Type
REMARK                         _______ _______ _______ _____ _____    ______ ____
ROOT
ATOM      1  O   UNL     1       5.974  17.784  19.021  0.00  0.00    +0.000 OA
ATOM      2  C   UNL     1       6.377  16.646  18.763  0.00  0.00    +0.000 C 
ATOM      3  N   UNL     1       7.669  16.442  18.312  0.00  0.00    +0.000 N 
ATOM      4  C   UNL     1       8.775  17.434  18.323  0.00  0.00    +0.000 C 
ATOM      5  C   UNL     1      10.070  16.581  18.156  0.00  0.00    +0.000 C 
ATOM      6  N   UNL     1       9.540  15.238  17.994  0.00  0.00    +0.000 N 
ATOM      7  C   UNL     1       8.181  15.219  18.024  0.00  0.00    +0.000 A 
ATOM      8  N   UNL     1       7.687  14.036  17.843  0.00  0.00    +0.000 NA
ATOM      9  C   UNL     1       8.787  13.223  17.887  0.00  0.00    +0.000 A 
ATOM     10  C   UNL     1       8.806  11.828  17.841  0.00  0.00    +0.000 A 
ATOM     11  C   UNL     1      10.019  11.182  18.070  0.00  0.00    +0.000 A 
ATOM     12  C   UNL     1      11.184  11.915  18.306  0.00  0.00    +0.000 A 
ATOM     13  C   UNL     1      11.199  13.325  18.286  0.00  0.00    +0.000 A 
ATOM     14  C   UNL     1       9.976  13.954  18.066  0.00  0.00    +0.000 A 
ENDROOT
BRANCH   2  15
ATOM     15  C   UNL     1       5.478  15.380  19.004  0.00  0.00    +0.000 C 
ATOM     16  C   UNL     1       4.417  15.197  17.907  0.00  0.00    +0.000 C 
ATOM     17  C   UNL     1       3.458  14.355  18.665  0.00  0.00    +0.000 A 
ATOM     18  C   UNL     1       2.414  13.564  18.213  0.00  0.00    +0.000 A 
ATOM     19  C   UNL     1       1.648  12.888  19.164  0.00  0.00    +0.000 A 
ATOM     20 CL   UNL     1       0.335  11.897  18.651  0.00  0.00    +0.000 Cl
ATOM     21  C   UNL     1       1.929  13.008  20.537  0.00  0.00    +0.000 A 
ATOM     22  C   UNL     1       2.980  13.825  20.973  0.00  0.00    +0.000 A 
ATOM     23  C   UNL     1       3.725  14.489  20.019  0.00  0.00    +0.000 A 
ATOM     24  O   UNL     1       4.775  15.342  20.276  0.00  0.00    +0.000 OA
ENDBRANCH   2  15
TORSDOF 1
ENDMDL
MODEL 6
REMARK VINA RESULT:      -6.8      5.776      8.411
REMARK  Name = 
REMARK  1 active torsions:
REMARK  status: ('A' for Active; 'I' for Inactive)
REMARK    1  A    between atoms: C_2  and  C_3
REMARK                            x       y       z     vdW  Elec       q    Type
REMARK                         _______ _______ _______ _____ _____    ______ ____
ROOT
ATOM      1  O   UNL     1       1.001  10.735  22.090  0.00  0.00    +0.000 OA
ATOM      2  C   UNL     1       0.120  11.044  21.283  0.00  0.00    +0.000 C 
ATOM      3  N   UNL     1       0.214  10.658  19.957  0.00  0.00    +0.000 N 
ATOM      4  C   UNL     1       1.165   9.667  19.391  0.00  0.00    +0.000 C 
ATOM      5  C   UNL     1       0.553   9.280  18.009  0.00  0.00    +0.000 C 
ATOM      6  N   UNL     1      -0.611  10.146  17.930  0.00  0.00    +0.000 N 
ATOM      7  C   UNL     1      -0.724  10.950  19.021  0.00  0.00    +0.000 A 
ATOM      8  N   UNL     1      -1.734  11.756  18.953  0.00  0.00    +0.000 NA
ATOM      9  C   UNL     1      -2.414  11.319  17.849  0.00  0.00    +0.000 A 
ATOM     10  C   UNL     1      -3.644  11.786  17.378  0.00  0.00    +0.000 A 
ATOM     11  C   UNL     1      -4.249  11.092  16.333  0.00  0.00    +0.000 A 
ATOM     12  C   UNL     1      -3.626   9.984  15.755  0.00  0.00    +0.000 A 
ATOM     13  C   UNL     1      -2.352   9.540  16.170  0.00  0.00    +0.000 A 
ATOM     14  C   UNL     1      -1.767  10.239  17.223  0.00  0.00    +0.000 A 
ENDROOT
BRANCH   2  15
ATOM     15  C   UNL     1      -1.175  11.812  21.731  0.00  0.00    +0.000 C 
ATOM     16  C   UNL     1      -0.894  13.284  22.075  0.00  0.00    +0.000 C 
ATOM     17  C   UNL     1      -2.073  13.538  22.939  0.00  0.00    +0.000 A 
ATOM     18  C   UNL     1      -2.631  14.736  23.357  0.00  0.00    +0.000 A 
ATOM     19  C   UNL     1      -3.744  14.679  24.199  0.00  0.00    +0.000 A 
ATOM     20 CL   UNL     1      -4.469  16.141  24.750  0.00  0.00    +0.000 Cl
ATOM     21  C   UNL     1      -4.278  13.444  24.608  0.00  0.00    +0.000 A 
ATOM     22  C   UNL     1      -3.689  12.245  24.186  0.00  0.00    +0.000 A 
ATOM     23  C   UNL     1      -2.588  12.320  23.357  0.00  0.00    +0.000 A 
ATOM     24  O   UNL     1      -1.881  11.244  22.868  0.00  0.00    +0.000 OA
ENDBRANCH   2  15
TORSDOF 1
ENDMDL
MODEL 7
REMARK VINA RESULT:      -6.8      1.647      3.964
REMARK  Name = 
REMARK  1 active torsions:
REMARK  status: ('A' for Active; 'I' for Inactive)
REMARK    1  A    between atoms: C_2  and  C_3
REMARK                            x       y       z     vdW  Elec       q    Type
REMARK                         _______ _______ _______ _____ _____    ______ ____
ROOT
ATOM      1  O   UNL     1       4.790   8.267  17.201  0.00  0.00    +0.000 OA
ATOM      2  C   UNL     1       3.939   7.410  17.458  0.00  0.00    +0.000 C 
ATOM      3  N   UNL     1       4.182   6.075  17.192  0.00  0.00    +0.000 N 
ATOM      4  C   UNL     1       5.491   5.468  16.838  0.00  0.00    +0.000 C 
ATOM      5  C   UNL     1       5.301   3.942  17.099  0.00  0.00    +0.000 C 
ATOM      6  N   UNL     1       3.904   3.864  17.488  0.00  0.00    +0.000 N 
ATOM      7  C   UNL     1       3.298   5.081  17.462  0.00  0.00    +0.000 A 
ATOM      8  N   UNL     1       2.042   5.028  17.769  0.00  0.00    +0.000 NA
ATOM      9  C   UNL     1       1.874   3.738  18.197  0.00  0.00    +0.000 A 
ATOM     10  C   UNL     1       0.717   3.174  18.738  0.00  0.00    +0.000 A 
ATOM     11  C   UNL     1       0.803   1.889  19.269  0.00  0.00    +0.000 A 
ATOM     12  C   UNL     1       2.005   1.179  19.230  0.00  0.00    +0.000 A 
ATOM     13  C   UNL     1       3.166   1.705  18.624  0.00  0.00    +0.000 A 
ATOM     14  C   UNL     1       3.064   2.995  18.108  0.00  0.00    +0.000 A 
ENDROOT
BRANCH   2  15
ATOM     15  C   UNL     1       2.585   7.781  18.164  0.00  0.00    +0.000 C 
ATOM     16  C   UNL     1       2.151   9.227  17.877  0.00  0.00    +0.000 C 
ATOM     17  C   UNL     1       1.255   9.425  19.043  0.00  0.00    +0.000 A 
ATOM     18  C   UNL     1       0.284  10.388  19.269  0.00  0.00    +0.000 A 
ATOM     19  C   UNL     1      -0.404  10.349  20.484  0.00  0.00    +0.000 A 
ATOM     20 CL   UNL     1      -1.615  11.529  20.813  0.00  0.00    +0.000 Cl
ATOM     21  C   UNL     1      -0.118   9.363  21.445  0.00  0.00    +0.000 A 
ATOM     22  C   UNL     1       0.878   8.408  21.202  0.00  0.00    +0.000 A 
ATOM     23  C   UNL     1       1.550   8.464  19.998  0.00  0.00    +0.000 A 
ATOM     24  O   UNL     1       2.565   7.617  19.609  0.00  0.00    +0.000 OA
ENDBRANCH   2  15
TORSDOF 1
ENDMDL
MODEL 8
REMARK VINA RESULT:      -6.8      7.349     11.394
REMARK  Name = 
REMARK  1 active torsions:
REMARK  status: ('A' for Active; 'I' for Inactive)
REMARK    1  A    between atoms: C_2  and  C_3
REMARK                            x       y       z     vdW  Elec       q    Type
REMARK                         _______ _______ _______ _____ _____    ______ ____
ROOT
ATOM      1  O   UNL     1      -1.481  14.249  23.955  0.00  0.00    +0.000 OA
ATOM      2  C   UNL     1      -2.308  13.647  23.264  0.00  0.00    +0.000 C 
ATOM      3  N   UNL     1      -3.613  14.099  23.176  0.00  0.00    +0.000 N 
ATOM      4  C   UNL     1      -4.126  15.415  23.636  0.00  0.00    +0.000 C 
ATOM      5  C   UNL     1      -5.491  15.584  22.902  0.00  0.00    +0.000 C 
ATOM      6  N   UNL     1      -5.618  14.326  22.187  0.00  0.00    +0.000 N 
ATOM      7  C   UNL     1      -4.568  13.496  22.424  0.00  0.00    +0.000 A 
ATOM      8  N   UNL     1      -4.681  12.353  21.826  0.00  0.00    +0.000 NA
ATOM      9  C   UNL     1      -5.768  12.527  21.012  0.00  0.00    +0.000 A 
ATOM     10  C   UNL     1      -6.268  11.625  20.071  0.00  0.00    +0.000 A 
ATOM     11  C   UNL     1      -7.283  12.061  19.223  0.00  0.00    +0.000 A 
ATOM     12  C   UNL     1      -7.803  13.353  19.336  0.00  0.00    +0.000 A 
ATOM     13  C   UNL     1      -7.359  14.254  20.326  0.00  0.00    +0.000 A 
ATOM     14  C   UNL     1      -6.337  13.805  21.159  0.00  0.00    +0.000 A 
ENDROOT
BRANCH   2  15
ATOM     15  C   UNL     1      -1.906  12.400  22.398  0.00  0.00    +0.000 C 
ATOM     16  C   UNL     1      -1.355  11.246  23.252  0.00  0.00    +0.000 C 
ATOM     17  C   UNL     1      -0.593  10.534  22.196  0.00  0.00    +0.000 A 
ATOM     18  C   UNL     1      -0.091   9.242  22.176  0.00  0.00    +0.000 A 
ATOM     19  C   UNL     1       0.617   8.835  21.043  0.00  0.00    +0.000 A 
ATOM     20 CL   UNL     1       1.266   7.240  20.974  0.00  0.00    +0.000 Cl
ATOM     21  C   UNL     1       0.812   9.710  19.959  0.00  0.00    +0.000 A 
ATOM     22  C   UNL     1       0.310  11.016  20.007  0.00  0.00    +0.000 A 
ATOM     23  C   UNL     1      -0.385  11.403  21.136  0.00  0.00    +0.000 A 
ATOM     24  O   UNL     1      -0.927  12.651  21.352  0.00  0.00    +0.000 OA
ENDBRANCH   2  15
TORSDOF 1
ENDMDL
MODEL 9
REMARK VINA RESULT:      -6.8      3.225      6.717
REMARK  Name = 
REMARK  1 active torsions:
REMARK  status: ('A' for Active; 'I' for Inactive)
REMARK    1  A    between atoms: C_2  and  C_3
REMARK                            x       y       z     vdW  Elec       q    Type
REMARK                         _______ _______ _______ _____ _____    ______ ____
ROOT
ATOM      1  O   UNL     1       1.735   5.321  21.051  0.00  0.00    +0.000 OA
ATOM      2  C   UNL     1       1.901   6.309  20.330  0.00  0.00    +0.000 C 
ATOM      3  N   UNL     1       1.155   7.457  20.527  0.00  0.00    +0.000 N 
ATOM      4  C   UNL     1       0.299   7.764  21.703  0.00  0.00    +0.000 C 
ATOM      5  C   UNL     1       0.079   9.307  21.637  0.00  0.00    +0.000 C 
ATOM      6  N   UNL     1       0.762   9.667  20.406  0.00  0.00    +0.000 N 
ATOM      7  C   UNL     1       1.296   8.582  19.783  0.00  0.00    +0.000 A 
ATOM      8  N   UNL     1       1.876   8.877  18.663  0.00  0.00    +0.000 NA
ATOM      9  C   UNL     1       1.879  10.246  18.659  0.00  0.00    +0.000 A 
ATOM     10  C   UNL     1       2.478  11.083  17.715  0.00  0.00    +0.000 A 
ATOM     11  C   UNL     1       2.513  12.449  17.982  0.00  0.00    +0.000 A 
ATOM     12  C   UNL     1       1.936  12.965  19.145  0.00  0.00    +0.000 A 
ATOM     13  C   UNL     1       1.266  12.143  20.076  0.00  0.00    +0.000 A 
ATOM     14  C   UNL     1       1.250  10.779  19.797  0.00  0.00    +0.000 A 
ENDROOT
BRANCH   2  15
ATOM     15  C   UNL     1       3.010   6.339  19.217  0.00  0.00    +0.000 C 
ATOM     16  C   UNL     1       2.692   5.394  18.047  0.00  0.00    +0.000 C 
ATOM     17  C   UNL     1       4.068   5.226  17.518  0.00  0.00    +0.000 A 
ATOM     18  C   UNL     1       4.500   4.750  16.290  0.00  0.00    +0.000 A 
ATOM     19  C   UNL     1       5.876   4.679  16.065  0.00  0.00    +0.000 A 
ATOM     20 CL   UNL     1       6.462   4.088  14.556  0.00  0.00    +0.000 Cl
ATOM     21  C   UNL     1       6.792   5.080  17.054  0.00  0.00    +0.000 A 
ATOM     22  C   UNL     1       6.334   5.544  18.293  0.00  0.00    +0.000 A 
ATOM     23  C   UNL     1       4.971   5.604  18.501  0.00  0.00    +0.000 A 
ATOM     24  O   UNL     1       4.356   6.016  19.662  0.00  0.00    +0.000 OA
ENDBRANCH   2  15
TORSDOF 1
ENDMDL
