MODEL 1
REMARK VINA RESULT:      -9.5      0.000      0.000
REMARK  Name = 
REMARK  7 active torsions:
REMARK  status: ('A' for Active; 'I' for Inactive)
REMARK    1  A    between atoms: C_1  and  C_2
REMARK    2  A    between atoms: C_5  and  N_6
REMARK    3  A    between atoms: C_7  and  C_9
REMARK    4  A    between atoms: C_9  and  S_10
REMARK    5  A    between atoms: C_9  and  C_21
REMARK    6  A    between atoms: S_10  and  C_11
REMARK    7  A    between atoms: N_15  and  C_16
REMARK                            x       y       z     vdW  Elec       q    Type
REMARK                         _______ _______ _______ _____ _____    ______ ____
ROOT
ATOM      1  C   UNL     1       2.987   6.484  19.566  0.00  0.00    +0.000 C 
ENDROOT
BRANCH   1   2
ATOM      2  C   UNL     1       2.184   5.174  19.571  0.00  0.00    +0.000 A 
ATOM      3  C   UNL     1       1.760   4.562  20.763  0.00  0.00    +0.000 A 
ATOM      4  C   UNL     1       1.068   3.343  20.756  0.00  0.00    +0.000 A 
ATOM      5  C   UNL     1       0.775   2.710  19.553  0.00  0.00    +0.000 A 
ATOM      6  C   UNL     1       1.179   3.297  18.357  0.00  0.00    +0.000 A 
ATOM      7  C   UNL     1       1.876   4.516  18.361  0.00  0.00    +0.000 A 
ENDBRANCH   1   2
BRANCH   1   9
ATOM      8  N   UNL     1       1.741   7.995  21.107  0.00  0.00    +0.000 N 
ATOM      9  C   UNL     1       2.068   7.709  19.784  0.00  0.00    +0.000 C 
ATOM     10  O   UNL     1       1.699   8.386  18.821  0.00  0.00    +0.000 OA
ATOM     11  H   UNL     1       2.306   7.572  21.835  0.00  0.00    +0.000 HD
BRANCH   8  16
ATOM     12  C   UNL     1      -1.581  12.312  22.953  0.00  0.00    +0.000 C 
ATOM     13  C   UNL     1      -0.765  11.161  22.443  0.00  0.00    +0.000 A 
ATOM     14  C   UNL     1      -0.029  11.294  21.267  0.00  0.00    +0.000 A 
ATOM     15  C   UNL     1       0.768  10.245  20.806  0.00  0.00    +0.000 A 
ATOM     16  C   UNL     1       0.874   9.044  21.512  0.00  0.00    +0.000 A 
ATOM     17  C   UNL     1       0.092   8.887  22.665  0.00  0.00    +0.000 A 
ATOM     18  C   UNL     1      -0.713   9.942  23.131  0.00  0.00    +0.000 A 
ENDBRANCH   8  16
ENDBRANCH   1   9
BRANCH   1  19
ATOM     19  S   UNL     1       3.886   6.733  17.942  0.00  0.00    +0.000 S 
BRANCH  19  20
ATOM     20  C   UNL     1       5.341   5.836  18.228  0.00  0.00    +0.000 A 
ATOM     21  N   UNL     1       5.831   5.566  19.418  0.00  0.00    +0.000 NA
ATOM     22  N   UNL     1       6.943   4.793  19.204  0.00  0.00    +0.000 NA
ATOM     23  N   UNL     1       7.143   4.592  17.911  0.00  0.00    +0.000 NA
ATOM     24  N   UNL     1       6.144   5.245  17.278  0.00  0.00    +0.000 N 
BRANCH  24  25
ATOM     25  C   UNL     1       6.082   5.225  15.834  0.00  0.00    +0.000 C 
ATOM     26  C   UNL     1       5.310   4.032  15.246  0.00  0.00    +0.000 C 
ATOM     27  C   UNL     1       5.769   3.935  13.789  0.00  0.00    +0.000 C 
ATOM     28  C   UNL     1       7.088   4.701  13.705  0.00  0.00    +0.000 C 
ATOM     29  C   UNL     1       7.444   5.073  15.141  0.00  0.00    +0.000 C 
ENDBRANCH  24  25
ENDBRANCH  19  20
ENDBRANCH   1  19
TORSDOF 6
ENDMDL
MODEL 2
REMARK VINA RESULT:      -9.1      0.345      1.306
REMARK  Name = 
REMARK  7 active torsions:
REMARK  status: ('A' for Active; 'I' for Inactive)
REMARK    1  A    between atoms: C_1  and  C_2
REMARK    2  A    between atoms: C_5  and  N_6
REMARK    3  A    between atoms: C_7  and  C_9
REMARK    4  A    between atoms: C_9  and  S_10
REMARK    5  A    between atoms: C_9  and  C_21
REMARK    6  A    between atoms: S_10  and  C_11
REMARK    7  A    between atoms: N_15  and  C_16
REMARK                            x       y       z     vdW  Elec       q    Type
REMARK                         _______ _______ _______ _____ _____    ______ ____
ROOT
ATOM      1  C   UNL     1       3.104   6.498  19.336  0.00  0.00    +0.000 C 
ENDROOT
BRANCH   1   2
ATOM      2  C   UNL     1       2.302   5.188  19.353  0.00  0.00    +0.000 A 
ATOM      3  C   UNL     1       2.022   4.467  18.180  0.00  0.00    +0.000 A 
ATOM      4  C   UNL     1       1.250   3.297  18.204  0.00  0.00    +0.000 A 
ATOM      5  C   UNL     1       0.746   2.815  19.406  0.00  0.00    +0.000 A 
ATOM      6  C   UNL     1       1.012   3.507  20.585  0.00  0.00    +0.000 A 
ATOM      7  C   UNL     1       1.782   4.681  20.564  0.00  0.00    +0.000 A 
ENDBRANCH   1   2
BRANCH   1   9
ATOM      8  N   UNL     1       1.836   7.968  20.901  0.00  0.00    +0.000 N 
ATOM      9  C   UNL     1       2.187   7.722  19.575  0.00  0.00    +0.000 C 
ATOM     10  O   UNL     1       1.842   8.432  18.628  0.00  0.00    +0.000 OA
ATOM     11  H   UNL     1       2.384   7.519  21.626  0.00  0.00    +0.000 HD
BRANCH   8  16
ATOM     12  C   UNL     1      -1.899  12.047  22.477  0.00  0.00    +0.000 C 
ATOM     13  C   UNL     1      -0.878  11.024  22.075  0.00  0.00    +0.000 A 
ATOM     14  C   UNL     1      -0.406  10.105  23.010  0.00  0.00    +0.000 A 
ATOM     15  C   UNL     1       0.511   9.121  22.637  0.00  0.00    +0.000 A 
ATOM     16  C   UNL     1       0.967   9.010  21.322  0.00  0.00    +0.000 A 
ATOM     17  C   UNL     1       0.538   9.968  20.392  0.00  0.00    +0.000 A 
ATOM     18  C   UNL     1      -0.385  10.961  20.766  0.00  0.00    +0.000 A 
ENDBRANCH   8  16
ENDBRANCH   1   9
BRANCH   1  19
ATOM     19  S   UNL     1       3.971   6.753  17.697  0.00  0.00    +0.000 S 
BRANCH  19  20
ATOM     20  C   UNL     1       5.427   5.847  17.948  0.00  0.00    +0.000 A 
ATOM     21  N   UNL     1       5.964   5.606  19.125  0.00  0.00    +0.000 NA
ATOM     22  N   UNL     1       7.057   4.813  18.887  0.00  0.00    +0.000 NA
ATOM     23  N   UNL     1       7.201   4.574  17.593  0.00  0.00    +0.000 NA
ATOM     24  N   UNL     1       6.183   5.221  16.983  0.00  0.00    +0.000 N 
BRANCH  24  25
ATOM     25  C   UNL     1       6.061   5.160  15.544  0.00  0.00    +0.000 C 
ATOM     26  C   UNL     1       5.304   3.928  15.020  0.00  0.00    +0.000 C 
ATOM     27  C   UNL     1       5.704   3.807  13.548  0.00  0.00    +0.000 C 
ATOM     28  C   UNL     1       6.993   4.611  13.387  0.00  0.00    +0.000 C 
ATOM     29  C   UNL     1       7.397   5.032  14.797  0.00  0.00    +0.000 C 
ENDBRANCH  24  25
ENDBRANCH  19  20
ENDBRANCH   1  19
TORSDOF 6
ENDMDL
MODEL 3
REMARK VINA RESULT:      -9.0      0.793      1.413
REMARK  Name = 
REMARK  7 active torsions:
REMARK  status: ('A' for Active; 'I' for Inactive)
REMARK    1  A    between atoms: C_1  and  C_2
REMARK    2  A    between atoms: C_5  and  N_6
REMARK    3  A    between atoms: C_7  and  C_9
REMARK    4  A    between atoms: C_9  and  S_10
REMARK    5  A    between atoms: C_9  and  C_21
REMARK    6  A    between atoms: S_10  and  C_11
REMARK    7  A    between atoms: N_15  and  C_16
REMARK                            x       y       z     vdW  Elec       q    Type
REMARK                         _______ _______ _______ _____ _____    ______ ____
ROOT
ATOM      1  C   UNL     1       3.304   5.975  19.274  0.00  0.00    +0.000 C 
ENDROOT
BRANCH   1   2
ATOM      2  C   UNL     1       2.483   4.677  19.242  0.00  0.00    +0.000 A 
ATOM      3  C   UNL     1       2.403   3.872  18.093  0.00  0.00    +0.000 A 
ATOM      4  C   UNL     1       1.613   2.713  18.063  0.00  0.00    +0.000 A 
ATOM      5  C   UNL     1       0.891   2.328  19.186  0.00  0.00    +0.000 A 
ATOM      6  C   UNL     1       0.956   3.105  20.340  0.00  0.00    +0.000 A 
ATOM      7  C   UNL     1       1.743   4.268  20.372  0.00  0.00    +0.000 A 
ENDBRANCH   1   2
BRANCH   1   9
ATOM      8  N   UNL     1       2.017   7.665  20.581  0.00  0.00    +0.000 N 
ATOM      9  C   UNL     1       2.386   7.221  19.313  0.00  0.00    +0.000 C 
ATOM     10  O   UNL     1       2.055   7.779  18.264  0.00  0.00    +0.000 OA
ATOM     11  H   UNL     1       2.555   7.330  21.373  0.00  0.00    +0.000 HD
BRANCH   8  16
ATOM     12  C   UNL     1      -1.318  12.199  21.757  0.00  0.00    +0.000 C 
ATOM     13  C   UNL     1      -0.500  10.986  21.430  0.00  0.00    +0.000 A 
ATOM     14  C   UNL     1       0.165  10.900  20.207  0.00  0.00    +0.000 A 
ATOM     15  C   UNL     1       0.964   9.796  19.911  0.00  0.00    +0.000 A 
ATOM     16  C   UNL     1       1.144   8.757  20.827  0.00  0.00    +0.000 A 
ATOM     17  C   UNL     1       0.433   8.813  22.034  0.00  0.00    +0.000 A 
ATOM     18  C   UNL     1      -0.374   9.925  22.336  0.00  0.00    +0.000 A 
ENDBRANCH   8  16
ENDBRANCH   1   9
BRANCH   1  19
ATOM     19  S   UNL     1       4.405   6.131  17.768  0.00  0.00    +0.000 S 
BRANCH  19  20
ATOM     20  C   UNL     1       5.925   5.603  18.414  0.00  0.00    +0.000 A 
ATOM     21  N   UNL     1       6.315   5.790  19.655  0.00  0.00    +0.000 NA
ATOM     22  N   UNL     1       7.534   5.172  19.767  0.00  0.00    +0.000 NA
ATOM     23  N   UNL     1       7.895   4.619  18.619  0.00  0.00    +0.000 NA
ATOM     24  N   UNL     1       6.894   4.883  17.752  0.00  0.00    +0.000 N 
BRANCH  24  25
ATOM     25  C   UNL     1       6.990   4.413  16.388  0.00  0.00    +0.000 C 
ATOM     26  C   UNL     1       7.210   5.523  15.346  0.00  0.00    +0.000 C 
ATOM     27  C   UNL     1       6.802   4.903  14.008  0.00  0.00    +0.000 C 
ATOM     28  C   UNL     1       5.930   3.694  14.344  0.00  0.00    +0.000 C 
ATOM     29  C   UNL     1       5.714   3.746  15.853  0.00  0.00    +0.000 C 
ENDBRANCH  24  25
ENDBRANCH  19  20
ENDBRANCH   1  19
TORSDOF 6
ENDMDL
MODEL 4
REMARK VINA RESULT:      -9.0      0.774      1.372
REMARK  Name = 
REMARK  7 active torsions:
REMARK  status: ('A' for Active; 'I' for Inactive)
REMARK    1  A    between atoms: C_1  and  C_2
REMARK    2  A    between atoms: C_5  and  N_6
REMARK    3  A    between atoms: C_7  and  C_9
REMARK    4  A    between atoms: C_9  and  S_10
REMARK    5  A    between atoms: C_9  and  C_21
REMARK    6  A    between atoms: S_10  and  C_11
REMARK    7  A    between atoms: N_15  and  C_16
REMARK                            x       y       z     vdW  Elec       q    Type
REMARK                         _______ _______ _______ _____ _____    ______ ____
ROOT
ATOM      1  C   UNL     1       3.282   5.979  19.404  0.00  0.00    +0.000 C 
ENDROOT
BRANCH   1   2
ATOM      2  C   UNL     1       2.370   4.743  19.436  0.00  0.00    +0.000 A 
ATOM      3  C   UNL     1       1.930   4.169  20.641  0.00  0.00    +0.000 A 
ATOM      4  C   UNL     1       1.136   3.014  20.657  0.00  0.00    +0.000 A 
ATOM      5  C   UNL     1       0.757   2.408  19.465  0.00  0.00    +0.000 A 
ATOM      6  C   UNL     1       1.175   2.958  18.256  0.00  0.00    +0.000 A 
ATOM      7  C   UNL     1       1.973   4.114  18.237  0.00  0.00    +0.000 A 
ENDBRANCH   1   2
BRANCH   1   9
ATOM      8  N   UNL     1       1.946   7.633  20.707  0.00  0.00    +0.000 N 
ATOM      9  C   UNL     1       2.457   7.288  19.458  0.00  0.00    +0.000 C 
ATOM     10  O   UNL     1       2.317   7.973  18.442  0.00  0.00    +0.000 OA
ATOM     11  H   UNL     1       2.341   7.177  21.522  0.00  0.00    +0.000 HD
BRANCH   8  16
ATOM     12  C   UNL     1      -1.602  12.067  21.616  0.00  0.00    +0.000 C 
ATOM     13  C   UNL     1      -0.628  10.951  21.378  0.00  0.00    +0.000 A 
ATOM     14  C   UNL     1      -0.145  10.206  22.453  0.00  0.00    +0.000 A 
ATOM     15  C   UNL     1       0.727   9.138  22.240  0.00  0.00    +0.000 A 
ATOM     16  C   UNL     1       1.126   8.766  20.954  0.00  0.00    +0.000 A 
ATOM     17  C   UNL     1       0.687   9.548  19.876  0.00  0.00    +0.000 A 
ATOM     18  C   UNL     1      -0.191  10.626  20.088  0.00  0.00    +0.000 A 
ENDBRANCH   8  16
ENDBRANCH   1   9
BRANCH   1  19
ATOM     19  S   UNL     1       4.321   6.028  17.848  0.00  0.00    +0.000 S 
BRANCH  19  20
ATOM     20  C   UNL     1       5.868   5.554  18.468  0.00  0.00    +0.000 A 
ATOM     21  N   UNL     1       6.269   5.746  19.706  0.00  0.00    +0.000 NA
ATOM     22  N   UNL     1       7.512   5.174  19.795  0.00  0.00    +0.000 NA
ATOM     23  N   UNL     1       7.877   4.645  18.638  0.00  0.00    +0.000 NA
ATOM     24  N   UNL     1       6.855   4.877  17.787  0.00  0.00    +0.000 N 
BRANCH  24  25
ATOM     25  C   UNL     1       6.950   4.422  16.418  0.00  0.00    +0.000 C 
ATOM     26  C   UNL     1       7.173   5.543  15.388  0.00  0.00    +0.000 C 
ATOM     27  C   UNL     1       6.764   4.939  14.043  0.00  0.00    +0.000 C 
ATOM     28  C   UNL     1       5.888   3.729  14.365  0.00  0.00    +0.000 C 
ATOM     29  C   UNL     1       5.672   3.765  15.875  0.00  0.00    +0.000 C 
ENDBRANCH  24  25
ENDBRANCH  19  20
ENDBRANCH   1  19
TORSDOF 6
ENDMDL
MODEL 5
REMARK VINA RESULT:      -8.9      1.765      1.914
REMARK  Name = 
REMARK  7 active torsions:
REMARK  status: ('A' for Active; 'I' for Inactive)
REMARK    1  A    between atoms: C_1  and  C_2
REMARK    2  A    between atoms: C_5  and  N_6
REMARK    3  A    between atoms: C_7  and  C_9
REMARK    4  A    between atoms: C_9  and  S_10
REMARK    5  A    between atoms: C_9  and  C_21
REMARK    6  A    between atoms: S_10  and  C_11
REMARK    7  A    between atoms: N_15  and  C_16
REMARK                            x       y       z     vdW  Elec       q    Type
REMARK                         _______ _______ _______ _____ _____    ______ ____
ROOT
ATOM      1  C   UNL     1       2.933   6.434  19.568  0.00  0.00    +0.000 C 
ENDROOT
BRANCH   1   2
ATOM      2  C   UNL     1       2.155   5.110  19.519  0.00  0.00    +0.000 A 
ATOM      3  C   UNL     1       1.735   4.447  20.685  0.00  0.00    +0.000 A 
ATOM      4  C   UNL     1       1.066   3.216  20.627  0.00  0.00    +0.000 A 
ATOM      5  C   UNL     1       0.795   2.622  19.401  0.00  0.00    +0.000 A 
ATOM      6  C   UNL     1       1.196   3.260  18.229  0.00  0.00    +0.000 A 
ATOM      7  C   UNL     1       1.869   4.491  18.283  0.00  0.00    +0.000 A 
ENDBRANCH   1   2
BRANCH   1   9
ATOM      8  N   UNL     1       1.833   8.499  18.707  0.00  0.00    +0.000 N 
ATOM      9  C   UNL     1       1.984   7.636  19.790  0.00  0.00    +0.000 C 
ATOM     10  O   UNL     1       1.389   7.766  20.862  0.00  0.00    +0.000 OA
ATOM     11  H   UNL     1       2.125   8.167  17.794  0.00  0.00    +0.000 HD
BRANCH   8  16
ATOM     12  C   UNL     1      -1.501  13.176  18.997  0.00  0.00    +0.000 C 
ATOM     13  C   UNL     1      -0.614  11.973  18.863  0.00  0.00    +0.000 A 
ATOM     14  C   UNL     1       0.682  12.002  19.373  0.00  0.00    +0.000 A 
ATOM     15  C   UNL     1       1.501  10.875  19.293  0.00  0.00    +0.000 A 
ATOM     16  C   UNL     1       1.048   9.682  18.725  0.00  0.00    +0.000 A 
ATOM     17  C   UNL     1      -0.235   9.667  18.161  0.00  0.00    +0.000 A 
ATOM     18  C   UNL     1      -1.063  10.802  18.239  0.00  0.00    +0.000 A 
ENDBRANCH   8  16
ENDBRANCH   1   9
BRANCH   1  19
ATOM     19  S   UNL     1       3.870   6.740  17.976  0.00  0.00    +0.000 S 
BRANCH  19  20
ATOM     20  C   UNL     1       5.314   5.825  18.261  0.00  0.00    +0.000 A 
ATOM     21  N   UNL     1       5.796   5.540  19.451  0.00  0.00    +0.000 NA
ATOM     22  N   UNL     1       6.900   4.756  19.236  0.00  0.00    +0.000 NA
ATOM     23  N   UNL     1       7.103   4.564  17.942  0.00  0.00    +0.000 NA
ATOM     24  N   UNL     1       6.114   5.233  17.310  0.00  0.00    +0.000 N 
BRANCH  24  25
ATOM     25  C   UNL     1       6.058   5.225  15.865  0.00  0.00    +0.000 C 
ATOM     26  C   UNL     1       5.186   4.108  15.268  0.00  0.00    +0.000 C 
ATOM     27  C   UNL     1       5.643   3.977  13.813  0.00  0.00    +0.000 C 
ATOM     28  C   UNL     1       7.025   4.623  13.738  0.00  0.00    +0.000 C 
ATOM     29  C   UNL     1       7.405   4.955  15.178  0.00  0.00    +0.000 C 
ENDBRANCH  24  25
ENDBRANCH  19  20
ENDBRANCH   1  19
TORSDOF 6
ENDMDL
MODEL 6
REMARK VINA RESULT:      -8.9      1.278      1.767
REMARK  Name = 
REMARK  7 active torsions:
REMARK  status: ('A' for Active; 'I' for Inactive)
REMARK    1  A    between atoms: C_1  and  C_2
REMARK    2  A    between atoms: C_5  and  N_6
REMARK    3  A    between atoms: C_7  and  C_9
REMARK    4  A    between atoms: C_9  and  S_10
REMARK    5  A    between atoms: C_9  and  C_21
REMARK    6  A    between atoms: S_10  and  C_11
REMARK    7  A    between atoms: N_15  and  C_16
REMARK                            x       y       z     vdW  Elec       q    Type
REMARK                         _______ _______ _______ _____ _____    ______ ____
ROOT
ATOM      1  C   UNL     1       3.616   5.494  18.967  0.00  0.00    +0.000 C 
ENDROOT
BRANCH   1   2
ATOM      2  C   UNL     1       2.755   4.447  19.691  0.00  0.00    +0.000 A 
ATOM      3  C   UNL     1       1.632   3.857  19.088  0.00  0.00    +0.000 A 
ATOM      4  C   UNL     1       0.829   2.937  19.777  0.00  0.00    +0.000 A 
ATOM      5  C   UNL     1       1.135   2.579  21.085  0.00  0.00    +0.000 A 
ATOM      6  C   UNL     1       2.246   3.146  21.705  0.00  0.00    +0.000 A 
ATOM      7  C   UNL     1       3.051   4.070  21.019  0.00  0.00    +0.000 A 
ENDBRANCH   1   2
BRANCH   1   9
ATOM      8  N   UNL     1       2.243   7.281  20.033  0.00  0.00    +0.000 N 
ATOM      9  C   UNL     1       2.886   6.855  18.873  0.00  0.00    +0.000 C 
ATOM     10  O   UNL     1       2.927   7.509  17.829  0.00  0.00    +0.000 OA
ATOM     11  H   UNL     1       2.496   6.831  20.906  0.00  0.00    +0.000 HD
BRANCH   8  16
ATOM     12  C   UNL     1      -0.624  12.235  20.589  0.00  0.00    +0.000 C 
ATOM     13  C   UNL     1       0.069  10.913  20.435  0.00  0.00    +0.000 A 
ATOM     14  C   UNL     1       0.595  10.541  19.199  0.00  0.00    +0.000 A 
ATOM     15  C   UNL     1       1.279   9.333  19.055  0.00  0.00    +0.000 A 
ATOM     16  C   UNL     1       1.479   8.474  20.137  0.00  0.00    +0.000 A 
ATOM     17  C   UNL     1       0.903   8.818  21.368  0.00  0.00    +0.000 A 
ATOM     18  C   UNL     1       0.212  10.034  21.516  0.00  0.00    +0.000 A 
ENDBRANCH   8  16
ENDBRANCH   1   9
BRANCH   1  19
ATOM     19  S   UNL     1       4.033   4.954  17.223  0.00  0.00    +0.000 S 
BRANCH  19  20
ATOM     20  C   UNL     1       5.754   4.776  17.335  0.00  0.00    +0.000 A 
ATOM     21  N   UNL     1       6.417   4.612  18.458  0.00  0.00    +0.000 NA
ATOM     22  N   UNL     1       7.732   4.450  18.103  0.00  0.00    +0.000 NA
ATOM     23  N   UNL     1       7.882   4.519  16.789  0.00  0.00    +0.000 NA
ATOM     24  N   UNL     1       6.645   4.728  16.287  0.00  0.00    +0.000 N 
BRANCH  24  25
ATOM     25  C   UNL     1       6.469   4.858  14.858  0.00  0.00    +0.000 C 
ATOM     26  C   UNL     1       5.969   3.582  14.159  0.00  0.00    +0.000 C 
ATOM     27  C   UNL     1       6.314   3.773  12.680  0.00  0.00    +0.000 C 
ATOM     28  C   UNL     1       7.391   4.855  12.628  0.00  0.00    +0.000 C 
ATOM     29  C   UNL     1       7.764   5.138  14.081  0.00  0.00    +0.000 C 
ENDBRANCH  24  25
ENDBRANCH  19  20
ENDBRANCH   1  19
TORSDOF 6
ENDMDL
MODEL 7
REMARK VINA RESULT:      -8.8      1.219      1.712
REMARK  Name = 
REMARK  7 active torsions:
REMARK  status: ('A' for Active; 'I' for Inactive)
REMARK    1  A    between atoms: C_1  and  C_2
REMARK    2  A    between atoms: C_5  and  N_6
REMARK    3  A    between atoms: C_7  and  C_9
REMARK    4  A    between atoms: C_9  and  S_10
REMARK    5  A    between atoms: C_9  and  C_21
REMARK    6  A    between atoms: S_10  and  C_11
REMARK    7  A    between atoms: N_15  and  C_16
REMARK                            x       y       z     vdW  Elec       q    Type
REMARK                         _______ _______ _______ _____ _____    ______ ____
ROOT
ATOM      1  C   UNL     1       3.342   6.541  18.775  0.00  0.00    +0.000 C 
ENDROOT
BRANCH   1   2
ATOM      2  C   UNL     1       2.431   5.332  19.039  0.00  0.00    +0.000 A 
ATOM      3  C   UNL     1       1.970   5.012  20.327  0.00  0.00    +0.000 A 
ATOM      4  C   UNL     1       1.177   3.879  20.561  0.00  0.00    +0.000 A 
ATOM      5  C   UNL     1       0.820   3.044  19.509  0.00  0.00    +0.000 A 
ATOM      6  C   UNL     1       1.260   3.341  18.222  0.00  0.00    +0.000 A 
ATOM      7  C   UNL     1       2.057   4.472  17.984  0.00  0.00    +0.000 A 
ENDBRANCH   1   2
BRANCH   1   9
ATOM      8  N   UNL     1       1.772   8.275  19.637  0.00  0.00    +0.000 N 
ATOM      9  C   UNL     1       2.516   7.829  18.547  0.00  0.00    +0.000 C 
ATOM     10  O   UNL     1       2.570   8.416  17.463  0.00  0.00    +0.000 OA
ATOM     11  H   UNL     1       2.007   7.905  20.552  0.00  0.00    +0.000 HD
BRANCH   8  16
ATOM     12  C   UNL     1      -1.470  13.024  19.521  0.00  0.00    +0.000 C 
ATOM     13  C   UNL     1      -0.673  11.754  19.578  0.00  0.00    +0.000 A 
ATOM     14  C   UNL     1      -0.611  10.918  18.465  0.00  0.00    +0.000 A 
ATOM     15  C   UNL     1       0.163   9.757  18.492  0.00  0.00    +0.000 A 
ATOM     16  C   UNL     1       0.914   9.406  19.615  0.00  0.00    +0.000 A 
ATOM     17  C   UNL     1       0.810  10.215  20.756  0.00  0.00    +0.000 A 
ATOM     18  C   UNL     1       0.030  11.385  20.732  0.00  0.00    +0.000 A 
ENDBRANCH   8  16
ENDBRANCH   1   9
BRANCH   1  19
ATOM     19  S   UNL     1       4.412   6.279  17.261  0.00  0.00    +0.000 S 
BRANCH  19  20
ATOM     20  C   UNL     1       5.841   5.608  17.977  0.00  0.00    +0.000 A 
ATOM     21  N   UNL     1       6.191   5.765  19.235  0.00  0.00    +0.000 NA
ATOM     22  N   UNL     1       7.336   5.030  19.404  0.00  0.00    +0.000 NA
ATOM     23  N   UNL     1       7.693   4.437  18.275  0.00  0.00    +0.000 NA
ATOM     24  N   UNL     1       6.763   4.792  17.362  0.00  0.00    +0.000 N 
BRANCH  24  25
ATOM     25  C   UNL     1       6.875   4.305  16.005  0.00  0.00    +0.000 C 
ATOM     26  C   UNL     1       7.365   5.353  14.991  0.00  0.00    +0.000 C 
ATOM     27  C   UNL     1       6.954   4.808  13.622  0.00  0.00    +0.000 C 
ATOM     28  C   UNL     1       5.858   3.776  13.883  0.00  0.00    +0.000 C 
ATOM     29  C   UNL     1       5.544   3.874  15.373  0.00  0.00    +0.000 C 
ENDBRANCH  24  25
ENDBRANCH  19  20
ENDBRANCH   1  19
TORSDOF 6
ENDMDL
MODEL 8
REMARK VINA RESULT:      -8.8      0.983      1.813
REMARK  Name = 
REMARK  7 active torsions:
REMARK  status: ('A' for Active; 'I' for Inactive)
REMARK    1  A    between atoms: C_1  and  C_2
REMARK    2  A    between atoms: C_5  and  N_6
REMARK    3  A    between atoms: C_7  and  C_9
REMARK    4  A    between atoms: C_9  and  S_10
REMARK    5  A    between atoms: C_9  and  C_21
REMARK    6  A    between atoms: S_10  and  C_11
REMARK    7  A    between atoms: N_15  and  C_16
REMARK                            x       y       z     vdW  Elec       q    Type
REMARK                         _______ _______ _______ _____ _____    ______ ____
ROOT
ATOM      1  C   UNL     1       3.329   6.004  19.323  0.00  0.00    +0.000 C 
ENDROOT
BRANCH   1   2
ATOM      2  C   UNL     1       2.497   4.751  19.639  0.00  0.00    +0.000 A 
ATOM      3  C   UNL     1       1.737   4.092  18.658  0.00  0.00    +0.000 A 
ATOM      4  C   UNL     1       0.946   2.977  18.970  0.00  0.00    +0.000 A 
ATOM      5  C   UNL     1       0.903   2.490  20.271  0.00  0.00    +0.000 A 
ATOM      6  C   UNL     1       1.650   3.122  21.262  0.00  0.00    +0.000 A 
ATOM      7  C   UNL     1       2.441   4.241  20.954  0.00  0.00    +0.000 A 
ENDBRANCH   1   2
BRANCH   1   9
ATOM      8  N   UNL     1       1.987   7.825  20.371  0.00  0.00    +0.000 N 
ATOM      9  C   UNL     1       2.430   7.256  19.179  0.00  0.00    +0.000 C 
ATOM     10  O   UNL     1       2.177   7.711  18.062  0.00  0.00    +0.000 OA
ATOM     11  H   UNL     1       2.467   7.565  21.226  0.00  0.00    +0.000 HD
BRANCH   8  16
ATOM     12  C   UNL     1      -1.708  12.230  20.507  0.00  0.00    +0.000 C 
ATOM     13  C   UNL     1      -0.699  11.119  20.496  0.00  0.00    +0.000 A 
ATOM     14  C   UNL     1      -0.648  10.212  21.553  0.00  0.00    +0.000 A 
ATOM     15  C   UNL     1       0.256   9.149  21.532  0.00  0.00    +0.000 A 
ATOM     16  C   UNL     1       1.117   8.945  20.452  0.00  0.00    +0.000 A 
ATOM     17  C   UNL     1       1.108   9.887  19.414  0.00  0.00    +0.000 A 
ATOM     18  C   UNL     1       0.198  10.960  19.432  0.00  0.00    +0.000 A 
ENDBRANCH   8  16
ENDBRANCH   1   9
BRANCH   1  19
ATOM     19  S   UNL     1       4.286   5.809  17.726  0.00  0.00    +0.000 S 
BRANCH  19  20
ATOM     20  C   UNL     1       5.865   5.425  18.330  0.00  0.00    +0.000 A 
ATOM     21  N   UNL     1       6.264   5.637  19.565  0.00  0.00    +0.000 NA
ATOM     22  N   UNL     1       7.539   5.139  19.642  0.00  0.00    +0.000 NA
ATOM     23  N   UNL     1       7.925   4.635  18.480  0.00  0.00    +0.000 NA
ATOM     24  N   UNL     1       6.883   4.809  17.639  0.00  0.00    +0.000 N 
BRANCH  24  25
ATOM     25  C   UNL     1       6.992   4.363  16.268  0.00  0.00    +0.000 C 
ATOM     26  C   UNL     1       7.270   5.486  15.254  0.00  0.00    +0.000 C 
ATOM     27  C   UNL     1       6.871   4.907  13.895  0.00  0.00    +0.000 C 
ATOM     28  C   UNL     1       5.952   3.722  14.187  0.00  0.00    +0.000 C 
ATOM     29  C   UNL     1       5.707   3.751  15.693  0.00  0.00    +0.000 C 
ENDBRANCH  24  25
ENDBRANCH  19  20
ENDBRANCH   1  19
TORSDOF 6
ENDMDL
MODEL 9
REMARK VINA RESULT:      -8.8      1.169      1.433
REMARK  Name = 
REMARK  7 active torsions:
REMARK  status: ('A' for Active; 'I' for Inactive)
REMARK    1  A    between atoms: C_1  and  C_2
REMARK    2  A    between atoms: C_5  and  N_6
REMARK    3  A    between atoms: C_7  and  C_9
REMARK    4  A    between atoms: C_9  and  S_10
REMARK    5  A    between atoms: C_9  and  C_21
REMARK    6  A    between atoms: S_10  and  C_11
REMARK    7  A    between atoms: N_15  and  C_16
REMARK                            x       y       z     vdW  Elec       q    Type
REMARK                         _______ _______ _______ _____ _____    ______ ____
ROOT
ATOM      1  C   UNL     1       3.634   6.172  18.695  0.00  0.00    +0.000 C 
ENDROOT
BRANCH   1   2
ATOM      2  C   UNL     1       3.003   4.771  18.662  0.00  0.00    +0.000 A 
ATOM      3  C   UNL     1       1.770   4.522  18.035  0.00  0.00    +0.000 A 
ATOM      4  C   UNL     1       1.184   3.248  18.051  0.00  0.00    +0.000 A 
ATOM      5  C   UNL     1       1.821   2.191  18.689  0.00  0.00    +0.000 A 
ATOM      6  C   UNL     1       3.046   2.409  19.314  0.00  0.00    +0.000 A 
ATOM      7  C   UNL     1       3.635   3.684  19.303  0.00  0.00    +0.000 A 
ENDBRANCH   1   2
BRANCH   1   9
ATOM      8  N   UNL     1       2.308   7.509  20.329  0.00  0.00    +0.000 N 
ATOM      9  C   UNL     1       2.573   7.260  18.984  0.00  0.00    +0.000 C 
ATOM     10  O   UNL     1       2.045   7.873  18.053  0.00  0.00    +0.000 OA
ATOM     11  H   UNL     1       2.978   7.173  21.012  0.00  0.00    +0.000 HD
BRANCH   8  16
ATOM     12  C   UNL     1      -1.464  11.285  22.470  0.00  0.00    +0.000 C 
ATOM     13  C   UNL     1      -0.525  10.279  21.873  0.00  0.00    +0.000 A 
ATOM     14  C   UNL     1       0.327  10.649  20.834  0.00  0.00    +0.000 A 
ATOM     15  C   UNL     1       1.235   9.733  20.301  0.00  0.00    +0.000 A 
ATOM     16  C   UNL     1       1.337   8.432  20.799  0.00  0.00    +0.000 A 
ATOM     17  C   UNL     1       0.443   8.040  21.806  0.00  0.00    +0.000 A 
ATOM     18  C   UNL     1      -0.474   8.961  22.344  0.00  0.00    +0.000 A 
ENDBRANCH   8  16
ENDBRANCH   1   9
BRANCH   1  19
ATOM     19  S   UNL     1       4.452   6.597  17.066  0.00  0.00    +0.000 S 
BRANCH  19  20
ATOM     20  C   UNL     1       5.923   5.689  17.187  0.00  0.00    +0.000 A 
ATOM     21  N   UNL     1       6.560   5.444  18.311  0.00  0.00    +0.000 NA
ATOM     22  N   UNL     1       7.628   4.650  17.977  0.00  0.00    +0.000 NA
ATOM     23  N   UNL     1       7.657   4.414  16.675  0.00  0.00    +0.000 NA
ATOM     24  N   UNL     1       6.591   5.063  16.158  0.00  0.00    +0.000 N 
BRANCH  24  25
ATOM     25  C   UNL     1       6.343   5.006  14.735  0.00  0.00    +0.000 C 
ATOM     26  C   UNL     1       5.606   3.739  14.267  0.00  0.00    +0.000 C 
ATOM     27  C   UNL     1       5.878   3.649  12.764  0.00  0.00    +0.000 C 
ATOM     28  C   UNL     1       7.104   4.521  12.498  0.00  0.00    +0.000 C 
ATOM     29  C   UNL     1       7.611   4.952  13.871  0.00  0.00    +0.000 C 
ENDBRANCH  24  25
ENDBRANCH  19  20
ENDBRANCH   1  19
TORSDOF 6
ENDMDL
