MODEL 1
REMARK VINA RESULT:      -8.3      0.000      0.000
REMARK  Name = 
REMARK  4 active torsions:
REMARK  status: ('A' for Active; 'I' for Inactive)
REMARK    1  A    between atoms: C_2  and  C_17
REMARK    2  A    between atoms: N_3  and  C_4
REMARK    3  A    between atoms: C_4  and  C_5
REMARK    4  A    between atoms: C_5  and  C_6
REMARK                            x       y       z     vdW  Elec       q    Type
REMARK                         _______ _______ _______ _____ _____    ______ ____
ROOT
ATOM      1  O   UNL     1       1.026   7.977  21.637  0.00  0.00    +0.000 OA
ATOM      2  C   UNL     1       1.574   8.193  20.559  0.00  0.00    +0.000 C 
ATOM      3  N   UNL     1       2.337   7.255  19.897  0.00  0.00    +0.000 N 
ATOM      4  H   UNL     1       2.677   7.504  18.970  0.00  0.00    +0.000 HD
ENDROOT
BRANCH   2   5
ATOM      5  C   UNL     1       1.300   9.434  19.789  0.00  0.00    +0.000 A 
ATOM      6  C   UNL     1       1.049  10.576  20.454  0.00  0.00    +0.000 A 
ATOM      7  N   UNL     1       0.234  11.590  19.964  0.00  0.00    +0.000 N 
ATOM      8  C   UNL     1      -0.719  11.162  19.020  0.00  0.00    +0.000 A 
ATOM      9  C   UNL     1      -2.014  11.665  19.028  0.00  0.00    +0.000 A 
ATOM     10  C   UNL     1      -2.980  11.100  18.188  0.00  0.00    +0.000 A 
ATOM     11  C   UNL     1      -2.630  10.101  17.269  0.00  0.00    +0.000 A 
ATOM     12  C   UNL     1      -1.323   9.628  17.212  0.00  0.00    +0.000 A 
ATOM     13  C   UNL     1      -0.394  10.132  18.114  0.00  0.00    +0.000 A 
ATOM     14  C   UNL     1       0.862   9.404  18.367  0.00  0.00    +0.000 A 
ATOM     15  O   UNL     1       1.407   8.704  17.521  0.00  0.00    +0.000 OA
ATOM     16  H   UNL     1       0.806  12.348  19.569  0.00  0.00    +0.000 HD
ENDBRANCH   2   5
BRANCH   3  17
ATOM     17  C   UNL     1       2.185   5.849  20.234  0.00  0.00    +0.000 C 
BRANCH  17  18
ATOM     18  C   UNL     1       2.746   4.837  19.195  0.00  0.00    +0.000 C 
ATOM     19  C   UNL     1       1.687   4.611  18.077  0.00  0.00    +0.000 C 
ATOM     20  C   UNL     1       2.089   3.498  17.114  0.00  0.00    +0.000 C 
ATOM     21  O   UNL     1       2.355   2.280  17.809  0.00  0.00    +0.000 OA
ATOM     22  C   UNL     1       3.396   2.424  18.771  0.00  0.00    +0.000 C 
ATOM     23  C   UNL     1       2.976   3.436  19.836  0.00  0.00    +0.000 C 
BRANCH  18  24
ATOM     24  C   UNL     1       4.079   5.458  18.688  0.00  0.00    +0.000 A 
ATOM     25  C   UNL     1       4.122   6.246  17.521  0.00  0.00    +0.000 A 
ATOM     26  C   UNL     1       5.312   6.816  17.059  0.00  0.00    +0.000 A 
ATOM     27  C   UNL     1       6.503   6.584  17.738  0.00  0.00    +0.000 A 
ATOM     28  C   UNL     1       6.497   5.776  18.869  0.00  0.00    +0.000 A 
ATOM     29  C   UNL     1       5.305   5.212  19.333  0.00  0.00    +0.000 A 
ENDBRANCH  18  24
ENDBRANCH  17  18
ENDBRANCH   3  17
TORSDOF 4
ENDMDL
MODEL 2
REMARK VINA RESULT:      -8.2      1.822      2.598
REMARK  Name = 
REMARK  4 active torsions:
REMARK  status: ('A' for Active; 'I' for Inactive)
REMARK    1  A    between atoms: C_2  and  C_17
REMARK    2  A    between atoms: N_3  and  C_4
REMARK    3  A    between atoms: C_4  and  C_5
REMARK    4  A    between atoms: C_5  and  C_6
REMARK                            x       y       z     vdW  Elec       q    Type
REMARK                         _______ _______ _______ _____ _____    ______ ____
ROOT
ATOM      1  O   UNL     1       1.308   7.837  21.462  0.00  0.00    +0.000 OA
ATOM      2  C   UNL     1       1.721   7.993  20.316  0.00  0.00    +0.000 C 
ATOM      3  N   UNL     1       2.549   7.093  19.682  0.00  0.00    +0.000 N 
ATOM      4  H   UNL     1       2.766   7.272  18.703  0.00  0.00    +0.000 HD
ENDROOT
BRANCH   2   5
ATOM      5  C   UNL     1       1.204   9.085  19.451  0.00  0.00    +0.000 A 
ATOM      6  C   UNL     1       1.764   9.287  18.245  0.00  0.00    +0.000 A 
ATOM      7  N   UNL     1       1.830  10.531  17.624  0.00  0.00    +0.000 N 
ATOM      8  C   UNL     1       1.776  11.624  18.510  0.00  0.00    +0.000 A 
ATOM      9  C   UNL     1       2.577  12.743  18.320  0.00  0.00    +0.000 A 
ATOM     10  C   UNL     1       2.623  13.735  19.304  0.00  0.00    +0.000 A 
ATOM     11  C   UNL     1       1.794  13.661  20.432  0.00  0.00    +0.000 A 
ATOM     12  C   UNL     1       0.944  12.573  20.606  0.00  0.00    +0.000 A 
ATOM     13  C   UNL     1       0.976  11.549  19.668  0.00  0.00    +0.000 A 
ATOM     14  C   UNL     1       0.418  10.225  19.998  0.00  0.00    +0.000 A 
ATOM     15  O   UNL     1      -0.510  10.072  20.784  0.00  0.00    +0.000 OA
ATOM     16  H   UNL     1       1.091  10.615  16.915  0.00  0.00    +0.000 HD
ENDBRANCH   2   5
BRANCH   3  17
ATOM     17  C   UNL     1       2.632   5.729  20.180  0.00  0.00    +0.000 C 
BRANCH  17  18
ATOM     18  C   UNL     1       3.125   4.663  19.162  0.00  0.00    +0.000 C 
ATOM     19  C   UNL     1       2.003   4.395  18.118  0.00  0.00    +0.000 C 
ATOM     20  C   UNL     1       2.341   3.232  17.189  0.00  0.00    +0.000 C 
ATOM     21  O   UNL     1       2.636   2.046  17.926  0.00  0.00    +0.000 OA
ATOM     22  C   UNL     1       3.730   2.225  18.821  0.00  0.00    +0.000 C 
ATOM     23  C   UNL     1       3.379   3.292  19.857  0.00  0.00    +0.000 C 
BRANCH  18  24
ATOM     24  C   UNL     1       4.433   5.243  18.552  0.00  0.00    +0.000 A 
ATOM     25  C   UNL     1       4.460   5.771  17.246  0.00  0.00    +0.000 A 
ATOM     26  C   UNL     1       5.626   6.302  16.689  0.00  0.00    +0.000 A 
ATOM     27  C   UNL     1       6.811   6.291  17.416  0.00  0.00    +0.000 A 
ATOM     28  C   UNL     1       6.824   5.738  18.692  0.00  0.00    +0.000 A 
ATOM     29  C   UNL     1       5.655   5.212  19.249  0.00  0.00    +0.000 A 
ENDBRANCH  18  24
ENDBRANCH  17  18
ENDBRANCH   3  17
TORSDOF 4
ENDMDL
MODEL 3
REMARK VINA RESULT:      -8.1      1.819      7.803
REMARK  Name = 
REMARK  4 active torsions:
REMARK  status: ('A' for Active; 'I' for Inactive)
REMARK    1  A    between atoms: C_2  and  C_17
REMARK    2  A    between atoms: N_3  and  C_4
REMARK    3  A    between atoms: C_4  and  C_5
REMARK    4  A    between atoms: C_5  and  C_6
REMARK                            x       y       z     vdW  Elec       q    Type
REMARK                         _______ _______ _______ _____ _____    ______ ____
ROOT
ATOM      1  O   UNL     1       2.605   8.136  16.988  0.00  0.00    +0.000 OA
ATOM      2  C   UNL     1       2.564   7.990  18.207  0.00  0.00    +0.000 C 
ATOM      3  N   UNL     1       1.865   8.831  19.046  0.00  0.00    +0.000 N 
ATOM      4  H   UNL     1       1.823   8.574  20.031  0.00  0.00    +0.000 HD
ENDROOT
BRANCH   2   5
ATOM      5  C   UNL     1       3.119   6.775  18.858  0.00  0.00    +0.000 A 
ATOM      6  C   UNL     1       4.145   6.130  18.276  0.00  0.00    +0.000 A 
ATOM      7  N   UNL     1       4.362   4.761  18.394  0.00  0.00    +0.000 N 
ATOM      8  C   UNL     1       3.204   4.014  18.688  0.00  0.00    +0.000 A 
ATOM      9  C   UNL     1       2.970   2.785  18.085  0.00  0.00    +0.000 A 
ATOM     10  C   UNL     1       1.739   2.148  18.269  0.00  0.00    +0.000 A 
ATOM     11  C   UNL     1       0.778   2.690  19.134  0.00  0.00    +0.000 A 
ATOM     12  C   UNL     1       1.022   3.893  19.788  0.00  0.00    +0.000 A 
ATOM     13  C   UNL     1       2.212   4.562  19.526  0.00  0.00    +0.000 A 
ATOM     14  C   UNL     1       2.347   5.990  19.861  0.00  0.00    +0.000 A 
ATOM     15  O   UNL     1       1.744   6.515  20.790  0.00  0.00    +0.000 OA
ATOM     16  H   UNL     1       5.090   4.574  19.096  0.00  0.00    +0.000 HD
ENDBRANCH   2   5
BRANCH   3  17
ATOM     17  C   UNL     1       0.814   9.672  18.496  0.00  0.00    +0.000 C 
BRANCH  17  18
ATOM     18  C   UNL     1       0.021  10.528  19.523  0.00  0.00    +0.000 C 
ATOM     19  C   UNL     1       0.771  11.872  19.756  0.00  0.00    +0.000 C 
ATOM     20  C   UNL     1       0.152  12.693  20.883  0.00  0.00    +0.000 C 
ATOM     21  O   UNL     1       0.077  11.942  22.094  0.00  0.00    +0.000 OA
ATOM     22  C   UNL     1      -0.693  10.752  21.945  0.00  0.00    +0.000 C 
ATOM     23  C   UNL     1      -0.031   9.836  20.918  0.00  0.00    +0.000 C 
BRANCH  18  24
ATOM     24  C   UNL     1      -1.402  10.694  18.916  0.00  0.00    +0.000 A 
ATOM     25  C   UNL     1      -1.916   9.762  17.992  0.00  0.00    +0.000 A 
ATOM     26  C   UNL     1      -3.195   9.896  17.445  0.00  0.00    +0.000 A 
ATOM     27  C   UNL     1      -3.987  10.987  17.786  0.00  0.00    +0.000 A 
ATOM     28  C   UNL     1      -3.488  11.944  18.663  0.00  0.00    +0.000 A 
ATOM     29  C   UNL     1      -2.210  11.805  19.213  0.00  0.00    +0.000 A 
ENDBRANCH  18  24
ENDBRANCH  17  18
ENDBRANCH   3  17
TORSDOF 4
ENDMDL
MODEL 4
REMARK VINA RESULT:      -8.0      1.732      2.876
REMARK  Name = 
REMARK  4 active torsions:
REMARK  status: ('A' for Active; 'I' for Inactive)
REMARK    1  A    between atoms: C_2  and  C_17
REMARK    2  A    between atoms: N_3  and  C_4
REMARK    3  A    between atoms: C_4  and  C_5
REMARK    4  A    between atoms: C_5  and  C_6
REMARK                            x       y       z     vdW  Elec       q    Type
REMARK                         _______ _______ _______ _____ _____    ______ ____
ROOT
ATOM      1  O   UNL     1       2.502   9.275  17.170  0.00  0.00    +0.000 OA
ATOM      2  C   UNL     1       1.744   8.796  18.009  0.00  0.00    +0.000 C 
ATOM      3  N   UNL     1       1.952   7.571  18.604  0.00  0.00    +0.000 N 
ATOM      4  H   UNL     1       1.312   7.302  19.349  0.00  0.00    +0.000 HD
ENDROOT
BRANCH   2   5
ATOM      5  C   UNL     1       0.632   9.593  18.588  0.00  0.00    +0.000 A 
ATOM      6  C   UNL     1      -0.336  10.054  17.777  0.00  0.00    +0.000 A 
ATOM      7  N   UNL     1      -1.046  11.228  18.012  0.00  0.00    +0.000 N 
ATOM      8  C   UNL     1      -0.366  12.164  18.815  0.00  0.00    +0.000 A 
ATOM      9  C   UNL     1      -0.415  13.523  18.531  0.00  0.00    +0.000 A 
ATOM     10  C   UNL     1       0.401  14.408  19.242  0.00  0.00    +0.000 A 
ATOM     11  C   UNL     1       1.192  13.950  20.306  0.00  0.00    +0.000 A 
ATOM     12  C   UNL     1       1.206  12.599  20.638  0.00  0.00    +0.000 A 
ATOM     13  C   UNL     1       0.462  11.717  19.864  0.00  0.00    +0.000 A 
ATOM     14  C   UNL     1       0.747  10.272  19.909  0.00  0.00    +0.000 A 
ATOM     15  O   UNL     1       1.194   9.713  20.903  0.00  0.00    +0.000 OA
ATOM     16  H   UNL     1      -1.965  11.014  18.421  0.00  0.00    +0.000 HD
ENDBRANCH   2   5
BRANCH   3  17
ATOM     17  C   UNL     1       3.282   6.983  18.577  0.00  0.00    +0.000 C 
BRANCH  17  18
ATOM     18  C   UNL     1       3.338   5.430  18.561  0.00  0.00    +0.000 C 
ATOM     19  C   UNL     1       2.072   4.880  17.841  0.00  0.00    +0.000 C 
ATOM     20  C   UNL     1       1.964   3.361  17.938  0.00  0.00    +0.000 C 
ATOM     21  O   UNL     1       2.001   2.923  19.296  0.00  0.00    +0.000 OA
ATOM     22  C   UNL     1       3.198   3.321  19.960  0.00  0.00    +0.000 C 
ATOM     23  C   UNL     1       3.280   4.846  20.004  0.00  0.00    +0.000 C 
BRANCH  18  24
ATOM     24  C   UNL     1       4.676   5.070  17.854  0.00  0.00    +0.000 A 
ATOM     25  C   UNL     1       5.906   5.136  18.538  0.00  0.00    +0.000 A 
ATOM     26  C   UNL     1       7.115   4.808  17.917  0.00  0.00    +0.000 A 
ATOM     27  C   UNL     1       7.128   4.433  16.578  0.00  0.00    +0.000 A 
ATOM     28  C   UNL     1       5.934   4.399  15.867  0.00  0.00    +0.000 A 
ATOM     29  C   UNL     1       4.726   4.722  16.492  0.00  0.00    +0.000 A 
ENDBRANCH  18  24
ENDBRANCH  17  18
ENDBRANCH   3  17
TORSDOF 4
ENDMDL
MODEL 5
REMARK VINA RESULT:      -8.0      2.382      8.069
REMARK  Name = 
REMARK  4 active torsions:
REMARK  status: ('A' for Active; 'I' for Inactive)
REMARK    1  A    between atoms: C_2  and  C_17
REMARK    2  A    between atoms: N_3  and  C_4
REMARK    3  A    between atoms: C_4  and  C_5
REMARK    4  A    between atoms: C_5  and  C_6
REMARK                            x       y       z     vdW  Elec       q    Type
REMARK                         _______ _______ _______ _____ _____    ______ ____
ROOT
ATOM      1  O   UNL     1       1.425   9.061  17.320  0.00  0.00    +0.000 OA
ATOM      2  C   UNL     1       1.685   8.755  18.481  0.00  0.00    +0.000 C 
ATOM      3  N   UNL     1       1.100   9.361  19.572  0.00  0.00    +0.000 N 
ATOM      4  H   UNL     1       1.320   8.977  20.489  0.00  0.00    +0.000 HD
ENDROOT
BRANCH   2   5
ATOM      5  C   UNL     1       2.523   7.569  18.797  0.00  0.00    +0.000 A 
ATOM      6  C   UNL     1       3.305   7.044  17.838  0.00  0.00    +0.000 A 
ATOM      7  N   UNL     1       3.644   5.697  17.770  0.00  0.00    +0.000 N 
ATOM      8  C   UNL     1       2.729   4.837  18.409  0.00  0.00    +0.000 A 
ATOM      9  C   UNL     1       2.376   3.617  17.846  0.00  0.00    +0.000 A 
ATOM     10  C   UNL     1       1.345   2.865  18.417  0.00  0.00    +0.000 A 
ATOM     11  C   UNL     1       0.734   3.281  19.608  0.00  0.00    +0.000 A 
ATOM     12  C   UNL     1       1.118   4.473  20.214  0.00  0.00    +0.000 A 
ATOM     13  C   UNL     1       2.079   5.257  19.587  0.00  0.00    +0.000 A 
ATOM     14  C   UNL     1       2.229   6.677  19.952  0.00  0.00    +0.000 A 
ATOM     15  O   UNL     1       1.975   7.106  21.072  0.00  0.00    +0.000 OA
ATOM     16  H   UNL     1       4.589   5.547  18.145  0.00  0.00    +0.000 HD
ENDBRANCH   2   5
BRANCH   3  17
ATOM     17  C   UNL     1      -0.146  10.090  19.397  0.00  0.00    +0.000 C 
BRANCH  17  18
ATOM     18  C   UNL     1      -0.098  11.607  19.733  0.00  0.00    +0.000 C 
ATOM     19  C   UNL     1      -0.464  12.424  18.459  0.00  0.00    +0.000 C 
ATOM     20  C   UNL     1      -0.269  13.924  18.656  0.00  0.00    +0.000 C 
ATOM     21  O   UNL     1       1.061  14.224  19.081  0.00  0.00    +0.000 OA
ATOM     22  C   UNL     1       1.396  13.574  20.304  0.00  0.00    +0.000 C 
ATOM     23  C   UNL     1       1.344  12.059  20.112  0.00  0.00    +0.000 C 
BRANCH  18  24
ATOM     24  C   UNL     1      -1.087  11.803  20.917  0.00  0.00    +0.000 A 
ATOM     25  C   UNL     1      -2.287  12.524  20.757  0.00  0.00    +0.000 A 
ATOM     26  C   UNL     1      -3.188  12.701  21.811  0.00  0.00    +0.000 A 
ATOM     27  C   UNL     1      -2.895  12.186  23.069  0.00  0.00    +0.000 A 
ATOM     28  C   UNL     1      -1.698  11.506  23.266  0.00  0.00    +0.000 A 
ATOM     29  C   UNL     1      -0.802  11.325  22.209  0.00  0.00    +0.000 A 
ENDBRANCH  18  24
ENDBRANCH  17  18
ENDBRANCH   3  17
TORSDOF 4
ENDMDL
MODEL 6
REMARK VINA RESULT:      -8.0      5.000      9.945
REMARK  Name = 
REMARK  4 active torsions:
REMARK  status: ('A' for Active; 'I' for Inactive)
REMARK    1  A    between atoms: C_2  and  C_17
REMARK    2  A    between atoms: N_3  and  C_4
REMARK    3  A    between atoms: C_4  and  C_5
REMARK    4  A    between atoms: C_5  and  C_6
REMARK                            x       y       z     vdW  Elec       q    Type
REMARK                         _______ _______ _______ _____ _____    ______ ____
ROOT
ATOM      1  O   UNL     1      -2.359  10.028  16.832  0.00  0.00    +0.000 OA
ATOM      2  C   UNL     1      -2.177  11.000  17.561  0.00  0.00    +0.000 C 
ATOM      3  N   UNL     1      -3.132  11.970  17.779  0.00  0.00    +0.000 N 
ATOM      4  H   UNL     1      -2.913  12.689  18.466  0.00  0.00    +0.000 HD
ENDROOT
BRANCH   2   5
ATOM      5  C   UNL     1      -0.967  11.108  18.417  0.00  0.00    +0.000 A 
ATOM      6  C   UNL     1      -0.031  10.144  18.353  0.00  0.00    +0.000 A 
ATOM      7  N   UNL     1       0.780   9.785  19.424  0.00  0.00    +0.000 N 
ATOM      8  C   UNL     1       0.236  10.083  20.688  0.00  0.00    +0.000 A 
ATOM      9  C   UNL     1       0.365   9.200  21.752  0.00  0.00    +0.000 A 
ATOM     10  C   UNL     1      -0.326   9.446  22.943  0.00  0.00    +0.000 A 
ATOM     11  C   UNL     1      -1.066  10.624  23.107  0.00  0.00    +0.000 A 
ATOM     12  C   UNL     1      -1.157  11.546  22.068  0.00  0.00    +0.000 A 
ATOM     13  C   UNL     1      -0.542  11.246  20.860  0.00  0.00    +0.000 A 
ATOM     14  C   UNL     1      -0.931  11.965  19.633  0.00  0.00    +0.000 A 
ATOM     15  O   UNL     1      -1.343  13.119  19.642  0.00  0.00    +0.000 OA
ATOM     16  H   UNL     1       1.709  10.217  19.329  0.00  0.00    +0.000 HD
ENDBRANCH   2   5
BRANCH   3  17
ATOM     17  C   UNL     1      -4.526  11.673  17.494  0.00  0.00    +0.000 C 
BRANCH  17  18
ATOM     18  C   UNL     1      -5.544  12.058  18.604  0.00  0.00    +0.000 C 
ATOM     19  C   UNL     1      -4.785  12.246  19.950  0.00  0.00    +0.000 C 
ATOM     20  C   UNL     1      -5.734  12.452  21.127  0.00  0.00    +0.000 C 
ATOM     21  O   UNL     1      -6.679  11.386  21.226  0.00  0.00    +0.000 OA
ATOM     22  C   UNL     1      -7.466  11.252  20.046  0.00  0.00    +0.000 C 
ATOM     23  C   UNL     1      -6.564  10.909  18.861  0.00  0.00    +0.000 C 
BRANCH  18  24
ATOM     24  C   UNL     1      -6.251  13.345  18.091  0.00  0.00    +0.000 A 
ATOM     25  C   UNL     1      -6.297  14.516  18.874  0.00  0.00    +0.000 A 
ATOM     26  C   UNL     1      -6.923  15.681  18.422  0.00  0.00    +0.000 A 
ATOM     27  C   UNL     1      -7.552  15.696  17.182  0.00  0.00    +0.000 A 
ATOM     28  C   UNL     1      -7.559  14.542  16.407  0.00  0.00    +0.000 A 
ATOM     29  C   UNL     1      -6.927  13.379  16.858  0.00  0.00    +0.000 A 
ENDBRANCH  18  24
ENDBRANCH  17  18
ENDBRANCH   3  17
TORSDOF 4
ENDMDL
MODEL 7
REMARK VINA RESULT:      -7.9      1.248      2.934
REMARK  Name = 
REMARK  4 active torsions:
REMARK  status: ('A' for Active; 'I' for Inactive)
REMARK    1  A    between atoms: C_2  and  C_17
REMARK    2  A    between atoms: N_3  and  C_4
REMARK    3  A    between atoms: C_4  and  C_5
REMARK    4  A    between atoms: C_5  and  C_6
REMARK                            x       y       z     vdW  Elec       q    Type
REMARK                         _______ _______ _______ _____ _____    ______ ____
ROOT
ATOM      1  O   UNL     1       0.539   7.807  21.307  0.00  0.00    +0.000 OA
ATOM      2  C   UNL     1       1.322   8.319  20.511  0.00  0.00    +0.000 C 
ATOM      3  N   UNL     1       2.442   7.675  20.031  0.00  0.00    +0.000 N 
ATOM      4  H   UNL     1       2.980   8.154  19.311  0.00  0.00    +0.000 HD
ENDROOT
BRANCH   2   5
ATOM      5  C   UNL     1       1.018   9.618  19.857  0.00  0.00    +0.000 A 
ATOM      6  C   UNL     1       0.720  10.684  20.622  0.00  0.00    +0.000 A 
ATOM      7  N   UNL     1      -0.122  11.714  20.215  0.00  0.00    +0.000 N 
ATOM      8  C   UNL     1      -1.047  11.346  19.219  0.00  0.00    +0.000 A 
ATOM      9  C   UNL     1      -2.358  11.804  19.252  0.00  0.00    +0.000 A 
ATOM     10  C   UNL     1      -3.293  11.291  18.347  0.00  0.00    +0.000 A 
ATOM     11  C   UNL     1      -2.897  10.395  17.345  0.00  0.00    +0.000 A 
ATOM     12  C   UNL     1      -1.574   9.972  17.265  0.00  0.00    +0.000 A 
ATOM     13  C   UNL     1      -0.675  10.417  18.226  0.00  0.00    +0.000 A 
ATOM     14  C   UNL     1       0.601   9.709  18.431  0.00  0.00    +0.000 A 
ATOM     15  O   UNL     1       1.180   9.110  17.533  0.00  0.00    +0.000 OA
ATOM     16  H   UNL     1       0.430  12.523  19.903  0.00  0.00    +0.000 HD
ENDBRANCH   2   5
BRANCH   3  17
ATOM     17  C   UNL     1       2.521   6.226  20.118  0.00  0.00    +0.000 C 
BRANCH  17  18
ATOM     18  C   UNL     1       3.429   5.531  19.064  0.00  0.00    +0.000 C 
ATOM     19  C   UNL     1       4.899   5.530  19.577  0.00  0.00    +0.000 C 
ATOM     20  C   UNL     1       5.880   5.025  18.524  0.00  0.00    +0.000 C 
ATOM     21  O   UNL     1       5.770   5.769  17.311  0.00  0.00    +0.000 OA
ATOM     22  C   UNL     1       4.459   5.706  16.755  0.00  0.00    +0.000 C 
ATOM     23  C   UNL     1       3.458   6.329  17.727  0.00  0.00    +0.000 C 
BRANCH  18  24
ATOM     24  C   UNL     1       2.826   4.111  18.868  0.00  0.00    +0.000 A 
ATOM     25  C   UNL     1       1.432   3.904  18.847  0.00  0.00    +0.000 A 
ATOM     26  C   UNL     1       0.877   2.634  18.664  0.00  0.00    +0.000 A 
ATOM     27  C   UNL     1       1.706   1.526  18.527  0.00  0.00    +0.000 A 
ATOM     28  C   UNL     1       3.086   1.696  18.586  0.00  0.00    +0.000 A 
ATOM     29  C   UNL     1       3.638   2.967  18.764  0.00  0.00    +0.000 A 
ENDBRANCH  18  24
ENDBRANCH  17  18
ENDBRANCH   3  17
TORSDOF 4
ENDMDL
MODEL 8
REMARK VINA RESULT:      -7.9      2.419      8.263
REMARK  Name = 
REMARK  4 active torsions:
REMARK  status: ('A' for Active; 'I' for Inactive)
REMARK    1  A    between atoms: C_2  and  C_17
REMARK    2  A    between atoms: N_3  and  C_4
REMARK    3  A    between atoms: C_4  and  C_5
REMARK    4  A    between atoms: C_5  and  C_6
REMARK                            x       y       z     vdW  Elec       q    Type
REMARK                         _______ _______ _______ _____ _____    ______ ____
ROOT
ATOM      1  O   UNL     1       1.018   9.179  17.540  0.00  0.00    +0.000 OA
ATOM      2  C   UNL     1       1.423   8.910  18.668  0.00  0.00    +0.000 C 
ATOM      3  N   UNL     1       0.944   9.519  19.808  0.00  0.00    +0.000 N 
ATOM      4  H   UNL     1       1.283   9.165  20.701  0.00  0.00    +0.000 HD
ENDROOT
BRANCH   2   5
ATOM      5  C   UNL     1       2.338   7.764  18.907  0.00  0.00    +0.000 A 
ATOM      6  C   UNL     1       3.105   7.317  17.897  0.00  0.00    +0.000 A 
ATOM      7  N   UNL     1       3.515   5.994  17.768  0.00  0.00    +0.000 N 
ATOM      8  C   UNL     1       2.679   5.063  18.415  0.00  0.00    +0.000 A 
ATOM      9  C   UNL     1       2.369   3.844  17.824  0.00  0.00    +0.000 A 
ATOM     10  C   UNL     1       1.408   3.016  18.412  0.00  0.00    +0.000 A 
ATOM     11  C   UNL     1       0.828   3.357  19.641  0.00  0.00    +0.000 A 
ATOM     12  C   UNL     1       1.172   4.549  20.272  0.00  0.00    +0.000 A 
ATOM     13  C   UNL     1       2.059   5.406  19.633  0.00  0.00    +0.000 A 
ATOM     14  C   UNL     1       2.146   6.819  20.041  0.00  0.00    +0.000 A 
ATOM     15  O   UNL     1       1.919   7.196  21.185  0.00  0.00    +0.000 OA
ATOM     16  H   UNL     1       4.483   5.886  18.097  0.00  0.00    +0.000 HD
ENDBRANCH   2   5
BRANCH   3  17
ATOM     17  C   UNL     1      -0.342  10.196  19.766  0.00  0.00    +0.000 C 
BRANCH  17  18
ATOM     18  C   UNL     1      -0.308  11.734  19.990  0.00  0.00    +0.000 C 
ATOM     19  C   UNL     1      -0.444  12.453  18.616  0.00  0.00    +0.000 C 
ATOM     20  C   UNL     1      -0.242  13.961  18.728  0.00  0.00    +0.000 C 
ATOM     21  O   UNL     1       1.010  14.274  19.339  0.00  0.00    +0.000 OA
ATOM     22  C   UNL     1       1.128  13.717  20.645  0.00  0.00    +0.000 C 
ATOM     23  C   UNL     1       1.066  12.193  20.562  0.00  0.00    +0.000 C 
BRANCH  18  24
ATOM     24  C   UNL     1      -1.468  12.037  20.980  0.00  0.00    +0.000 A 
ATOM     25  C   UNL     1      -1.366  11.711  22.348  0.00  0.00    +0.000 A 
ATOM     26  C   UNL     1      -2.398  11.985  23.250  0.00  0.00    +0.000 A 
ATOM     27  C   UNL     1      -3.579  12.565  22.800  0.00  0.00    +0.000 A 
ATOM     28  C   UNL     1      -3.723  12.857  21.449  0.00  0.00    +0.000 A 
ATOM     29  C   UNL     1      -2.688  12.588  20.549  0.00  0.00    +0.000 A 
ENDBRANCH  18  24
ENDBRANCH  17  18
ENDBRANCH   3  17
TORSDOF 4
ENDMDL
MODEL 9
REMARK VINA RESULT:      -7.8      2.117      2.924
REMARK  Name = 
REMARK  4 active torsions:
REMARK  status: ('A' for Active; 'I' for Inactive)
REMARK    1  A    between atoms: C_2  and  C_17
REMARK    2  A    between atoms: N_3  and  C_4
REMARK    3  A    between atoms: C_4  and  C_5
REMARK    4  A    between atoms: C_5  and  C_6
REMARK                            x       y       z     vdW  Elec       q    Type
REMARK                         _______ _______ _______ _____ _____    ______ ____
ROOT
ATOM      1  O   UNL     1       0.731   9.424  18.705  0.00  0.00    +0.000 OA
ATOM      2  C   UNL     1       1.121   8.996  19.788  0.00  0.00    +0.000 C 
ATOM      3  N   UNL     1       1.822   7.817  19.928  0.00  0.00    +0.000 N 
ATOM      4  H   UNL     1       2.174   7.594  20.857  0.00  0.00    +0.000 HD
ENDROOT
BRANCH   2   5
ATOM      5  C   UNL     1       1.027   9.819  21.022  0.00  0.00    +0.000 A 
ATOM      6  C   UNL     1       0.637   9.237  22.170  0.00  0.00    +0.000 A 
ATOM      7  N   UNL     1      -0.048   9.905  23.180  0.00  0.00    +0.000 N 
ATOM      8  C   UNL     1      -0.768  11.034  22.742  0.00  0.00    +0.000 A 
ATOM      9  C   UNL     1      -2.032  11.318  23.244  0.00  0.00    +0.000 A 
ATOM     10  C   UNL     1      -2.788  12.345  22.671  0.00  0.00    +0.000 A 
ATOM     11  C   UNL     1      -2.244  13.155  21.664  0.00  0.00    +0.000 A 
ATOM     12  C   UNL     1      -0.957  12.916  21.191  0.00  0.00    +0.000 A 
ATOM     13  C   UNL     1      -0.252  11.835  21.704  0.00  0.00    +0.000 A 
ATOM     14  C   UNL     1       0.916  11.303  20.979  0.00  0.00    +0.000 A 
ATOM     15  O   UNL     1       1.634  12.000  20.272  0.00  0.00    +0.000 OA
ATOM     16  H   UNL     1       0.598  10.170  23.934  0.00  0.00    +0.000 HD
ENDBRANCH   2   5
BRANCH   3  17
ATOM     17  C   UNL     1       2.489   7.245  18.770  0.00  0.00    +0.000 C 
BRANCH  17  18
ATOM     18  C   UNL     1       2.746   5.712  18.822  0.00  0.00    +0.000 C 
ATOM     19  C   UNL     1       1.686   4.986  17.943  0.00  0.00    +0.000 C 
ATOM     20  C   UNL     1       1.761   3.468  18.082  0.00  0.00    +0.000 C 
ATOM     21  O   UNL     1       1.645   3.065  19.447  0.00  0.00    +0.000 OA
ATOM     22  C   UNL     1       2.666   3.630  20.265  0.00  0.00    +0.000 C 
ATOM     23  C   UNL     1       2.543   5.153  20.262  0.00  0.00    +0.000 C 
BRANCH  18  24
ATOM     24  C   UNL     1       4.211   5.520  18.338  0.00  0.00    +0.000 A 
ATOM     25  C   UNL     1       5.279   5.429  19.253  0.00  0.00    +0.000 A 
ATOM     26  C   UNL     1       6.599   5.248  18.831  0.00  0.00    +0.000 A 
ATOM     27  C   UNL     1       6.893   5.186  17.474  0.00  0.00    +0.000 A 
ATOM     28  C   UNL     1       5.864   5.315  16.547  0.00  0.00    +0.000 A 
ATOM     29  C   UNL     1       4.543   5.490  16.971  0.00  0.00    +0.000 A 
ENDBRANCH  18  24
ENDBRANCH  17  18
ENDBRANCH   3  17
TORSDOF 4
ENDMDL
