MODEL 1
REMARK VINA RESULT:      -9.5      0.000      0.000
REMARK  Name = 
REMARK  4 active torsions:
REMARK  status: ('A' for Active; 'I' for Inactive)
REMARK    1  A    between atoms: C_2  and  C_20
REMARK    2  A    between atoms: N_3  and  C_4
REMARK    3  A    between atoms: C_8  and  C_9
REMARK    4  A    between atoms: C_23  and  C_24
REMARK                            x       y       z     vdW  Elec       q    Type
REMARK                         _______ _______ _______ _____ _____    ______ ____
ROOT
ATOM      1  O   UNL     1       1.792   8.349  19.247  0.00  0.00    +0.000 OA
ATOM      2  C   UNL     1       1.353   8.138  20.371  0.00  0.00    +0.000 C 
ATOM      3  N   UNL     1       1.333   6.927  21.042  0.00  0.00    +0.000 N 
ATOM      4  H   UNL     1       0.758   6.859  21.873  0.00  0.00    +0.000 HD
ENDROOT
BRANCH   3   5
ATOM      5  C   UNL     1       1.906   5.722  20.577  0.00  0.00    +0.000 A 
ATOM      6  C   UNL     1       1.204   4.515  20.541  0.00  0.00    +0.000 A 
ATOM      7  C   UNL     1       1.829   3.340  20.137  0.00  0.00    +0.000 A 
ATOM      8  C   UNL     1       3.159   3.370  19.733  0.00  0.00    +0.000 A 
ATOM      9  C   UNL     1       3.854   4.584  19.651  0.00  0.00    +0.000 A 
ATOM     10  C   UNL     1       3.228   5.755  20.109  0.00  0.00    +0.000 A 
BRANCH   9  11
ATOM     11  C   UNL     1       5.195   4.649  19.066  0.00  0.00    +0.000 A 
ATOM     12  N   UNL     1       6.332   4.711  19.732  0.00  0.00    +0.000 NA
ATOM     13  N   UNL     1       7.365   4.762  18.831  0.00  0.00    +0.000 NA
ATOM     14  C   UNL     1       6.857   4.759  17.616  0.00  0.00    +0.000 A 
ATOM     15  N   UNL     1       5.487   4.734  17.717  0.00  0.00    +0.000 N 
ATOM     16  C   UNL     1       4.527   4.821  16.634  0.00  0.00    +0.000 C 
ATOM     17  C   UNL     1       4.930   5.740  15.492  0.00  0.00    +0.000 C 
ATOM     18  C   UNL     1       5.908   5.102  14.512  0.00  0.00    +0.000 C 
ATOM     19  C   UNL     1       6.970   4.199  15.140  0.00  0.00    +0.000 C 
ATOM     20  C   UNL     1       7.654   4.817  16.355  0.00  0.00    +0.000 C 
ENDBRANCH   9  11
ENDBRANCH   3   5
BRANCH   2  21
ATOM     21  C   UNL     1       0.738   9.283  21.086  0.00  0.00    +0.000 A 
ATOM     22  C   UNL     1       0.042   9.020  22.271  0.00  0.00    +0.000 A 
ATOM     23  C   UNL     1      -0.621  10.048  22.942  0.00  0.00    +0.000 A 
ATOM     24  C   UNL     1      -0.608  11.352  22.429  0.00  0.00    +0.000 A 
ATOM     25  C   UNL     1       0.105  11.609  21.246  0.00  0.00    +0.000 A 
ATOM     26  C   UNL     1       0.769  10.580  20.569  0.00  0.00    +0.000 A 
BRANCH  24  27
ATOM     27  C   UNL     1      -1.326  12.437  23.083  0.00  0.00    +0.000 A 
ATOM     28  N   UNL     1      -0.838  13.588  23.508  0.00  0.00    +0.000 NA
ATOM     29  N   UNL     1      -1.896  14.292  24.028  0.00  0.00    +0.000 NA
ATOM     30  N   UNL     1      -3.023  13.608  23.915  0.00  0.00    +0.000 NA
ATOM     31  N   UNL     1      -2.674  12.461  23.321  0.00  0.00    +0.000 N 
ATOM     32  H   UNL     1      -3.384  11.780  23.090  0.00  0.00    +0.000 HD
ENDBRANCH  24  27
ENDBRANCH   2  21
TORSDOF 4
ENDMDL
MODEL 2
REMARK VINA RESULT:      -9.1      6.096      8.045
REMARK  Name = 
REMARK  4 active torsions:
REMARK  status: ('A' for Active; 'I' for Inactive)
REMARK    1  A    between atoms: C_2  and  C_20
REMARK    2  A    between atoms: N_3  and  C_4
REMARK    3  A    between atoms: C_8  and  C_9
REMARK    4  A    between atoms: C_23  and  C_24
REMARK                            x       y       z     vdW  Elec       q    Type
REMARK                         _______ _______ _______ _____ _____    ______ ____
ROOT
ATOM      1  O   UNL     1       8.430   7.176  18.864  0.00  0.00    +0.000 OA
ATOM      2  C   UNL     1       7.966   7.960  18.045  0.00  0.00    +0.000 C 
ATOM      3  N   UNL     1       7.107   7.661  17.001  0.00  0.00    +0.000 N 
ATOM      4  H   UNL     1       6.971   8.365  16.286  0.00  0.00    +0.000 HD
ENDROOT
BRANCH   3   5
ATOM      5  C   UNL     1       6.534   6.394  16.748  0.00  0.00    +0.000 A 
ATOM      6  C   UNL     1       6.556   5.792  15.488  0.00  0.00    +0.000 A 
ATOM      7  C   UNL     1       5.921   4.573  15.271  0.00  0.00    +0.000 A 
ATOM      8  C   UNL     1       5.285   3.929  16.326  0.00  0.00    +0.000 A 
ATOM      9  C   UNL     1       5.344   4.454  17.624  0.00  0.00    +0.000 A 
ATOM     10  C   UNL     1       5.944   5.708  17.820  0.00  0.00    +0.000 A 
BRANCH   9  11
ATOM     11  C   UNL     1       4.827   3.700  18.768  0.00  0.00    +0.000 A 
ATOM     12  N   UNL     1       5.535   2.948  19.588  0.00  0.00    +0.000 NA
ATOM     13  N   UNL     1       4.691   2.408  20.525  0.00  0.00    +0.000 NA
ATOM     14  C   UNL     1       3.465   2.809  20.262  0.00  0.00    +0.000 A 
ATOM     15  N   UNL     1       3.497   3.591  19.132  0.00  0.00    +0.000 N 
ATOM     16  C   UNL     1       2.365   4.160  18.429  0.00  0.00    +0.000 C 
ATOM     17  C   UNL     1       1.122   3.285  18.399  0.00  0.00    +0.000 C 
ATOM     18  C   UNL     1       0.300   3.350  19.682  0.00  0.00    +0.000 C 
ATOM     19  C   UNL     1       1.109   3.436  20.976  0.00  0.00    +0.000 C 
ATOM     20  C   UNL     1       2.253   2.430  21.047  0.00  0.00    +0.000 C 
ENDBRANCH   9  11
ENDBRANCH   3   5
BRANCH   2  21
ATOM     21  C   UNL     1       8.394   9.377  18.144  0.00  0.00    +0.000 A 
ATOM     22  C   UNL     1       9.340   9.710  19.120  0.00  0.00    +0.000 A 
ATOM     23  C   UNL     1       9.720  11.040  19.308  0.00  0.00    +0.000 A 
ATOM     24  C   UNL     1       9.148  12.056  18.531  0.00  0.00    +0.000 A 
ATOM     25  C   UNL     1       8.210  11.710  17.544  0.00  0.00    +0.000 A 
ATOM     26  C   UNL     1       7.824  10.379  17.354  0.00  0.00    +0.000 A 
BRANCH  24  27
ATOM     27  C   UNL     1       9.492  13.457  18.732  0.00  0.00    +0.000 A 
ATOM     28  N   UNL     1       9.941  14.028  19.834  0.00  0.00    +0.000 NA
ATOM     29  N   UNL     1      10.147  15.352  19.530  0.00  0.00    +0.000 NA
ATOM     30  N   UNL     1       9.851  15.601  18.265  0.00  0.00    +0.000 NA
ATOM     31  N   UNL     1       9.454  14.425  17.765  0.00  0.00    +0.000 N 
ATOM     32  H   UNL     1       9.208  14.354  16.787  0.00  0.00    +0.000 HD
ENDBRANCH  24  27
ENDBRANCH   2  21
TORSDOF 4
ENDMDL
MODEL 3
REMARK VINA RESULT:      -9.1      5.292      8.241
REMARK  Name = 
REMARK  4 active torsions:
REMARK  status: ('A' for Active; 'I' for Inactive)
REMARK    1  A    between atoms: C_2  and  C_20
REMARK    2  A    between atoms: N_3  and  C_4
REMARK    3  A    between atoms: C_8  and  C_9
REMARK    4  A    between atoms: C_23  and  C_24
REMARK                            x       y       z     vdW  Elec       q    Type
REMARK                         _______ _______ _______ _____ _____    ______ ____
ROOT
ATOM      1  O   UNL     1       8.184   6.783  18.767  0.00  0.00    +0.000 OA
ATOM      2  C   UNL     1       7.835   7.621  17.944  0.00  0.00    +0.000 C 
ATOM      3  N   UNL     1       7.121   7.397  16.779  0.00  0.00    +0.000 N 
ATOM      4  H   UNL     1       7.083   8.145  16.098  0.00  0.00    +0.000 HD
ENDROOT
BRANCH   3   5
ATOM      5  C   UNL     1       6.583   6.154  16.374  0.00  0.00    +0.000 A 
ATOM      6  C   UNL     1       7.226   5.312  15.463  0.00  0.00    +0.000 A 
ATOM      7  C   UNL     1       6.627   4.129  15.044  0.00  0.00    +0.000 A 
ATOM      8  C   UNL     1       5.389   3.762  15.558  0.00  0.00    +0.000 A 
ATOM      9  C   UNL     1       4.774   4.530  16.556  0.00  0.00    +0.000 A 
ATOM     10  C   UNL     1       5.364   5.746  16.935  0.00  0.00    +0.000 A 
BRANCH   9  11
ATOM     11  C   UNL     1       3.557   4.064  17.225  0.00  0.00    +0.000 A 
ATOM     12  N   UNL     1       2.762   3.097  16.808  0.00  0.00    +0.000 NA
ATOM     13  N   UNL     1       1.731   2.962  17.704  0.00  0.00    +0.000 NA
ATOM     14  C   UNL     1       1.883   3.863  18.652  0.00  0.00    +0.000 A 
ATOM     15  N   UNL     1       2.999   4.612  18.366  0.00  0.00    +0.000 N 
ATOM     16  C   UNL     1       3.483   5.773  19.085  0.00  0.00    +0.000 C 
ATOM     17  C   UNL     1       2.398   6.681  19.641  0.00  0.00    +0.000 C 
ATOM     18  C   UNL     1       1.793   6.180  20.948  0.00  0.00    +0.000 C 
ATOM     19  C   UNL     1       1.608   4.666  21.047  0.00  0.00    +0.000 C 
ATOM     20  C   UNL     1       0.960   4.050  19.811  0.00  0.00    +0.000 C 
ENDBRANCH   9  11
ENDBRANCH   3   5
BRANCH   2  21
ATOM     21  C   UNL     1       8.250   9.025  18.188  0.00  0.00    +0.000 A 
ATOM     22  C   UNL     1       7.748  10.014  17.335  0.00  0.00    +0.000 A 
ATOM     23  C   UNL     1       8.166  11.339  17.470  0.00  0.00    +0.000 A 
ATOM     24  C   UNL     1       9.101  11.689  18.453  0.00  0.00    +0.000 A 
ATOM     25  C   UNL     1       9.587  10.692  19.314  0.00  0.00    +0.000 A 
ATOM     26  C   UNL     1       9.173   9.362  19.179  0.00  0.00    +0.000 A 
BRANCH  24  27
ATOM     27  C   UNL     1       9.588  13.055  18.592  0.00  0.00    +0.000 A 
ATOM     28  N   UNL     1      10.299  13.562  19.582  0.00  0.00    +0.000 NA
ATOM     29  N   UNL     1      10.541  14.875  19.256  0.00  0.00    +0.000 NA
ATOM     30  N   UNL     1      10.009  15.178  18.082  0.00  0.00    +0.000 NA
ATOM     31  N   UNL     1       9.426  14.048  17.664  0.00  0.00    +0.000 N 
ATOM     32  H   UNL     1       8.979  14.021  16.758  0.00  0.00    +0.000 HD
ENDBRANCH  24  27
ENDBRANCH   2  21
TORSDOF 4
ENDMDL
MODEL 4
REMARK VINA RESULT:      -8.8      4.058     10.651
REMARK  Name = 
REMARK  4 active torsions:
REMARK  status: ('A' for Active; 'I' for Inactive)
REMARK    1  A    between atoms: C_2  and  C_20
REMARK    2  A    between atoms: N_3  and  C_4
REMARK    3  A    between atoms: C_8  and  C_9
REMARK    4  A    between atoms: C_23  and  C_24
REMARK                            x       y       z     vdW  Elec       q    Type
REMARK                         _______ _______ _______ _____ _____    ______ ____
ROOT
ATOM      1  O   UNL     1       2.387   9.004  17.269  0.00  0.00    +0.000 OA
ATOM      2  C   UNL     1       1.912   8.541  18.299  0.00  0.00    +0.000 C 
ATOM      3  N   UNL     1       0.998   9.151  19.141  0.00  0.00    +0.000 N 
ATOM      4  H   UNL     1       0.852   8.740  20.055  0.00  0.00    +0.000 HD
ENDROOT
BRANCH   3   5
ATOM      5  C   UNL     1       0.375  10.398  18.910  0.00  0.00    +0.000 A 
ATOM      6  C   UNL     1       1.048  11.616  19.041  0.00  0.00    +0.000 A 
ATOM      7  C   UNL     1       0.376  12.822  18.867  0.00  0.00    +0.000 A 
ATOM      8  C   UNL     1      -0.972  12.818  18.529  0.00  0.00    +0.000 A 
ATOM      9  C   UNL     1      -1.643  11.613  18.281  0.00  0.00    +0.000 A 
ATOM     10  C   UNL     1      -0.969  10.403  18.508  0.00  0.00    +0.000 A 
BRANCH   9  11
ATOM     11  C   UNL     1      -3.012  11.604  17.758  0.00  0.00    +0.000 A 
ATOM     12  N   UNL     1      -3.365  11.375  16.508  0.00  0.00    +0.000 NA
ATOM     13  N   UNL     1      -4.732  11.458  16.418  0.00  0.00    +0.000 NA
ATOM     14  C   UNL     1      -5.209  11.764  17.606  0.00  0.00    +0.000 A 
ATOM     15  N   UNL     1      -4.154  11.911  18.475  0.00  0.00    +0.000 N 
ATOM     16  C   UNL     1      -4.211  12.342  19.857  0.00  0.00    +0.000 C 
ATOM     17  C   UNL     1      -5.259  13.402  20.156  0.00  0.00    +0.000 C 
ATOM     18  C   UNL     1      -6.667  12.839  20.321  0.00  0.00    +0.000 C 
ATOM     19  C   UNL     1      -7.029  11.691  19.379  0.00  0.00    +0.000 C 
ATOM     20  C   UNL     1      -6.655  11.957  17.924  0.00  0.00    +0.000 C 
ENDBRANCH   9  11
ENDBRANCH   3   5
BRANCH   2  21
ATOM     21  C   UNL     1       2.387   7.201  18.722  0.00  0.00    +0.000 A 
ATOM     22  C   UNL     1       1.921   6.695  19.941  0.00  0.00    +0.000 A 
ATOM     23  C   UNL     1       2.395   5.475  20.424  0.00  0.00    +0.000 A 
ATOM     24  C   UNL     1       3.353   4.751  19.701  0.00  0.00    +0.000 A 
ATOM     25  C   UNL     1       3.804   5.260  18.473  0.00  0.00    +0.000 A 
ATOM     26  C   UNL     1       3.333   6.485  17.986  0.00  0.00    +0.000 A 
BRANCH  24  27
ATOM     27  C   UNL     1       3.898   3.496  20.200  0.00  0.00    +0.000 A 
ATOM     28  N   UNL     1       3.453   2.764  21.204  0.00  0.00    +0.000 NA
ATOM     29  N   UNL     1       4.272   1.663  21.277  0.00  0.00    +0.000 NA
ATOM     30  N   UNL     1       5.197   1.695  20.331  0.00  0.00    +0.000 NA
ATOM     31  N   UNL     1       4.961   2.826  19.655  0.00  0.00    +0.000 N 
ATOM     32  H   UNL     1       5.524   3.054  18.847  0.00  0.00    +0.000 HD
ENDBRANCH  24  27
ENDBRANCH   2  21
TORSDOF 4
ENDMDL
MODEL 5
REMARK VINA RESULT:      -8.8      4.021     10.863
REMARK  Name = 
REMARK  4 active torsions:
REMARK  status: ('A' for Active; 'I' for Inactive)
REMARK    1  A    between atoms: C_2  and  C_20
REMARK    2  A    between atoms: N_3  and  C_4
REMARK    3  A    between atoms: C_8  and  C_9
REMARK    4  A    between atoms: C_23  and  C_24
REMARK                            x       y       z     vdW  Elec       q    Type
REMARK                         _______ _______ _______ _____ _____    ______ ____
ROOT
ATOM      1  O   UNL     1       2.253   9.433  17.474  0.00  0.00    +0.000 OA
ATOM      2  C   UNL     1       1.821   8.811  18.437  0.00  0.00    +0.000 C 
ATOM      3  N   UNL     1       0.883   9.248  19.357  0.00  0.00    +0.000 N 
ATOM      4  H   UNL     1       0.775   8.713  20.211  0.00  0.00    +0.000 HD
ENDROOT
BRANCH   3   5
ATOM      5  C   UNL     1       0.181  10.473  19.294  0.00  0.00    +0.000 A 
ATOM      6  C   UNL     1       0.745  11.689  19.687  0.00  0.00    +0.000 A 
ATOM      7  C   UNL     1      -0.006  12.860  19.669  0.00  0.00    +0.000 A 
ATOM      8  C   UNL     1      -1.322  12.828  19.226  0.00  0.00    +0.000 A 
ATOM      9  C   UNL     1      -1.878  11.646  18.720  0.00  0.00    +0.000 A 
ATOM     10  C   UNL     1      -1.128  10.461  18.790  0.00  0.00    +0.000 A 
BRANCH   9  11
ATOM     11  C   UNL     1      -3.202  11.641  18.093  0.00  0.00    +0.000 A 
ATOM     12  N   UNL     1      -3.460  11.395  16.823  0.00  0.00    +0.000 NA
ATOM     13  N   UNL     1      -4.815  11.488  16.626  0.00  0.00    +0.000 NA
ATOM     14  C   UNL     1      -5.380  11.818  17.769  0.00  0.00    +0.000 A 
ATOM     15  N   UNL     1      -4.393  11.969  18.714  0.00  0.00    +0.000 N 
ATOM     16  C   UNL     1      -4.553  12.423  20.081  0.00  0.00    +0.000 C 
ATOM     17  C   UNL     1      -5.610  13.497  20.282  0.00  0.00    +0.000 C 
ATOM     18  C   UNL     1      -7.031  12.949  20.346  0.00  0.00    +0.000 C 
ATOM     19  C   UNL     1      -7.331  11.789  19.396  0.00  0.00    +0.000 C 
ATOM     20  C   UNL     1      -6.844  12.028  17.971  0.00  0.00    +0.000 C 
ENDBRANCH   9  11
ENDBRANCH   3   5
BRANCH   2  21
ATOM     21  C   UNL     1       2.383   7.460  18.680  0.00  0.00    +0.000 A 
ATOM     22  C   UNL     1       3.063   6.833  17.629  0.00  0.00    +0.000 A 
ATOM     23  C   UNL     1       3.545   5.532  17.778  0.00  0.00    +0.000 A 
ATOM     24  C   UNL     1       3.342   4.835  18.976  0.00  0.00    +0.000 A 
ATOM     25  C   UNL     1       2.671   5.477  20.030  0.00  0.00    +0.000 A 
ATOM     26  C   UNL     1       2.184   6.780  19.884  0.00  0.00    +0.000 A 
BRANCH  24  27
ATOM     27  C   UNL     1       3.795   3.462  19.147  0.00  0.00    +0.000 A 
ATOM     28  N   UNL     1       3.444   2.401  18.443  0.00  0.00    +0.000 NA
ATOM     29  N   UNL     1       4.152   1.341  18.956  0.00  0.00    +0.000 NA
ATOM     30  N   UNL     1       4.940   1.730  19.946  0.00  0.00    +0.000 NA
ATOM     31  N   UNL     1       4.728   3.047  20.060  0.00  0.00    +0.000 N 
ATOM     32  H   UNL     1       5.255   3.582  20.735  0.00  0.00    +0.000 HD
ENDBRANCH  24  27
ENDBRANCH   2  21
TORSDOF 4
ENDMDL
MODEL 6
REMARK VINA RESULT:      -8.8      5.180      8.037
REMARK  Name = 
REMARK  4 active torsions:
REMARK  status: ('A' for Active; 'I' for Inactive)
REMARK    1  A    between atoms: C_2  and  C_20
REMARK    2  A    between atoms: N_3  and  C_4
REMARK    3  A    between atoms: C_8  and  C_9
REMARK    4  A    between atoms: C_23  and  C_24
REMARK                            x       y       z     vdW  Elec       q    Type
REMARK                         _______ _______ _______ _____ _____    ______ ____
ROOT
ATOM      1  O   UNL     1       8.143   6.728  18.755  0.00  0.00    +0.000 OA
ATOM      2  C   UNL     1       7.826   7.564  17.917  0.00  0.00    +0.000 C 
ATOM      3  N   UNL     1       7.121   7.343  16.747  0.00  0.00    +0.000 N 
ATOM      4  H   UNL     1       7.110   8.083  16.056  0.00  0.00    +0.000 HD
ENDROOT
BRANCH   3   5
ATOM      5  C   UNL     1       6.557   6.109  16.350  0.00  0.00    +0.000 A 
ATOM      6  C   UNL     1       7.170   5.260  15.425  0.00  0.00    +0.000 A 
ATOM      7  C   UNL     1       6.546   4.086  15.015  0.00  0.00    +0.000 A 
ATOM      8  C   UNL     1       5.313   3.736  15.553  0.00  0.00    +0.000 A 
ATOM      9  C   UNL     1       4.728   4.510  16.564  0.00  0.00    +0.000 A 
ATOM     10  C   UNL     1       5.343   5.718  16.933  0.00  0.00    +0.000 A 
BRANCH   9  11
ATOM     11  C   UNL     1       3.519   4.060  17.256  0.00  0.00    +0.000 A 
ATOM     12  N   UNL     1       2.725   3.078  16.875  0.00  0.00    +0.000 NA
ATOM     13  N   UNL     1       1.701   2.967  17.782  0.00  0.00    +0.000 NA
ATOM     14  C   UNL     1       1.855   3.898  18.700  0.00  0.00    +0.000 A 
ATOM     15  N   UNL     1       2.967   4.642  18.383  0.00  0.00    +0.000 N 
ATOM     16  C   UNL     1       3.450   5.827  19.062  0.00  0.00    +0.000 C 
ATOM     17  C   UNL     1       2.365   6.748  19.596  0.00  0.00    +0.000 C 
ATOM     18  C   UNL     1       1.771   6.286  20.923  0.00  0.00    +0.000 C 
ATOM     19  C   UNL     1       1.593   4.775  21.071  0.00  0.00    +0.000 C 
ATOM     20  C   UNL     1       0.940   4.117  19.859  0.00  0.00    +0.000 C 
ENDBRANCH   9  11
ENDBRANCH   3   5
BRANCH   2  21
ATOM     21  C   UNL     1       8.272   8.960  18.149  0.00  0.00    +0.000 A 
ATOM     22  C   UNL     1       9.088   9.212  19.258  0.00  0.00    +0.000 A 
ATOM     23  C   UNL     1       9.474  10.517  19.566  0.00  0.00    +0.000 A 
ATOM     24  C   UNL     1       9.036  11.590  18.778  0.00  0.00    +0.000 A 
ATOM     25  C   UNL     1       8.229  11.325  17.659  0.00  0.00    +0.000 A 
ATOM     26  C   UNL     1       7.839  10.018  17.348  0.00  0.00    +0.000 A 
BRANCH  24  27
ATOM     27  C   UNL     1       9.386  12.966  19.098  0.00  0.00    +0.000 A 
ATOM     28  N   UNL     1       9.988  13.849  18.322  0.00  0.00    +0.000 NA
ATOM     29  N   UNL     1      10.076  15.011  19.049  0.00  0.00    +0.000 NA
ATOM     30  N   UNL     1       9.527  14.867  20.245  0.00  0.00    +0.000 NA
ATOM     31  N   UNL     1       9.090  13.602  20.274  0.00  0.00    +0.000 N 
ATOM     32  H   UNL     1       8.592  13.263  21.085  0.00  0.00    +0.000 HD
ENDBRANCH  24  27
ENDBRANCH   2  21
TORSDOF 4
ENDMDL
MODEL 7
REMARK VINA RESULT:      -8.7      1.094      2.030
REMARK  Name = 
REMARK  4 active torsions:
REMARK  status: ('A' for Active; 'I' for Inactive)
REMARK    1  A    between atoms: C_2  and  C_20
REMARK    2  A    between atoms: N_3  and  C_4
REMARK    3  A    between atoms: C_8  and  C_9
REMARK    4  A    between atoms: C_23  and  C_24
REMARK                            x       y       z     vdW  Elec       q    Type
REMARK                         _______ _______ _______ _____ _____    ______ ____
ROOT
ATOM      1  O   UNL     1       2.297   7.822  19.804  0.00  0.00    +0.000 OA
ATOM      2  C   UNL     1       1.385   7.544  20.574  0.00  0.00    +0.000 C 
ATOM      3  N   UNL     1       0.938   6.277  20.911  0.00  0.00    +0.000 N 
ATOM      4  H   UNL     1       0.051   6.204  21.394  0.00  0.00    +0.000 HD
ENDROOT
BRANCH   3   5
ATOM      5  C   UNL     1       1.524   5.062  20.490  0.00  0.00    +0.000 A 
ATOM      6  C   UNL     1       1.085   3.815  20.942  0.00  0.00    +0.000 A 
ATOM      7  C   UNL     1       1.735   2.648  20.551  0.00  0.00    +0.000 A 
ATOM      8  C   UNL     1       2.812   2.719  19.676  0.00  0.00    +0.000 A 
ATOM      9  C   UNL     1       3.202   3.944  19.120  0.00  0.00    +0.000 A 
ATOM     10  C   UNL     1       2.572   5.119  19.560  0.00  0.00    +0.000 A 
BRANCH   9  11
ATOM     11  C   UNL     1       4.221   4.007  18.070  0.00  0.00    +0.000 A 
ATOM     12  N   UNL     1       4.255   3.273  16.974  0.00  0.00    +0.000 NA
ATOM     13  N   UNL     1       5.364   3.624  16.246  0.00  0.00    +0.000 NA
ATOM     14  C   UNL     1       6.021   4.552  16.910  0.00  0.00    +0.000 A 
ATOM     15  N   UNL     1       5.359   4.793  18.091  0.00  0.00    +0.000 N 
ATOM     16  C   UNL     1       5.781   5.664  19.170  0.00  0.00    +0.000 C 
ATOM     17  C   UNL     1       7.280   5.697  19.419  0.00  0.00    +0.000 C 
ATOM     18  C   UNL     1       8.039   6.601  18.453  0.00  0.00    +0.000 C 
ATOM     19  C   UNL     1       7.532   6.592  17.010  0.00  0.00    +0.000 C 
ATOM     20  C   UNL     1       7.292   5.191  16.458  0.00  0.00    +0.000 C 
ENDBRANCH   9  11
ENDBRANCH   3   5
BRANCH   2  21
ATOM     21  C   UNL     1       0.645   8.675  21.185  0.00  0.00    +0.000 A 
ATOM     22  C   UNL     1       0.525   9.857  20.445  0.00  0.00    +0.000 A 
ATOM     23  C   UNL     1      -0.094  10.976  21.002  0.00  0.00    +0.000 A 
ATOM     24  C   UNL     1      -0.589  10.934  22.312  0.00  0.00    +0.000 A 
ATOM     25  C   UNL     1      -0.476   9.739  23.042  0.00  0.00    +0.000 A 
ATOM     26  C   UNL     1       0.146   8.614  22.488  0.00  0.00    +0.000 A 
BRANCH  24  27
ATOM     27  C   UNL     1      -1.201  12.098  22.936  0.00  0.00    +0.000 A 
ATOM     28  N   UNL     1      -0.617  13.231  23.281  0.00  0.00    +0.000 NA
ATOM     29  N   UNL     1      -1.602  14.034  23.804  0.00  0.00    +0.000 NA
ATOM     30  N   UNL     1      -2.777  13.426  23.771  0.00  0.00    +0.000 NA
ATOM     31  N   UNL     1      -2.533  12.229  23.224  0.00  0.00    +0.000 N 
ATOM     32  H   UNL     1      -3.297  11.590  23.058  0.00  0.00    +0.000 HD
ENDBRANCH  24  27
ENDBRANCH   2  21
TORSDOF 4
ENDMDL
MODEL 8
REMARK VINA RESULT:      -8.5      3.200     11.320
REMARK  Name = 
REMARK  4 active torsions:
REMARK  status: ('A' for Active; 'I' for Inactive)
REMARK    1  A    between atoms: C_2  and  C_20
REMARK    2  A    between atoms: N_3  and  C_4
REMARK    3  A    between atoms: C_8  and  C_9
REMARK    4  A    between atoms: C_23  and  C_24
REMARK                            x       y       z     vdW  Elec       q    Type
REMARK                         _______ _______ _______ _____ _____    ______ ____
ROOT
ATOM      1  O   UNL     1       0.005  11.220  19.151  0.00  0.00    +0.000 OA
ATOM      2  C   UNL     1       0.375  10.573  20.123  0.00  0.00    +0.000 C 
ATOM      3  N   UNL     1       0.203  10.904  21.457  0.00  0.00    +0.000 N 
ATOM      4  H   UNL     1       0.736  10.385  22.144  0.00  0.00    +0.000 HD
ENDROOT
BRANCH   3   5
ATOM      5  C   UNL     1      -0.521  12.018  21.938  0.00  0.00    +0.000 A 
ATOM      6  C   UNL     1      -0.013  13.319  21.909  0.00  0.00    +0.000 A 
ATOM      7  C   UNL     1      -0.735  14.376  22.455  0.00  0.00    +0.000 A 
ATOM      8  C   UNL     1      -1.989  14.143  23.008  0.00  0.00    +0.000 A 
ATOM      9  C   UNL     1      -2.570  12.869  22.950  0.00  0.00    +0.000 A 
ATOM     10  C   UNL     1      -1.812  11.802  22.442  0.00  0.00    +0.000 A 
BRANCH   9  11
ATOM     11  C   UNL     1      -3.955  12.651  23.373  0.00  0.00    +0.000 A 
ATOM     12  N   UNL     1      -4.349  12.254  24.567  0.00  0.00    +0.000 NA
ATOM     13  N   UNL     1      -5.718  12.164  24.568  0.00  0.00    +0.000 NA
ATOM     14  C   UNL     1      -6.157  12.479  23.368  0.00  0.00    +0.000 A 
ATOM     15  N   UNL     1      -5.074  12.751  22.566  0.00  0.00    +0.000 N 
ATOM     16  C   UNL     1      -5.086  13.043  21.147  0.00  0.00    +0.000 C 
ATOM     17  C   UNL     1      -6.127  12.280  20.343  0.00  0.00    +0.000 C 
ATOM     18  C   UNL     1      -7.526  12.880  20.432  0.00  0.00    +0.000 C 
ATOM     19  C   UNL     1      -7.915  13.436  21.803  0.00  0.00    +0.000 C 
ATOM     20  C   UNL     1      -7.592  12.492  22.956  0.00  0.00    +0.000 C 
ENDBRANCH   9  11
ENDBRANCH   3   5
BRANCH   2  21
ATOM     21  C   UNL     1       1.125   9.320  19.860  0.00  0.00    +0.000 A 
ATOM     22  C   UNL     1       1.652   9.128  18.577  0.00  0.00    +0.000 A 
ATOM     23  C   UNL     1       2.298   7.935  18.253  0.00  0.00    +0.000 A 
ATOM     24  C   UNL     1       2.415   6.912  19.203  0.00  0.00    +0.000 A 
ATOM     25  C   UNL     1       1.896   7.120  20.491  0.00  0.00    +0.000 A 
ATOM     26  C   UNL     1       1.244   8.313  20.820  0.00  0.00    +0.000 A 
BRANCH  24  27
ATOM     27  C   UNL     1       3.047   5.640  18.882  0.00  0.00    +0.000 A 
ATOM     28  N   UNL     1       2.633   4.726  18.024  0.00  0.00    +0.000 NA
ATOM     29  N   UNL     1       3.567   3.719  18.045  0.00  0.00    +0.000 NA
ATOM     30  N   UNL     1       4.552   4.003  18.882  0.00  0.00    +0.000 NA
ATOM     31  N   UNL     1       4.236   5.198  19.395  0.00  0.00    +0.000 N 
ATOM     32  H   UNL     1       4.869   5.648  20.043  0.00  0.00    +0.000 HD
ENDBRANCH  24  27
ENDBRANCH   2  21
TORSDOF 4
ENDMDL
MODEL 9
REMARK VINA RESULT:      -8.5      3.132     10.323
REMARK  Name = 
REMARK  4 active torsions:
REMARK  status: ('A' for Active; 'I' for Inactive)
REMARK    1  A    between atoms: C_2  and  C_20
REMARK    2  A    between atoms: N_3  and  C_4
REMARK    3  A    between atoms: C_8  and  C_9
REMARK    4  A    between atoms: C_23  and  C_24
REMARK                            x       y       z     vdW  Elec       q    Type
REMARK                         _______ _______ _______ _____ _____    ______ ____
ROOT
ATOM      1  O   UNL     1       3.316   5.679  19.758  0.00  0.00    +0.000 OA
ATOM      2  C   UNL     1       3.298   6.361  18.740  0.00  0.00    +0.000 C 
ATOM      3  N   UNL     1       2.579   7.526  18.532  0.00  0.00    +0.000 N 
ATOM      4  H   UNL     1       2.499   7.866  17.581  0.00  0.00    +0.000 HD
ENDROOT
BRANCH   3   5
ATOM      5  C   UNL     1       1.799   8.192  19.503  0.00  0.00    +0.000 A 
ATOM      6  C   UNL     1       1.662   7.727  20.813  0.00  0.00    +0.000 A 
ATOM      7  C   UNL     1       0.829   8.381  21.716  0.00  0.00    +0.000 A 
ATOM      8  C   UNL     1       0.150   9.528  21.323  0.00  0.00    +0.000 A 
ATOM      9  C   UNL     1       0.356  10.080  20.052  0.00  0.00    +0.000 A 
ATOM     10  C   UNL     1       1.158   9.384  19.133  0.00  0.00    +0.000 A 
BRANCH   9  11
ATOM     11  C   UNL     1      -0.220  11.377  19.689  0.00  0.00    +0.000 A 
ATOM     12  N   UNL     1      -1.503  11.641  19.531  0.00  0.00    +0.000 NA
ATOM     13  N   UNL     1      -1.638  12.963  19.190  0.00  0.00    +0.000 NA
ATOM     14  C   UNL     1      -0.438  13.498  19.114  0.00  0.00    +0.000 A 
ATOM     15  N   UNL     1       0.492  12.521  19.378  0.00  0.00    +0.000 N 
ATOM     16  C   UNL     1       1.934  12.641  19.306  0.00  0.00    +0.000 C 
ATOM     17  C   UNL     1       2.449  13.536  18.190  0.00  0.00    +0.000 C 
ATOM     18  C   UNL     1       2.386  15.023  18.521  0.00  0.00    +0.000 C 
ATOM     19  C   UNL     1       1.156  15.467  19.313  0.00  0.00    +0.000 C 
ATOM     20  C   UNL     1      -0.155  14.920  18.758  0.00  0.00    +0.000 C 
ENDBRANCH   9  11
ENDBRANCH   3   5
BRANCH   2  21
ATOM     21  C   UNL     1       4.094   5.877  17.586  0.00  0.00    +0.000 A 
ATOM     22  C   UNL     1       4.644   6.831  16.722  0.00  0.00    +0.000 A 
ATOM     23  C   UNL     1       5.336   6.430  15.579  0.00  0.00    +0.000 A 
ATOM     24  C   UNL     1       5.475   5.069  15.276  0.00  0.00    +0.000 A 
ATOM     25  C   UNL     1       4.932   4.119  16.156  0.00  0.00    +0.000 A 
ATOM     26  C   UNL     1       4.235   4.517  17.302  0.00  0.00    +0.000 A 
BRANCH  24  27
ATOM     27  C   UNL     1       6.155   4.620  14.069  0.00  0.00    +0.000 A 
ATOM     28  N   UNL     1       5.790   3.652  13.248  0.00  0.00    +0.000 NA
ATOM     29  N   UNL     1       6.726   3.620  12.243  0.00  0.00    +0.000 NA
ATOM     30  N   UNL     1       7.645   4.556  12.419  0.00  0.00    +0.000 NA
ATOM     31  N   UNL     1       7.287   5.184  13.545  0.00  0.00    +0.000 N 
ATOM     32  H   UNL     1       7.825   5.976  13.869  0.00  0.00    +0.000 HD
ENDBRANCH  24  27
ENDBRANCH   2  21
TORSDOF 4
ENDMDL
