MODEL 1
REMARK VINA RESULT:      -8.8      0.000      0.000
REMARK  Name = 
REMARK  5 active torsions:
REMARK  status: ('A' for Active; 'I' for Inactive)
REMARK    1  A    between atoms: C_1  and  C_2
REMARK    2  A    between atoms: C_5  and  C_6
REMARK    3  A    between atoms: C_8  and  C_9
REMARK    4  A    between atoms: C_9  and  N_10
REMARK    5  A    between atoms: C_11  and  C_12
REMARK                            x       y       z     vdW  Elec       q    Type
REMARK                         _______ _______ _______ _____ _____    ______ ____
ROOT
ATOM      1  C   UNL     1       7.064   5.367  18.236  0.00  0.00    +0.000 C 
ENDROOT
BRANCH   1   2
ATOM      2  N   UNL     1       5.779   5.035  17.642  0.00  0.00    +0.000 N 
ATOM      3  C   UNL     1       5.516   4.602  16.352  0.00  0.00    +0.000 A 
ATOM      4  N   UNL     1       4.217   4.364  16.213  0.00  0.00    +0.000 NA
ATOM      5  C   UNL     1       3.638   4.621  17.424  0.00  0.00    +0.000 A 
ATOM      6  C   UNL     1       2.295   4.513  17.810  0.00  0.00    +0.000 A 
ATOM      7  C   UNL     1       1.945   4.819  19.130  0.00  0.00    +0.000 A 
ATOM      8  C   UNL     1       2.915   5.226  20.045  0.00  0.00    +0.000 A 
ATOM      9  C   UNL     1       4.259   5.346  19.673  0.00  0.00    +0.000 A 
ATOM     10  C   UNL     1       4.589   5.033  18.348  0.00  0.00    +0.000 A 
BRANCH   3  11
ATOM     11  C   UNL     1       6.538   4.410  15.268  0.00  0.00    +0.000 C 
ATOM     12  F   UNL     1       7.805   4.248  15.732  0.00  0.00    +0.000 F 
ATOM     13  F   UNL     1       6.274   3.299  14.527  0.00  0.00    +0.000 F 
ATOM     14  F   UNL     1       6.578   5.457  14.406  0.00  0.00    +0.000 F 
ENDBRANCH   3  11
ENDBRANCH   1   2
BRANCH   1  17
ATOM     15  C   UNL     1       8.309   8.665  18.233  0.00  0.00    +0.000 A 
ATOM     16  N   UNL     1       8.407   7.430  18.683  0.00  0.00    +0.000 NA
ATOM     17  C   UNL     1       7.446   6.774  17.958  0.00  0.00    +0.000 A 
ATOM     18  N   UNL     1       6.794   7.538  17.070  0.00  0.00    +0.000 NA
ATOM     19  O   UNL     1       7.375   8.797  17.243  0.00  0.00    +0.000 OA
BRANCH  15  24
ATOM     20  C   UNL     1      11.211  13.356  19.974  0.00  0.00    +0.000 C 
ATOM     21  C   UNL     1      10.413  12.166  19.525  0.00  0.00    +0.000 A 
ATOM     22  C   UNL     1      10.250  11.885  18.166  0.00  0.00    +0.000 A 
ATOM     23  C   UNL     1       9.536  10.752  17.760  0.00  0.00    +0.000 A 
ATOM     24  C   UNL     1       8.973   9.878  18.699  0.00  0.00    +0.000 A 
ATOM     25  C   UNL     1       9.122  10.176  20.062  0.00  0.00    +0.000 A 
ATOM     26  C   UNL     1       9.838  11.308  20.470  0.00  0.00    +0.000 A 
ENDBRANCH  15  24
ENDBRANCH   1  17
TORSDOF 4
ENDMDL
MODEL 2
REMARK VINA RESULT:      -8.8      0.346      1.213
REMARK  Name = 
REMARK  5 active torsions:
REMARK  status: ('A' for Active; 'I' for Inactive)
REMARK    1  A    between atoms: C_1  and  C_2
REMARK    2  A    between atoms: C_5  and  C_6
REMARK    3  A    between atoms: C_8  and  C_9
REMARK    4  A    between atoms: C_9  and  N_10
REMARK    5  A    between atoms: C_11  and  C_12
REMARK                            x       y       z     vdW  Elec       q    Type
REMARK                         _______ _______ _______ _____ _____    ______ ____
ROOT
ATOM      1  C   UNL     1       7.008   5.368  18.211  0.00  0.00    +0.000 C 
ENDROOT
BRANCH   1   2
ATOM      2  N   UNL     1       5.725   4.993  17.638  0.00  0.00    +0.000 N 
ATOM      3  C   UNL     1       5.458   4.527  16.361  0.00  0.00    +0.000 A 
ATOM      4  N   UNL     1       4.164   4.254  16.241  0.00  0.00    +0.000 NA
ATOM      5  C   UNL     1       3.593   4.521  17.453  0.00  0.00    +0.000 A 
ATOM      6  C   UNL     1       2.257   4.388  17.856  0.00  0.00    +0.000 A 
ATOM      7  C   UNL     1       1.913   4.711  19.174  0.00  0.00    +0.000 A 
ATOM      8  C   UNL     1       2.883   5.161  20.070  0.00  0.00    +0.000 A 
ATOM      9  C   UNL     1       4.220   5.307  19.681  0.00  0.00    +0.000 A 
ATOM     10  C   UNL     1       4.543   4.975  18.358  0.00  0.00    +0.000 A 
BRANCH   3  11
ATOM     11  C   UNL     1       6.474   4.338  15.269  0.00  0.00    +0.000 C 
ATOM     12  F   UNL     1       6.244   3.251  14.489  0.00  0.00    +0.000 F 
ATOM     13  F   UNL     1       6.495   5.402  14.420  0.00  0.00    +0.000 F 
ATOM     14  F   UNL     1       7.733   4.199  15.756  0.00  0.00    +0.000 F 
ENDBRANCH   3  11
ENDBRANCH   1   2
BRANCH   1  17
ATOM     15  C   UNL     1       8.171   8.694  18.101  0.00  0.00    +0.000 A 
ATOM     16  N   UNL     1       8.292   7.481  18.600  0.00  0.00    +0.000 NA
ATOM     17  C   UNL     1       7.360   6.772  17.885  0.00  0.00    +0.000 A 
ATOM     18  N   UNL     1       6.706   7.485  16.956  0.00  0.00    +0.000 NA
ATOM     19  O   UNL     1       7.252   8.764  17.090  0.00  0.00    +0.000 OA
BRANCH  15  24
ATOM     20  C   UNL     1      10.419  13.667  20.016  0.00  0.00    +0.000 C 
ATOM     21  C   UNL     1       9.881  12.365  19.497  0.00  0.00    +0.000 A 
ATOM     22  C   UNL     1       9.873  11.223  20.303  0.00  0.00    +0.000 A 
ATOM     23  C   UNL     1       9.336  10.023  19.821  0.00  0.00    +0.000 A 
ATOM     24  C   UNL     1       8.796   9.941  18.531  0.00  0.00    +0.000 A 
ATOM     25  C   UNL     1       8.826  11.085  17.719  0.00  0.00    +0.000 A 
ATOM     26  C   UNL     1       9.361  12.286  18.201  0.00  0.00    +0.000 A 
ENDBRANCH  15  24
ENDBRANCH   1  17
TORSDOF 4
ENDMDL
MODEL 3
REMARK VINA RESULT:      -8.7      4.524      7.057
REMARK  Name = 
REMARK  5 active torsions:
REMARK  status: ('A' for Active; 'I' for Inactive)
REMARK    1  A    between atoms: C_1  and  C_2
REMARK    2  A    between atoms: C_5  and  C_6
REMARK    3  A    between atoms: C_8  and  C_9
REMARK    4  A    between atoms: C_9  and  N_10
REMARK    5  A    between atoms: C_11  and  C_12
REMARK                            x       y       z     vdW  Elec       q    Type
REMARK                         _______ _______ _______ _____ _____    ______ ____
ROOT
ATOM      1  C   UNL     1       3.098   5.964  17.715  0.00  0.00    +0.000 C 
ENDROOT
BRANCH   1   2
ATOM      2  N   UNL     1       4.281   5.546  18.451  0.00  0.00    +0.000 N 
ATOM      3  C   UNL     1       4.404   4.509  19.361  0.00  0.00    +0.000 A 
ATOM      4  N   UNL     1       5.662   4.424  19.781  0.00  0.00    +0.000 NA
ATOM      5  C   UNL     1       6.361   5.396  19.123  0.00  0.00    +0.000 A 
ATOM      6  C   UNL     1       7.724   5.718  19.200  0.00  0.00    +0.000 A 
ATOM      7  C   UNL     1       8.217   6.758  18.404  0.00  0.00    +0.000 A 
ATOM      8  C   UNL     1       7.369   7.462  17.551  0.00  0.00    +0.000 A 
ATOM      9  C   UNL     1       6.005   7.157  17.468  0.00  0.00    +0.000 A 
ATOM     10  C   UNL     1       5.531   6.112  18.272  0.00  0.00    +0.000 A 
BRANCH   3  11
ATOM     11  C   UNL     1       3.295   3.596  19.803  0.00  0.00    +0.000 C 
ATOM     12  F   UNL     1       3.682   2.661  20.709  0.00  0.00    +0.000 F 
ATOM     13  F   UNL     1       2.288   4.291  20.399  0.00  0.00    +0.000 F 
ATOM     14  F   UNL     1       2.744   2.917  18.766  0.00  0.00    +0.000 F 
ENDBRANCH   3  11
ENDBRANCH   1   2
BRANCH   1  17
ATOM     15  C   UNL     1       1.550   8.634  19.418  0.00  0.00    +0.000 A 
ATOM     16  N   UNL     1       2.017   7.402  19.454  0.00  0.00    +0.000 NA
ATOM     17  C   UNL     1       2.579   7.262  18.211  0.00  0.00    +0.000 A 
ATOM     18  N   UNL     1       2.508   8.355  17.437  0.00  0.00    +0.000 NA
ATOM     19  O   UNL     1       1.832   9.275  18.243  0.00  0.00    +0.000 OA
BRANCH  15  24
ATOM     20  C   UNL     1      -1.538  11.691  23.235  0.00  0.00    +0.000 C 
ATOM     21  C   UNL     1      -0.776  10.864  22.241  0.00  0.00    +0.000 A 
ATOM     22  C   UNL     1      -0.784  11.193  20.882  0.00  0.00    +0.000 A 
ATOM     23  C   UNL     1      -0.041  10.437  19.968  0.00  0.00    +0.000 A 
ATOM     24  C   UNL     1       0.724   9.342  20.391  0.00  0.00    +0.000 A 
ATOM     25  C   UNL     1       0.713   9.004  21.753  0.00  0.00    +0.000 A 
ATOM     26  C   UNL     1      -0.029   9.761  22.668  0.00  0.00    +0.000 A 
ENDBRANCH  15  24
ENDBRANCH   1  17
TORSDOF 4
ENDMDL
MODEL 4
REMARK VINA RESULT:      -8.4      4.044      6.366
REMARK  Name = 
REMARK  5 active torsions:
REMARK  status: ('A' for Active; 'I' for Inactive)
REMARK    1  A    between atoms: C_1  and  C_2
REMARK    2  A    between atoms: C_5  and  C_6
REMARK    3  A    between atoms: C_8  and  C_9
REMARK    4  A    between atoms: C_9  and  N_10
REMARK    5  A    between atoms: C_11  and  C_12
REMARK                            x       y       z     vdW  Elec       q    Type
REMARK                         _______ _______ _______ _____ _____    ______ ____
ROOT
ATOM      1  C   UNL     1       5.318   3.860  18.217  0.00  0.00    +0.000 C 
ENDROOT
BRANCH   1   2
ATOM      2  N   UNL     1       6.166   4.554  17.261  0.00  0.00    +0.000 N 
ATOM      3  C   UNL     1       7.204   5.436  17.515  0.00  0.00    +0.000 A 
ATOM      4  N   UNL     1       7.760   5.820  16.372  0.00  0.00    +0.000 NA
ATOM      5  C   UNL     1       7.095   5.168  15.373  0.00  0.00    +0.000 A 
ATOM      6  C   UNL     1       7.301   5.216  13.987  0.00  0.00    +0.000 A 
ATOM      7  C   UNL     1       6.492   4.432  13.156  0.00  0.00    +0.000 A 
ATOM      8  C   UNL     1       5.497   3.619  13.698  0.00  0.00    +0.000 A 
ATOM      9  C   UNL     1       5.274   3.565  15.079  0.00  0.00    +0.000 A 
ATOM     10  C   UNL     1       6.097   4.356  15.893  0.00  0.00    +0.000 A 
BRANCH   3  11
ATOM     11  C   UNL     1       7.656   5.885  18.876  0.00  0.00    +0.000 C 
ATOM     12  F   UNL     1       8.633   5.109  19.413  0.00  0.00    +0.000 F 
ATOM     13  F   UNL     1       8.167   7.146  18.839  0.00  0.00    +0.000 F 
ATOM     14  F   UNL     1       6.641   5.898  19.777  0.00  0.00    +0.000 F 
ENDBRANCH   3  11
ENDBRANCH   1   2
BRANCH   1  17
ATOM     15  C   UNL     1       2.831   6.291  18.794  0.00  0.00    +0.000 A 
ATOM     16  N   UNL     1       3.971   5.969  18.216  0.00  0.00    +0.000 NA
ATOM     17  C   UNL     1       4.091   4.637  18.520  0.00  0.00    +0.000 A 
ATOM     18  N   UNL     1       3.068   4.128  19.221  0.00  0.00    +0.000 NA
ATOM     19  O   UNL     1       2.221   5.226  19.396  0.00  0.00    +0.000 OA
BRANCH  15  24
ATOM     20  C   UNL     1       0.085  11.338  19.460  0.00  0.00    +0.000 C 
ATOM     21  C   UNL     1       0.843  10.052  19.294  0.00  0.00    +0.000 A 
ATOM     22  C   UNL     1       1.023   9.184  20.375  0.00  0.00    +0.000 A 
ATOM     23  C   UNL     1       1.700   7.972  20.201  0.00  0.00    +0.000 A 
ATOM     24  C   UNL     1       2.207   7.601  18.948  0.00  0.00    +0.000 A 
ATOM     25  C   UNL     1       2.041   8.485  17.872  0.00  0.00    +0.000 A 
ATOM     26  C   UNL     1       1.363   9.698  18.044  0.00  0.00    +0.000 A 
ENDBRANCH  15  24
ENDBRANCH   1  17
TORSDOF 4
ENDMDL
MODEL 5
REMARK VINA RESULT:      -8.4      4.722      6.493
REMARK  Name = 
REMARK  5 active torsions:
REMARK  status: ('A' for Active; 'I' for Inactive)
REMARK    1  A    between atoms: C_1  and  C_2
REMARK    2  A    between atoms: C_5  and  C_6
REMARK    3  A    between atoms: C_8  and  C_9
REMARK    4  A    between atoms: C_9  and  N_10
REMARK    5  A    between atoms: C_11  and  C_12
REMARK                            x       y       z     vdW  Elec       q    Type
REMARK                         _______ _______ _______ _____ _____    ______ ____
ROOT
ATOM      1  C   UNL     1       4.048   6.362  18.749  0.00  0.00    +0.000 C 
ENDROOT
BRANCH   1   2
ATOM      2  N   UNL     1       3.513   5.117  18.221  0.00  0.00    +0.000 N 
ATOM      3  C   UNL     1       3.936   4.403  17.111  0.00  0.00    +0.000 A 
ATOM      4  N   UNL     1       3.217   3.294  16.987  0.00  0.00    +0.000 NA
ATOM      5  C   UNL     1       2.339   3.276  18.034  0.00  0.00    +0.000 A 
ATOM      6  C   UNL     1       1.371   2.318  18.368  0.00  0.00    +0.000 A 
ATOM      7  C   UNL     1       0.594   2.515  19.515  0.00  0.00    +0.000 A 
ATOM      8  C   UNL     1       0.777   3.646  20.311  0.00  0.00    +0.000 A 
ATOM      9  C   UNL     1       1.734   4.615  19.987  0.00  0.00    +0.000 A 
ATOM     10  C   UNL     1       2.504   4.398  18.836  0.00  0.00    +0.000 A 
BRANCH   3  11
ATOM     11  C   UNL     1       5.052   4.803  16.187  0.00  0.00    +0.000 C 
ATOM     12  F   UNL     1       5.228   3.955  15.141  0.00  0.00    +0.000 F 
ATOM     13  F   UNL     1       4.825   6.026  15.634  0.00  0.00    +0.000 F 
ATOM     14  F   UNL     1       6.247   4.876  16.825  0.00  0.00    +0.000 F 
ENDBRANCH   3  11
ENDBRANCH   1   2
BRANCH   1  17
ATOM     15  C   UNL     1       1.622   8.907  18.496  0.00  0.00    +0.000 A 
ATOM     16  N   UNL     1       2.256   8.034  19.253  0.00  0.00    +0.000 NA
ATOM     17  C   UNL     1       3.190   7.518  18.391  0.00  0.00    +0.000 A 
ATOM     18  N   UNL     1       3.177   8.057  17.163  0.00  0.00    +0.000 NA
ATOM     19  O   UNL     1       2.140   8.991  17.233  0.00  0.00    +0.000 OA
BRANCH  15  24
ATOM     20  C   UNL     1      -3.016  12.234  19.433  0.00  0.00    +0.000 C 
ATOM     21  C   UNL     1      -1.836  11.331  19.214  0.00  0.00    +0.000 A 
ATOM     22  C   UNL     1      -1.691  10.621  18.020  0.00  0.00    +0.000 A 
ATOM     23  C   UNL     1      -0.569   9.811  17.811  0.00  0.00    +0.000 A 
ATOM     24  C   UNL     1       0.429   9.695  18.788  0.00  0.00    +0.000 A 
ATOM     25  C   UNL     1       0.268  10.395  19.994  0.00  0.00    +0.000 A 
ATOM     26  C   UNL     1      -0.853  11.207  20.202  0.00  0.00    +0.000 A 
ENDBRANCH  15  24
ENDBRANCH   1  17
TORSDOF 4
ENDMDL
MODEL 6
REMARK VINA RESULT:      -8.4      4.373      6.225
REMARK  Name = 
REMARK  5 active torsions:
REMARK  status: ('A' for Active; 'I' for Inactive)
REMARK    1  A    between atoms: C_1  and  C_2
REMARK    2  A    between atoms: C_5  and  C_6
REMARK    3  A    between atoms: C_8  and  C_9
REMARK    4  A    between atoms: C_9  and  N_10
REMARK    5  A    between atoms: C_11  and  C_12
REMARK                            x       y       z     vdW  Elec       q    Type
REMARK                         _______ _______ _______ _____ _____    ______ ____
ROOT
ATOM      1  C   UNL     1       4.066   5.998  17.078  0.00  0.00    +0.000 C 
ENDROOT
BRANCH   1   2
ATOM      2  N   UNL     1       4.235   4.944  18.066  0.00  0.00    +0.000 N 
ATOM      3  C   UNL     1       5.358   4.647  18.821  0.00  0.00    +0.000 A 
ATOM      4  N   UNL     1       5.094   3.637  19.643  0.00  0.00    +0.000 NA
ATOM      5  C   UNL     1       3.788   3.294  19.437  0.00  0.00    +0.000 A 
ATOM      6  C   UNL     1       3.020   2.300  20.060  0.00  0.00    +0.000 A 
ATOM      7  C   UNL     1       1.679   2.150  19.686  0.00  0.00    +0.000 A 
ATOM      8  C   UNL     1       1.118   2.972  18.710  0.00  0.00    +0.000 A 
ATOM      9  C   UNL     1       1.874   3.964  18.073  0.00  0.00    +0.000 A 
ATOM     10  C   UNL     1       3.213   4.100  18.464  0.00  0.00    +0.000 A 
BRANCH   3  11
ATOM     11  C   UNL     1       6.678   5.361  18.744  0.00  0.00    +0.000 C 
ATOM     12  F   UNL     1       6.598   6.603  18.201  0.00  0.00    +0.000 F 
ATOM     13  F   UNL     1       7.221   5.535  19.980  0.00  0.00    +0.000 F 
ATOM     14  F   UNL     1       7.590   4.679  18.006  0.00  0.00    +0.000 F 
ENDBRANCH   3  11
ENDBRANCH   1   2
BRANCH   1  17
ATOM     15  C   UNL     1       2.181   8.309  18.958  0.00  0.00    +0.000 A 
ATOM     16  N   UNL     1       2.852   7.175  18.922  0.00  0.00    +0.000 NA
ATOM     17  C   UNL     1       3.362   7.172  17.649  0.00  0.00    +0.000 A 
ATOM     18  N   UNL     1       3.063   8.259  16.923  0.00  0.00    +0.000 NA
ATOM     19  O   UNL     1       2.285   9.024  17.797  0.00  0.00    +0.000 OA
BRANCH  15  24
ATOM     20  C   UNL     1      -1.103  10.627  23.115  0.00  0.00    +0.000 C 
ATOM     21  C   UNL     1      -0.292   9.997  22.021  0.00  0.00    +0.000 A 
ATOM     22  C   UNL     1      -0.139  10.635  20.787  0.00  0.00    +0.000 A 
ATOM     23  C   UNL     1       0.650  10.056  19.786  0.00  0.00    +0.000 A 
ATOM     24  C   UNL     1       1.301   8.834  19.997  0.00  0.00    +0.000 A 
ATOM     25  C   UNL     1       1.128   8.188  21.230  0.00  0.00    +0.000 A 
ATOM     26  C   UNL     1       0.340   8.767  22.233  0.00  0.00    +0.000 A 
ENDBRANCH  15  24
ENDBRANCH   1  17
TORSDOF 4
ENDMDL
MODEL 7
REMARK VINA RESULT:      -8.3      4.068      6.343
REMARK  Name = 
REMARK  5 active torsions:
REMARK  status: ('A' for Active; 'I' for Inactive)
REMARK    1  A    between atoms: C_1  and  C_2
REMARK    2  A    between atoms: C_5  and  C_6
REMARK    3  A    between atoms: C_8  and  C_9
REMARK    4  A    between atoms: C_9  and  N_10
REMARK    5  A    between atoms: C_11  and  C_12
REMARK                            x       y       z     vdW  Elec       q    Type
REMARK                         _______ _______ _______ _____ _____    ______ ____
ROOT
ATOM      1  C   UNL     1       5.160   3.885  17.393  0.00  0.00    +0.000 C 
ENDROOT
BRANCH   1   2
ATOM      2  N   UNL     1       6.087   4.528  16.476  0.00  0.00    +0.000 N 
ATOM      3  C   UNL     1       7.131   5.390  16.774  0.00  0.00    +0.000 A 
ATOM      4  N   UNL     1       7.770   5.726  15.660  0.00  0.00    +0.000 NA
ATOM      5  C   UNL     1       7.154   5.062  14.637  0.00  0.00    +0.000 A 
ATOM      6  C   UNL     1       7.450   5.064  13.267  0.00  0.00    +0.000 A 
ATOM      7  C   UNL     1       6.675   4.277  12.407  0.00  0.00    +0.000 A 
ATOM      8  C   UNL     1       5.625   3.506  12.904  0.00  0.00    +0.000 A 
ATOM      9  C   UNL     1       5.312   3.499  14.269  0.00  0.00    +0.000 A 
ATOM     10  C   UNL     1       6.101   4.291  15.113  0.00  0.00    +0.000 A 
BRANCH   3  11
ATOM     11  C   UNL     1       7.506   5.867  18.149  0.00  0.00    +0.000 C 
ATOM     12  F   UNL     1       8.204   7.032  18.153  0.00  0.00    +0.000 F 
ATOM     13  F   UNL     1       6.403   6.096  18.913  0.00  0.00    +0.000 F 
ATOM     14  F   UNL     1       8.267   4.963  18.817  0.00  0.00    +0.000 F 
ENDBRANCH   3  11
ENDBRANCH   1   2
BRANCH   1  17
ATOM     15  C   UNL     1       2.688   6.288  18.130  0.00  0.00    +0.000 A 
ATOM     16  N   UNL     1       3.959   6.019  17.908  0.00  0.00    +0.000 NA
ATOM     17  C   UNL     1       3.926   4.689  17.573  0.00  0.00    +0.000 A 
ATOM     18  N   UNL     1       2.700   4.148  17.547  0.00  0.00    +0.000 NA
ATOM     19  O   UNL     1       1.871   5.214  17.907  0.00  0.00    +0.000 OA
BRANCH  15  24
ATOM     20  C   UNL     1       0.530  11.262  20.142  0.00  0.00    +0.000 C 
ATOM     21  C   UNL     1       1.041   9.954  19.613  0.00  0.00    +0.000 A 
ATOM     22  C   UNL     1       1.366   9.806  18.262  0.00  0.00    +0.000 A 
ATOM     23  C   UNL     1       1.877   8.592  17.787  0.00  0.00    +0.000 A 
ATOM     24  C   UNL     1       2.075   7.506  18.650  0.00  0.00    +0.000 A 
ATOM     25  C   UNL     1       1.728   7.653  20.001  0.00  0.00    +0.000 A 
ATOM     26  C   UNL     1       1.219   8.867  20.477  0.00  0.00    +0.000 A 
ENDBRANCH  15  24
ENDBRANCH   1  17
TORSDOF 4
ENDMDL
MODEL 8
REMARK VINA RESULT:      -8.3      4.730      6.644
REMARK  Name = 
REMARK  5 active torsions:
REMARK  status: ('A' for Active; 'I' for Inactive)
REMARK    1  A    between atoms: C_1  and  C_2
REMARK    2  A    between atoms: C_5  and  C_6
REMARK    3  A    between atoms: C_8  and  C_9
REMARK    4  A    between atoms: C_9  and  N_10
REMARK    5  A    between atoms: C_11  and  C_12
REMARK                            x       y       z     vdW  Elec       q    Type
REMARK                         _______ _______ _______ _____ _____    ______ ____
ROOT
ATOM      1  C   UNL     1       3.869   6.590  18.926  0.00  0.00    +0.000 C 
ENDROOT
BRANCH   1   2
ATOM      2  N   UNL     1       3.447   5.326  18.345  0.00  0.00    +0.000 N 
ATOM      3  C   UNL     1       3.962   4.677  17.234  0.00  0.00    +0.000 A 
ATOM      4  N   UNL     1       3.332   3.522  17.053  0.00  0.00    +0.000 NA
ATOM      5  C   UNL     1       2.420   3.410  18.064  0.00  0.00    +0.000 A 
ATOM      6  C   UNL     1       1.514   2.375  18.336  0.00  0.00    +0.000 A 
ATOM      7  C   UNL     1       0.682   2.482  19.457  0.00  0.00    +0.000 A 
ATOM      8  C   UNL     1       0.753   3.599  20.288  0.00  0.00    +0.000 A 
ATOM      9  C   UNL     1       1.647   4.644  20.027  0.00  0.00    +0.000 A 
ATOM     10  C   UNL     1       2.472   4.517  18.901  0.00  0.00    +0.000 A 
BRANCH   3  11
ATOM     11  C   UNL     1       5.078   5.184  16.365  0.00  0.00    +0.000 C 
ATOM     12  F   UNL     1       6.233   5.422  17.039  0.00  0.00    +0.000 F 
ATOM     13  F   UNL     1       5.398   4.286  15.393  0.00  0.00    +0.000 F 
ATOM     14  F   UNL     1       4.756   6.344  15.738  0.00  0.00    +0.000 F 
ENDBRANCH   3  11
ENDBRANCH   1   2
BRANCH   1  17
ATOM     15  C   UNL     1       1.463   9.117  18.422  0.00  0.00    +0.000 A 
ATOM     16  N   UNL     1       2.085   8.312  19.261  0.00  0.00    +0.000 NA
ATOM     17  C   UNL     1       3.022   7.714  18.457  0.00  0.00    +0.000 A 
ATOM     18  N   UNL     1       3.023   8.139  17.185  0.00  0.00    +0.000 NA
ATOM     19  O   UNL     1       1.992   9.082  17.161  0.00  0.00    +0.000 OA
BRANCH  15  24
ATOM     20  C   UNL     1      -3.335  12.166  19.484  0.00  0.00    +0.000 C 
ATOM     21  C   UNL     1      -2.070  11.416  19.183  0.00  0.00    +0.000 A 
ATOM     22  C   UNL     1      -1.027  11.372  20.111  0.00  0.00    +0.000 A 
ATOM     23  C   UNL     1       0.133  10.639  19.836  0.00  0.00    +0.000 A 
ATOM     24  C   UNL     1       0.273   9.936  18.632  0.00  0.00    +0.000 A 
ATOM     25  C   UNL     1      -0.769  10.000  17.695  0.00  0.00    +0.000 A 
ATOM     26  C   UNL     1      -1.931  10.731  17.971  0.00  0.00    +0.000 A 
ENDBRANCH  15  24
ENDBRANCH   1  17
TORSDOF 4
ENDMDL
MODEL 9
REMARK VINA RESULT:      -8.3      4.818      6.494
REMARK  Name = 
REMARK  5 active torsions:
REMARK  status: ('A' for Active; 'I' for Inactive)
REMARK    1  A    between atoms: C_1  and  C_2
REMARK    2  A    between atoms: C_5  and  C_6
REMARK    3  A    between atoms: C_8  and  C_9
REMARK    4  A    between atoms: C_9  and  N_10
REMARK    5  A    between atoms: C_11  and  C_12
REMARK                            x       y       z     vdW  Elec       q    Type
REMARK                         _______ _______ _______ _____ _____    ______ ____
ROOT
ATOM      1  C   UNL     1       3.124   5.676  17.695  0.00  0.00    +0.000 C 
ENDROOT
BRANCH   1   2
ATOM      2  N   UNL     1       4.386   5.344  18.338  0.00  0.00    +0.000 N 
ATOM      3  C   UNL     1       4.680   4.254  19.142  0.00  0.00    +0.000 A 
ATOM      4  N   UNL     1       5.958   4.289  19.499  0.00  0.00    +0.000 NA
ATOM      5  C   UNL     1       6.502   5.393  18.905  0.00  0.00    +0.000 A 
ATOM      6  C   UNL     1       7.819   5.872  18.954  0.00  0.00    +0.000 A 
ATOM      7  C   UNL     1       8.143   7.030  18.238  0.00  0.00    +0.000 A 
ATOM      8  C   UNL     1       7.173   7.697  17.491  0.00  0.00    +0.000 A 
ATOM      9  C   UNL     1       5.852   7.235  17.437  0.00  0.00    +0.000 A 
ATOM     10  C   UNL     1       5.549   6.072  18.160  0.00  0.00    +0.000 A 
BRANCH   3  11
ATOM     11  C   UNL     1       3.711   3.178  19.544  0.00  0.00    +0.000 C 
ATOM     12  F   UNL     1       2.611   3.643  20.191  0.00  0.00    +0.000 F 
ATOM     13  F   UNL     1       3.242   2.502  18.460  0.00  0.00    +0.000 F 
ATOM     14  F   UNL     1       4.277   2.258  20.366  0.00  0.00    +0.000 F 
ENDBRANCH   3  11
ENDBRANCH   1   2
BRANCH   1  17
ATOM     15  C   UNL     1       1.674   8.734  18.681  0.00  0.00    +0.000 A 
ATOM     16  N   UNL     1       2.061   7.940  17.701  0.00  0.00    +0.000 NA
ATOM     17  C   UNL     1       2.449   6.809  18.373  0.00  0.00    +0.000 A 
ATOM     18  N   UNL     1       2.286   6.863  19.703  0.00  0.00    +0.000 NA
ATOM     19  O   UNL     1       1.759   8.141  19.910  0.00  0.00    +0.000 OA
BRANCH  15  24
ATOM     20  C   UNL     1       0.272  14.344  18.742  0.00  0.00    +0.000 C 
ATOM     21  C   UNL     1       0.617  12.885  18.677  0.00  0.00    +0.000 A 
ATOM     22  C   UNL     1       1.901  12.469  18.315  0.00  0.00    +0.000 A 
ATOM     23  C   UNL     1       2.223  11.107  18.294  0.00  0.00    +0.000 A 
ATOM     24  C   UNL     1       1.272  10.136  18.634  0.00  0.00    +0.000 A 
ATOM     25  C   UNL     1      -0.021  10.558  18.977  0.00  0.00    +0.000 A 
ATOM     26  C   UNL     1      -0.343  11.920  19.001  0.00  0.00    +0.000 A 
ENDBRANCH  15  24
ENDBRANCH   1  17
TORSDOF 4
ENDMDL
