MODEL 1
REMARK VINA RESULT:      -9.1      0.000      0.000
REMARK  Name = 
REMARK  5 active torsions:
REMARK  status: ('A' for Active; 'I' for Inactive)
REMARK    1  A    between atoms: C_2  and  C_10
REMARK    2  A    between atoms: N_3  and  C_4
REMARK    3  A    between atoms: C_14  and  S_15
REMARK    4  A    between atoms: S_15  and  N_18
REMARK    5  A    between atoms: N_18  and  C_19
REMARK                            x       y       z     vdW  Elec       q    Type
REMARK                         _______ _______ _______ _____ _____    ______ ____
ROOT
ATOM      1  C   UNL     1       7.896   7.632  18.133  0.00  0.00    +0.000 A 
ATOM      2  C   UNL     1       8.316   6.727  19.118  0.00  0.00    +0.000 A 
ATOM      3  C   UNL     1       8.023   5.368  19.004  0.00  0.00    +0.000 A 
ATOM      4  C   UNL     1       7.316   4.902  17.897  0.00  0.00    +0.000 A 
ATOM      5  C   UNL     1       6.921   5.802  16.901  0.00  0.00    +0.000 A 
ATOM      6  C   UNL     1       7.195   7.173  17.016  0.00  0.00    +0.000 A 
ENDROOT
BRANCH   1   8
ATOM      7  O   UNL     1       7.827   9.858  17.484  0.00  0.00    +0.000 OA
ATOM      8  C   UNL     1       8.280   9.058  18.297  0.00  0.00    +0.000 C 
ATOM      9  N   UNL     1       9.164   9.339  19.324  0.00  0.00    +0.000 N 
ATOM     10  H   UNL     1       9.589   8.558  19.810  0.00  0.00    +0.000 HD
BRANCH   9  11
ATOM     11  C   UNL     1       9.697  10.620  19.613  0.00  0.00    +0.000 A 
ATOM     12  C   UNL     1      10.557  11.313  18.763  0.00  0.00    +0.000 A 
ATOM     13  C   UNL     1      11.088  12.541  19.154  0.00  0.00    +0.000 A 
ATOM     14  C   UNL     1      10.728  13.053  20.387  0.00  0.00    +0.000 A 
ATOM     15  N   UNL     1       9.868  12.438  21.226  0.00  0.00    +0.000 NA
ATOM     16  C   UNL     1       9.371  11.244  20.817  0.00  0.00    +0.000 A 
ENDBRANCH   9  11
ENDBRANCH   1   8
BRANCH   5  17
ATOM     17  S   UNL     1       5.981   5.217  15.502  0.00  0.00    +0.000 S 
ATOM     18  O   UNL     1       5.293   6.353  14.927  0.00  0.00    +0.000 OA
ATOM     19  O   UNL     1       6.884   4.405  14.710  0.00  0.00    +0.000 OA
BRANCH  17  20
ATOM     20  N   UNL     1       4.862   4.155  16.188  0.00  0.00    +0.000 N 
ATOM     21  H   UNL     1       5.102   3.174  16.057  0.00  0.00    +0.000 HD
BRANCH  20  22
ATOM     22  C   UNL     1       4.209   4.537  17.390  0.00  0.00    +0.000 A 
ATOM     23  C   UNL     1       3.688   5.836  17.520  0.00  0.00    +0.000 A 
ATOM     24  C   UNL     1       2.947   6.187  18.653  0.00  0.00    +0.000 A 
ATOM     25  C   UNL     1       2.760   5.223  19.622  0.00  0.00    +0.000 A 
ATOM     26  C   UNL     1       3.292   3.961  19.500  0.00  0.00    +0.000 A 
ATOM     27  C   UNL     1       4.021   3.585  18.394  0.00  0.00    +0.000 A 
ATOM     28  O   UNL     1       2.991   3.167  20.562  0.00  0.00    +0.000 OA
ATOM     29  C   UNL     1       2.140   4.047  21.325  0.00  0.00    +0.000 C 
ATOM     30  O   UNL     1       2.046   5.375  20.768  0.00  0.00    +0.000 OA
ENDBRANCH  20  22
ENDBRANCH  17  20
ENDBRANCH   5  17
TORSDOF 5
ENDMDL
MODEL 2
REMARK VINA RESULT:      -8.8      0.727      1.318
REMARK  Name = 
REMARK  5 active torsions:
REMARK  status: ('A' for Active; 'I' for Inactive)
REMARK    1  A    between atoms: C_2  and  C_10
REMARK    2  A    between atoms: N_3  and  C_4
REMARK    3  A    between atoms: C_14  and  S_15
REMARK    4  A    between atoms: S_15  and  N_18
REMARK    5  A    between atoms: N_18  and  C_19
REMARK                            x       y       z     vdW  Elec       q    Type
REMARK                         _______ _______ _______ _____ _____    ______ ____
ROOT
ATOM      1  C   UNL     1       7.965   7.525  18.158  0.00  0.00    +0.000 A 
ATOM      2  C   UNL     1       8.279   6.686  19.237  0.00  0.00    +0.000 A 
ATOM      3  C   UNL     1       8.048   5.313  19.158  0.00  0.00    +0.000 A 
ATOM      4  C   UNL     1       7.508   4.767  17.995  0.00  0.00    +0.000 A 
ATOM      5  C   UNL     1       7.219   5.601  16.909  0.00  0.00    +0.000 A 
ATOM      6  C   UNL     1       7.431   6.985  16.985  0.00  0.00    +0.000 A 
ENDROOT
BRANCH   1   8
ATOM      7  O   UNL     1       7.735   9.739  17.506  0.00  0.00    +0.000 OA
ATOM      8  C   UNL     1       8.279   8.972  18.294  0.00  0.00    +0.000 C 
ATOM      9  N   UNL     1       9.204   9.308  19.267  0.00  0.00    +0.000 N 
ATOM     10  H   UNL     1       9.699   8.554  19.729  0.00  0.00    +0.000 HD
BRANCH   9  11
ATOM     11  C   UNL     1       9.682  10.618  19.519  0.00  0.00    +0.000 A 
ATOM     12  C   UNL     1      10.500  11.328  18.643  0.00  0.00    +0.000 A 
ATOM     13  C   UNL     1      10.979  12.588  18.998  0.00  0.00    +0.000 A 
ATOM     14  C   UNL     1      10.610  13.112  20.223  0.00  0.00    +0.000 A 
ATOM     15  N   UNL     1       9.789  12.479  21.088  0.00  0.00    +0.000 NA
ATOM     16  C   UNL     1       9.342  11.254  20.713  0.00  0.00    +0.000 A 
ENDBRANCH   9  11
ENDBRANCH   1   8
BRANCH   5  17
ATOM     17  S   UNL     1       6.490   4.913  15.433  0.00  0.00    +0.000 S 
ATOM     18  O   UNL     1       7.039   5.623  14.298  0.00  0.00    +0.000 OA
ATOM     19  O   UNL     1       6.609   3.473  15.550  0.00  0.00    +0.000 OA
BRANCH  17  20
ATOM     20  N   UNL     1       4.848   5.270  15.594  0.00  0.00    +0.000 N 
ATOM     21  H   UNL     1       4.343   5.263  14.710  0.00  0.00    +0.000 HD
BRANCH  20  22
ATOM     22  C   UNL     1       4.169   4.838  16.765  0.00  0.00    +0.000 A 
ATOM     23  C   UNL     1       4.092   3.466  17.063  0.00  0.00    +0.000 A 
ATOM     24  C   UNL     1       3.525   3.038  18.267  0.00  0.00    +0.000 A 
ATOM     25  C   UNL     1       3.047   4.002  19.130  0.00  0.00    +0.000 A 
ATOM     26  C   UNL     1       3.106   5.342  18.823  0.00  0.00    +0.000 A 
ATOM     27  C   UNL     1       3.663   5.793  17.649  0.00  0.00    +0.000 A 
ATOM     28  O   UNL     1       2.583   6.121  19.808  0.00  0.00    +0.000 OA
ATOM     29  C   UNL     1       2.266   5.126  20.803  0.00  0.00    +0.000 C 
ATOM     30  O   UNL     1       2.496   3.774  20.350  0.00  0.00    +0.000 OA
ENDBRANCH  20  22
ENDBRANCH  17  20
ENDBRANCH   5  17
TORSDOF 5
ENDMDL
MODEL 3
REMARK VINA RESULT:      -8.7      0.918      1.175
REMARK  Name = 
REMARK  5 active torsions:
REMARK  status: ('A' for Active; 'I' for Inactive)
REMARK    1  A    between atoms: C_2  and  C_10
REMARK    2  A    between atoms: N_3  and  C_4
REMARK    3  A    between atoms: C_14  and  S_15
REMARK    4  A    between atoms: S_15  and  N_18
REMARK    5  A    between atoms: N_18  and  C_19
REMARK                            x       y       z     vdW  Elec       q    Type
REMARK                         _______ _______ _______ _____ _____    ______ ____
ROOT
ATOM      1  C   UNL     1       7.879   7.549  18.164  0.00  0.00    +0.000 A 
ATOM      2  C   UNL     1       8.240   6.756  19.263  0.00  0.00    +0.000 A 
ATOM      3  C   UNL     1       7.997   5.382  19.256  0.00  0.00    +0.000 A 
ATOM      4  C   UNL     1       7.399   4.790  18.146  0.00  0.00    +0.000 A 
ATOM      5  C   UNL     1       7.064   5.578  17.038  0.00  0.00    +0.000 A 
ATOM      6  C   UNL     1       7.287   6.962  17.043  0.00  0.00    +0.000 A 
ENDROOT
BRANCH   1   8
ATOM      7  O   UNL     1       7.607   9.739  17.450  0.00  0.00    +0.000 OA
ATOM      8  C   UNL     1       8.207   8.998  18.222  0.00  0.00    +0.000 C 
ATOM      9  N   UNL     1       9.206   9.364  19.107  0.00  0.00    +0.000 N 
ATOM     10  H   UNL     1       9.732   8.625  19.558  0.00  0.00    +0.000 HD
BRANCH   9  11
ATOM     11  C   UNL     1       9.705  10.680  19.272  0.00  0.00    +0.000 A 
ATOM     12  C   UNL     1       9.554  11.428  20.437  0.00  0.00    +0.000 A 
ATOM     13  C   UNL     1      10.019  12.740  20.492  0.00  0.00    +0.000 A 
ATOM     14  C   UNL     1      10.641  13.267  19.375  0.00  0.00    +0.000 A 
ATOM     15  N   UNL     1      10.846  12.569  18.238  0.00  0.00    +0.000 NA
ATOM     16  C   UNL     1      10.380  11.295  18.216  0.00  0.00    +0.000 A 
ENDBRANCH   9  11
ENDBRANCH   1   8
BRANCH   5  17
ATOM     17  S   UNL     1       6.262   4.832  15.630  0.00  0.00    +0.000 S 
ATOM     18  O   UNL     1       6.785   5.464  14.439  0.00  0.00    +0.000 OA
ATOM     19  O   UNL     1       6.349   3.397  15.821  0.00  0.00    +0.000 OA
BRANCH  17  20
ATOM     20  N   UNL     1       4.636   5.241  15.832  0.00  0.00    +0.000 N 
ATOM     21  H   UNL     1       4.056   5.003  15.030  0.00  0.00    +0.000 HD
BRANCH  20  22
ATOM     22  C   UNL     1       4.068   5.149  17.131  0.00  0.00    +0.000 A 
ATOM     23  C   UNL     1       3.752   6.321  17.841  0.00  0.00    +0.000 A 
ATOM     24  C   UNL     1       3.091   6.242  19.070  0.00  0.00    +0.000 A 
ATOM     25  C   UNL     1       2.774   4.988  19.550  0.00  0.00    +0.000 A 
ATOM     26  C   UNL     1       3.105   3.845  18.861  0.00  0.00    +0.000 A 
ATOM     27  C   UNL     1       3.751   3.891  17.646  0.00  0.00    +0.000 A 
ATOM     28  O   UNL     1       2.702   2.717  19.506  0.00  0.00    +0.000 OA
ATOM     29  C   UNL     1       2.007   3.284  20.636  0.00  0.00    +0.000 C 
ATOM     30  O   UNL     1       2.109   4.723  20.704  0.00  0.00    +0.000 OA
ENDBRANCH  20  22
ENDBRANCH  17  20
ENDBRANCH   5  17
TORSDOF 5
ENDMDL
MODEL 4
REMARK VINA RESULT:      -8.7      1.128      1.280
REMARK  Name = 
REMARK  5 active torsions:
REMARK  status: ('A' for Active; 'I' for Inactive)
REMARK    1  A    between atoms: C_2  and  C_10
REMARK    2  A    between atoms: N_3  and  C_4
REMARK    3  A    between atoms: C_14  and  S_15
REMARK    4  A    between atoms: S_15  and  N_18
REMARK    5  A    between atoms: N_18  and  C_19
REMARK                            x       y       z     vdW  Elec       q    Type
REMARK                         _______ _______ _______ _____ _____    ______ ____
ROOT
ATOM      1  C   UNL     1       7.912   7.994  18.278  0.00  0.00    +0.000 A 
ATOM      2  C   UNL     1       8.527   7.035  19.095  0.00  0.00    +0.000 A 
ATOM      3  C   UNL     1       8.102   5.707  19.072  0.00  0.00    +0.000 A 
ATOM      4  C   UNL     1       7.064   5.326  18.225  0.00  0.00    +0.000 A 
ATOM      5  C   UNL     1       6.468   6.279  17.390  0.00  0.00    +0.000 A 
ATOM      6  C   UNL     1       6.876   7.620  17.419  0.00  0.00    +0.000 A 
ENDROOT
BRANCH   1   8
ATOM      7  O   UNL     1       8.100  10.142  17.423  0.00  0.00    +0.000 OA
ATOM      8  C   UNL     1       8.445   9.381  18.321  0.00  0.00    +0.000 C 
ATOM      9  N   UNL     1       9.330   9.665  19.347  0.00  0.00    +0.000 N 
ATOM     10  H   UNL     1       9.656   8.893  19.917  0.00  0.00    +0.000 HD
BRANCH   9  11
ATOM     11  C   UNL     1       9.992  10.904  19.532  0.00  0.00    +0.000 A 
ATOM     12  C   UNL     1      10.999  11.379  18.695  0.00  0.00    +0.000 A 
ATOM     13  C   UNL     1      11.644  12.580  18.987  0.00  0.00    +0.000 A 
ATOM     14  C   UNL     1      11.250  13.284  20.110  0.00  0.00    +0.000 A 
ATOM     15  N   UNL     1      10.253  12.884  20.928  0.00  0.00    +0.000 NA
ATOM     16  C   UNL     1       9.647  11.710  20.617  0.00  0.00    +0.000 A 
ENDBRANCH   9  11
ENDBRANCH   1   8
BRANCH   5  17
ATOM     17  S   UNL     1       5.112   5.805  16.332  0.00  0.00    +0.000 S 
ATOM     18  O   UNL     1       3.984   6.653  16.655  0.00  0.00    +0.000 OA
ATOM     19  O   UNL     1       5.644   5.742  14.986  0.00  0.00    +0.000 OA
BRANCH  17  20
ATOM     20  N   UNL     1       4.784   4.214  16.791  0.00  0.00    +0.000 N 
ATOM     21  H   UNL     1       5.615   3.628  16.843  0.00  0.00    +0.000 HD
BRANCH  20  22
ATOM     22  C   UNL     1       3.728   3.974  17.711  0.00  0.00    +0.000 A 
ATOM     23  C   UNL     1       2.394   3.997  17.266  0.00  0.00    +0.000 A 
ATOM     24  C   UNL     1       1.356   3.653  18.138  0.00  0.00    +0.000 A 
ATOM     25  C   UNL     1       1.691   3.305  19.430  0.00  0.00    +0.000 A 
ATOM     26  C   UNL     1       2.996   3.307  19.865  0.00  0.00    +0.000 A 
ATOM     27  C   UNL     1       4.039   3.635  19.029  0.00  0.00    +0.000 A 
ATOM     28  O   UNL     1       3.107   2.933  21.168  0.00  0.00    +0.000 OA
ATOM     29  C   UNL     1       1.735   2.615  21.478  0.00  0.00    +0.000 C 
ATOM     30  O   UNL     1       0.823   2.915  20.399  0.00  0.00    +0.000 OA
ENDBRANCH  20  22
ENDBRANCH  17  20
ENDBRANCH   5  17
TORSDOF 5
ENDMDL
MODEL 5
REMARK VINA RESULT:      -8.7      1.051      1.413
REMARK  Name = 
REMARK  5 active torsions:
REMARK  status: ('A' for Active; 'I' for Inactive)
REMARK    1  A    between atoms: C_2  and  C_10
REMARK    2  A    between atoms: N_3  and  C_4
REMARK    3  A    between atoms: C_14  and  S_15
REMARK    4  A    between atoms: S_15  and  N_18
REMARK    5  A    between atoms: N_18  and  C_19
REMARK                            x       y       z     vdW  Elec       q    Type
REMARK                         _______ _______ _______ _____ _____    ______ ____
ROOT
ATOM      1  C   UNL     1       8.005   7.693  18.252  0.00  0.00    +0.000 A 
ATOM      2  C   UNL     1       8.489   6.857  19.269  0.00  0.00    +0.000 A 
ATOM      3  C   UNL     1       8.236   5.486  19.241  0.00  0.00    +0.000 A 
ATOM      4  C   UNL     1       7.504   4.938  18.189  0.00  0.00    +0.000 A 
ATOM      5  C   UNL     1       7.044   5.769  17.160  0.00  0.00    +0.000 A 
ATOM      6  C   UNL     1       7.278   7.151  17.190  0.00  0.00    +0.000 A 
ENDROOT
BRANCH   1   8
ATOM      7  O   UNL     1       7.827   9.879  17.497  0.00  0.00    +0.000 OA
ATOM      8  C   UNL     1       8.350   9.137  18.323  0.00  0.00    +0.000 C 
ATOM      9  N   UNL     1       9.277   9.498  19.285  0.00  0.00    +0.000 N 
ATOM     10  H   UNL     1       9.753   8.756  19.785  0.00  0.00    +0.000 HD
BRANCH   9  11
ATOM     11  C   UNL     1       9.782  10.808  19.479  0.00  0.00    +0.000 A 
ATOM     12  C   UNL     1       9.529  11.578  20.612  0.00  0.00    +0.000 A 
ATOM     13  C   UNL     1      10.010  12.883  20.693  0.00  0.00    +0.000 A 
ATOM     14  C   UNL     1      10.749  13.381  19.636  0.00  0.00    +0.000 A 
ATOM     15  N   UNL     1      11.053  12.660  18.535  0.00  0.00    +0.000 NA
ATOM     16  C   UNL     1      10.568  11.394  18.487  0.00  0.00    +0.000 A 
ENDBRANCH   9  11
ENDBRANCH   1   8
BRANCH   5  17
ATOM     17  S   UNL     1       6.073   5.079  15.832  0.00  0.00    +0.000 S 
ATOM     18  O   UNL     1       5.042   6.037  15.497  0.00  0.00    +0.000 OA
ATOM     19  O   UNL     1       7.015   4.607  14.837  0.00  0.00    +0.000 OA
BRANCH  17  20
ATOM     20  N   UNL     1       5.376   3.703  16.519  0.00  0.00    +0.000 N 
ATOM     21  H   UNL     1       6.059   3.009  16.817  0.00  0.00    +0.000 HD
BRANCH  20  22
ATOM     22  C   UNL     1       4.186   3.851  17.281  0.00  0.00    +0.000 A 
ATOM     23  C   UNL     1       2.964   3.383  16.765  0.00  0.00    +0.000 A 
ATOM     24  C   UNL     1       1.808   3.422  17.551  0.00  0.00    +0.000 A 
ATOM     25  C   UNL     1       1.916   3.937  18.827  0.00  0.00    +0.000 A 
ATOM     26  C   UNL     1       3.109   4.414  19.317  0.00  0.00    +0.000 A 
ATOM     27  C   UNL     1       4.264   4.383  18.569  0.00  0.00    +0.000 A 
ATOM     28  O   UNL     1       2.998   4.875  20.592  0.00  0.00    +0.000 OA
ATOM     29  C   UNL     1       1.620   4.557  20.876  0.00  0.00    +0.000 C 
ATOM     30  O   UNL     1       0.911   4.025  19.736  0.00  0.00    +0.000 OA
ENDBRANCH  20  22
ENDBRANCH  17  20
ENDBRANCH   5  17
TORSDOF 5
ENDMDL
MODEL 6
REMARK VINA RESULT:      -8.6      4.052      6.768
REMARK  Name = 
REMARK  5 active torsions:
REMARK  status: ('A' for Active; 'I' for Inactive)
REMARK    1  A    between atoms: C_2  and  C_10
REMARK    2  A    between atoms: N_3  and  C_4
REMARK    3  A    between atoms: C_14  and  S_15
REMARK    4  A    between atoms: S_15  and  N_18
REMARK    5  A    between atoms: N_18  and  C_19
REMARK                            x       y       z     vdW  Elec       q    Type
REMARK                         _______ _______ _______ _____ _____    ______ ____
ROOT
ATOM      1  C   UNL     1       2.066   7.244  18.860  0.00  0.00    +0.000 A 
ATOM      2  C   UNL     1       1.901   7.034  20.236  0.00  0.00    +0.000 A 
ATOM      3  C   UNL     1       2.169   5.786  20.800  0.00  0.00    +0.000 A 
ATOM      4  C   UNL     1       2.613   4.742  19.992  0.00  0.00    +0.000 A 
ATOM      5  C   UNL     1       2.802   4.960  18.622  0.00  0.00    +0.000 A 
ATOM      6  C   UNL     1       2.518   6.205  18.043  0.00  0.00    +0.000 A 
ENDROOT
BRANCH   1   8
ATOM      7  O   UNL     1       2.337   8.913  17.272  0.00  0.00    +0.000 OA
ATOM      8  C   UNL     1       1.803   8.610  18.334  0.00  0.00    +0.000 C 
ATOM      9  N   UNL     1       1.023   9.431  19.129  0.00  0.00    +0.000 N 
ATOM     10  H   UNL     1       0.790   9.106  20.060  0.00  0.00    +0.000 HD
BRANCH   9  11
ATOM     11  C   UNL     1       0.705  10.781  18.838  0.00  0.00    +0.000 A 
ATOM     12  C   UNL     1       1.648  11.804  18.769  0.00  0.00    +0.000 A 
ATOM     13  C   UNL     1       1.241  13.118  18.542  0.00  0.00    +0.000 A 
ATOM     14  C   UNL     1      -0.108  13.371  18.375  0.00  0.00    +0.000 A 
ATOM     15  N   UNL     1      -1.055  12.408  18.394  0.00  0.00    +0.000 NA
ATOM     16  C   UNL     1      -0.626  11.140  18.619  0.00  0.00    +0.000 A 
ENDBRANCH   9  11
ENDBRANCH   1   8
BRANCH   5  17
ATOM     17  S   UNL     1       3.332   3.615  17.576  0.00  0.00    +0.000 S 
ATOM     18  O   UNL     1       3.890   2.588  18.428  0.00  0.00    +0.000 OA
ATOM     19  O   UNL     1       2.227   3.332  16.680  0.00  0.00    +0.000 OA
BRANCH  17  20
ATOM     20  N   UNL     1       4.550   4.301  16.629  0.00  0.00    +0.000 N 
ATOM     21  H   UNL     1       4.242   4.550  15.691  0.00  0.00    +0.000 HD
BRANCH  20  22
ATOM     22  C   UNL     1       5.524   5.119  17.262  0.00  0.00    +0.000 A 
ATOM     23  C   UNL     1       6.356   4.574  18.256  0.00  0.00    +0.000 A 
ATOM     24  C   UNL     1       7.391   5.338  18.804  0.00  0.00    +0.000 A 
ATOM     25  C   UNL     1       7.551   6.628  18.341  0.00  0.00    +0.000 A 
ATOM     26  C   UNL     1       6.720   7.162  17.385  0.00  0.00    +0.000 A 
ATOM     27  C   UNL     1       5.697   6.433  16.822  0.00  0.00    +0.000 A 
ATOM     28  O   UNL     1       7.051   8.444  17.070  0.00  0.00    +0.000 OA
ATOM     29  C   UNL     1       8.234   8.624  17.875  0.00  0.00    +0.000 C 
ATOM     30  O   UNL     1       8.516   7.499  18.735  0.00  0.00    +0.000 OA
ENDBRANCH  20  22
ENDBRANCH  17  20
ENDBRANCH   5  17
TORSDOF 5
ENDMDL
MODEL 7
REMARK VINA RESULT:      -8.6      5.189      7.160
REMARK  Name = 
REMARK  5 active torsions:
REMARK  status: ('A' for Active; 'I' for Inactive)
REMARK    1  A    between atoms: C_2  and  C_10
REMARK    2  A    between atoms: N_3  and  C_4
REMARK    3  A    between atoms: C_14  and  S_15
REMARK    4  A    between atoms: S_15  and  N_18
REMARK    5  A    between atoms: N_18  and  C_19
REMARK                            x       y       z     vdW  Elec       q    Type
REMARK                         _______ _______ _______ _____ _____    ______ ____
ROOT
ATOM      1  C   UNL     1       4.084   3.660  17.522  0.00  0.00    +0.000 A 
ATOM      2  C   UNL     1       4.065   2.259  17.465  0.00  0.00    +0.000 A 
ATOM      3  C   UNL     1       3.364   1.520  18.417  0.00  0.00    +0.000 A 
ATOM      4  C   UNL     1       2.668   2.177  19.429  0.00  0.00    +0.000 A 
ATOM      5  C   UNL     1       2.665   3.577  19.470  0.00  0.00    +0.000 A 
ATOM      6  C   UNL     1       3.382   4.328  18.528  0.00  0.00    +0.000 A 
ENDROOT
BRANCH   1   8
ATOM      7  O   UNL     1       4.656   5.599  16.385  0.00  0.00    +0.000 OA
ATOM      8  C   UNL     1       4.815   4.385  16.449  0.00  0.00    +0.000 C 
ATOM      9  N   UNL     1       5.565   3.605  15.586  0.00  0.00    +0.000 N 
ATOM     10  H   UNL     1       5.470   2.598  15.655  0.00  0.00    +0.000 HD
BRANCH   9  11
ATOM     11  C   UNL     1       6.288   4.092  14.469  0.00  0.00    +0.000 A 
ATOM     12  C   UNL     1       6.099   3.639  13.165  0.00  0.00    +0.000 A 
ATOM     13  C   UNL     1       6.899   4.125  12.132  0.00  0.00    +0.000 A 
ATOM     14  C   UNL     1       7.863   5.070  12.433  0.00  0.00    +0.000 A 
ATOM     15  N   UNL     1       8.057   5.567  13.674  0.00  0.00    +0.000 NA
ATOM     16  C   UNL     1       7.263   5.072  14.657  0.00  0.00    +0.000 A 
ENDBRANCH   9  11
ENDBRANCH   1   8
BRANCH   5  17
ATOM     17  S   UNL     1       1.809   4.422  20.787  0.00  0.00    +0.000 S 
ATOM     18  O   UNL     1       0.465   4.704  20.329  0.00  0.00    +0.000 OA
ATOM     19  O   UNL     1       2.048   3.654  21.992  0.00  0.00    +0.000 OA
BRANCH  17  20
ATOM     20  N   UNL     1       2.670   5.864  20.962  0.00  0.00    +0.000 N 
ATOM     21  H   UNL     1       3.679   5.734  20.979  0.00  0.00    +0.000 HD
BRANCH  20  22
ATOM     22  C   UNL     1       2.150   7.044  20.366  0.00  0.00    +0.000 A 
ATOM     23  C   UNL     1       2.455   7.344  19.027  0.00  0.00    +0.000 A 
ATOM     24  C   UNL     1       1.859   8.442  18.399  0.00  0.00    +0.000 A 
ATOM     25  C   UNL     1       0.981   9.207  19.138  0.00  0.00    +0.000 A 
ATOM     26  C   UNL     1       0.703   8.921  20.455  0.00  0.00    +0.000 A 
ATOM     27  C   UNL     1       1.270   7.844  21.098  0.00  0.00    +0.000 A 
ATOM     28  O   UNL     1      -0.186   9.795  20.997  0.00  0.00    +0.000 OA
ATOM     29  C   UNL     1      -0.499  10.612  19.850  0.00  0.00    +0.000 C 
ATOM     30  O   UNL     1       0.290  10.285  18.686  0.00  0.00    +0.000 OA
ENDBRANCH  20  22
ENDBRANCH  17  20
ENDBRANCH   5  17
TORSDOF 5
ENDMDL
MODEL 8
REMARK VINA RESULT:      -8.5      4.024      6.471
REMARK  Name = 
REMARK  5 active torsions:
REMARK  status: ('A' for Active; 'I' for Inactive)
REMARK    1  A    between atoms: C_2  and  C_10
REMARK    2  A    between atoms: N_3  and  C_4
REMARK    3  A    between atoms: C_14  and  S_15
REMARK    4  A    between atoms: S_15  and  N_18
REMARK    5  A    between atoms: N_18  and  C_19
REMARK                            x       y       z     vdW  Elec       q    Type
REMARK                         _______ _______ _______ _____ _____    ______ ____
ROOT
ATOM      1  C   UNL     1       2.103   6.965  18.970  0.00  0.00    +0.000 A 
ATOM      2  C   UNL     1       2.112   6.846  20.367  0.00  0.00    +0.000 A 
ATOM      3  C   UNL     1       2.270   5.599  20.971  0.00  0.00    +0.000 A 
ATOM      4  C   UNL     1       2.429   4.461  20.181  0.00  0.00    +0.000 A 
ATOM      5  C   UNL     1       2.446   4.585  18.787  0.00  0.00    +0.000 A 
ATOM      6  C   UNL     1       2.269   5.832  18.171  0.00  0.00    +0.000 A 
ENDROOT
BRANCH   1   8
ATOM      7  O   UNL     1       2.528   8.540  17.321  0.00  0.00    +0.000 OA
ATOM      8  C   UNL     1       1.974   8.330  18.395  0.00  0.00    +0.000 C 
ATOM      9  N   UNL     1       1.284   9.254  19.160  0.00  0.00    +0.000 N 
ATOM     10  H   UNL     1       1.026   8.988  20.104  0.00  0.00    +0.000 HD
BRANCH   9  11
ATOM     11  C   UNL     1       1.099  10.617  18.821  0.00  0.00    +0.000 A 
ATOM     12  C   UNL     1       2.142  11.492  18.525  0.00  0.00    +0.000 A 
ATOM     13  C   UNL     1       1.876  12.835  18.265  0.00  0.00    +0.000 A 
ATOM     14  C   UNL     1       0.562  13.266  18.294  0.00  0.00    +0.000 A 
ATOM     15  N   UNL     1      -0.484  12.448  18.537  0.00  0.00    +0.000 NA
ATOM     16  C   UNL     1      -0.192  11.147  18.788  0.00  0.00    +0.000 A 
ENDBRANCH   9  11
ENDBRANCH   1   8
BRANCH   5  17
ATOM     17  S   UNL     1       2.608   3.128  17.771  0.00  0.00    +0.000 S 
ATOM     18  O   UNL     1       1.971   2.031  18.468  0.00  0.00    +0.000 OA
ATOM     19  O   UNL     1       2.197   3.511  16.435  0.00  0.00    +0.000 OA
BRANCH  17  20
ATOM     20  N   UNL     1       4.276   2.873  17.702  0.00  0.00    +0.000 N 
ATOM     21  H   UNL     1       4.530   1.947  17.364  0.00  0.00    +0.000 HD
BRANCH  20  22
ATOM     22  C   UNL     1       5.119   3.969  17.374  0.00  0.00    +0.000 A 
ATOM     23  C   UNL     1       5.037   4.557  16.100  0.00  0.00    +0.000 A 
ATOM     24  C   UNL     1       5.780   5.704  15.805  0.00  0.00    +0.000 A 
ATOM     25  C   UNL     1       6.588   6.218  16.799  0.00  0.00    +0.000 A 
ATOM     26  C   UNL     1       6.681   5.625  18.036  0.00  0.00    +0.000 A 
ATOM     27  C   UNL     1       5.957   4.499  18.357  0.00  0.00    +0.000 A 
ATOM     28  O   UNL     1       7.529   6.289  18.866  0.00  0.00    +0.000 OA
ATOM     29  C   UNL     1       7.893   7.413  18.039  0.00  0.00    +0.000 C 
ATOM     30  O   UNL     1       7.353   7.337  16.702  0.00  0.00    +0.000 OA
ENDBRANCH  20  22
ENDBRANCH  17  20
ENDBRANCH   5  17
TORSDOF 5
ENDMDL
MODEL 9
REMARK VINA RESULT:      -8.5      5.198      7.262
REMARK  Name = 
REMARK  5 active torsions:
REMARK  status: ('A' for Active; 'I' for Inactive)
REMARK    1  A    between atoms: C_2  and  C_10
REMARK    2  A    between atoms: N_3  and  C_4
REMARK    3  A    between atoms: C_14  and  S_15
REMARK    4  A    between atoms: S_15  and  N_18
REMARK    5  A    between atoms: N_18  and  C_19
REMARK                            x       y       z     vdW  Elec       q    Type
REMARK                         _______ _______ _______ _____ _____    ______ ____
ROOT
ATOM      1  C   UNL     1       4.089   3.780  17.377  0.00  0.00    +0.000 A 
ATOM      2  C   UNL     1       4.003   2.382  17.304  0.00  0.00    +0.000 A 
ATOM      3  C   UNL     1       3.273   1.667  18.253  0.00  0.00    +0.000 A 
ATOM      4  C   UNL     1       2.615   2.345  19.277  0.00  0.00    +0.000 A 
ATOM      5  C   UNL     1       2.679   3.742  19.333  0.00  0.00    +0.000 A 
ATOM      6  C   UNL     1       3.426   4.469  18.394  0.00  0.00    +0.000 A 
ENDROOT
BRANCH   1   8
ATOM      7  O   UNL     1       4.731   5.701  16.246  0.00  0.00    +0.000 OA
ATOM      8  C   UNL     1       4.847   4.481  16.308  0.00  0.00    +0.000 C 
ATOM      9  N   UNL     1       5.571   3.678  15.444  0.00  0.00    +0.000 N 
ATOM     10  H   UNL     1       5.440   2.675  15.509  0.00  0.00    +0.000 HD
BRANCH   9  11
ATOM     11  C   UNL     1       6.312   4.142  14.329  0.00  0.00    +0.000 A 
ATOM     12  C   UNL     1       6.168   3.641  13.037  0.00  0.00    +0.000 A 
ATOM     13  C   UNL     1       6.984   4.108  12.009  0.00  0.00    +0.000 A 
ATOM     14  C   UNL     1       7.920   5.083  12.302  0.00  0.00    +0.000 A 
ATOM     15  N   UNL     1       8.070   5.627  13.528  0.00  0.00    +0.000 NA
ATOM     16  C   UNL     1       7.262   5.148  14.507  0.00  0.00    +0.000 A 
ENDBRANCH   9  11
ENDBRANCH   1   8
BRANCH   5  17
ATOM     17  S   UNL     1       1.872   4.613  20.665  0.00  0.00    +0.000 S 
ATOM     18  O   UNL     1       0.477   4.763  20.312  0.00  0.00    +0.000 OA
ATOM     19  O   UNL     1       2.271   3.950  21.891  0.00  0.00    +0.000 OA
BRANCH  17  20
ATOM     20  N   UNL     1       2.629   6.122  20.672  0.00  0.00    +0.000 N 
ATOM     21  H   UNL     1       3.573   6.105  20.291  0.00  0.00    +0.000 HD
BRANCH  20  22
ATOM     22  C   UNL     1       1.835   7.282  20.460  0.00  0.00    +0.000 A 
ATOM     23  C   UNL     1       0.993   7.749  21.484  0.00  0.00    +0.000 A 
ATOM     24  C   UNL     1       0.294   8.950  21.328  0.00  0.00    +0.000 A 
ATOM     25  C   UNL     1       0.459   9.639  20.144  0.00  0.00    +0.000 A 
ATOM     26  C   UNL     1       1.267   9.165  19.137  0.00  0.00    +0.000 A 
ATOM     27  C   UNL     1       1.971   7.990  19.264  0.00  0.00    +0.000 A 
ATOM     28  O   UNL     1       1.290   9.994  18.059  0.00  0.00    +0.000 OA
ATOM     29  C   UNL     1       0.472  11.082  18.535  0.00  0.00    +0.000 C 
ATOM     30  O   UNL     1      -0.114  10.830  19.831  0.00  0.00    +0.000 OA
ENDBRANCH  20  22
ENDBRANCH  17  20
ENDBRANCH   5  17
TORSDOF 5
ENDMDL
