MODEL 1
REMARK VINA RESULT:      -9.2      0.000      0.000
REMARK  Name = 
REMARK  5 active torsions:
REMARK  status: ('A' for Active; 'I' for Inactive)
REMARK    1  A    between atoms: C_1  and  C_2
REMARK    2  A    between atoms: C_9  and  N_10
REMARK    3  A    between atoms: N_13  and  C_14
REMARK    4  A    between atoms: C_14  and  C_15
REMARK    5  A    between atoms: N_18  and  C_19
REMARK                            x       y       z     vdW  Elec       q    Type
REMARK                         _______ _______ _______ _____ _____    ______ ____
ROOT
ATOM      1  N   UNL     1       9.109   8.873  19.071  0.00  0.00    +0.000 N 
ATOM      2  C   UNL     1       8.127   8.410  18.227  0.00  0.00    +0.000 C 
ATOM      3  O   UNL     1       7.348   9.119  17.584  0.00  0.00    +0.000 OA
ATOM      4  N   UNL     1       8.011   7.048  18.167  0.00  0.00    +0.000 N 
ATOM      5  H   UNL     1       9.626   8.192  19.605  0.00  0.00    +0.000 HD
ATOM      6  H   UNL     1       8.632   6.442  18.695  0.00  0.00    +0.000 HD
ENDROOT
BRANCH   1  15
ATOM      7  C   UNL     1      11.379  16.926  18.554  0.00  0.00    +0.000 C 
ATOM      8  C   UNL     1      11.063  15.754  17.676  0.00  0.00    +0.000 C 
ATOM      9  O   UNL     1      11.218  15.820  16.449  0.00  0.00    +0.000 OA
ATOM     10  N   UNL     1      10.619  14.617  18.294  0.00  0.00    +0.000 N 
ATOM     11  C   UNL     1      10.346  14.390  19.723  0.00  0.00    +0.000 C 
ATOM     12  C   UNL     1       9.948  12.944  19.777  0.00  0.00    +0.000 A 
ATOM     13  C   UNL     1       9.625  12.137  20.849  0.00  0.00    +0.000 A 
ATOM     14  C   UNL     1       9.337  10.792  20.610  0.00  0.00    +0.000 A 
ATOM     15  C   UNL     1       9.365  10.245  19.303  0.00  0.00    +0.000 A 
ATOM     16  C   UNL     1       9.651  11.087  18.226  0.00  0.00    +0.000 A 
ATOM     17  C   UNL     1       9.946  12.409  18.473  0.00  0.00    +0.000 A 
ATOM     18  C   UNL     1      10.307  13.455  17.482  0.00  0.00    +0.000 C 
ENDBRANCH   1  15
BRANCH   4  19
ATOM     19  C   UNL     1       7.006   6.487  17.283  0.00  0.00    +0.000 C 
BRANCH  19  20
ATOM     20  C   UNL     1       6.568   5.046  17.536  0.00  0.00    +0.000 C 
ATOM     21  C   UNL     1       5.539   4.579  16.511  0.00  0.00    +0.000 C 
ATOM     22  C   UNL     1       4.218   5.062  17.098  0.00  0.00    +0.000 C 
ATOM     23  N   UNL     1       4.439   5.007  18.553  0.00  0.00    +0.000 N 
ATOM     24  C   UNL     1       5.854   4.825  18.862  0.00  0.00    +0.000 C 
BRANCH  23  25
ATOM     25  C   UNL     1       3.479   4.493  19.408  0.00  0.00    +0.000 A 
ATOM     26  C   UNL     1       2.268   5.157  19.677  0.00  0.00    +0.000 A 
ATOM     27  C   UNL     1       1.320   4.621  20.549  0.00  0.00    +0.000 A 
ATOM     28  C   UNL     1       1.553   3.388  21.154  0.00  0.00    +0.000 A 
ATOM     29  C   UNL     1       2.725   2.700  20.880  0.00  0.00    +0.000 A 
ATOM     30  C   UNL     1       3.670   3.248  20.012  0.00  0.00    +0.000 A 
ENDBRANCH  23  25
ENDBRANCH  19  20
ENDBRANCH   4  19
TORSDOF 4
ENDMDL
MODEL 2
REMARK VINA RESULT:      -9.1      1.324      1.483
REMARK  Name = 
REMARK  5 active torsions:
REMARK  status: ('A' for Active; 'I' for Inactive)
REMARK    1  A    between atoms: C_1  and  C_2
REMARK    2  A    between atoms: C_9  and  N_10
REMARK    3  A    between atoms: N_13  and  C_14
REMARK    4  A    between atoms: C_14  and  C_15
REMARK    5  A    between atoms: N_18  and  C_19
REMARK                            x       y       z     vdW  Elec       q    Type
REMARK                         _______ _______ _______ _____ _____    ______ ____
ROOT
ATOM      1  N   UNL     1       8.146   9.772  17.561  0.00  0.00    +0.000 N 
ATOM      2  C   UNL     1       8.074   8.440  17.890  0.00  0.00    +0.000 C 
ATOM      3  O   UNL     1       8.619   7.917  18.866  0.00  0.00    +0.000 OA
ATOM      4  N   UNL     1       7.371   7.663  17.010  0.00  0.00    +0.000 N 
ATOM      5  H   UNL     1       7.725  10.063  16.692  0.00  0.00    +0.000 HD
ATOM      6  H   UNL     1       6.921   8.067  16.194  0.00  0.00    +0.000 HD
ENDROOT
BRANCH   1  15
ATOM      7  C   UNL     1      12.333  16.504  20.284  0.00  0.00    +0.000 C 
ATOM      8  C   UNL     1      11.402  16.086  19.188  0.00  0.00    +0.000 C 
ATOM      9  O   UNL     1      11.129  16.858  18.259  0.00  0.00    +0.000 OA
ATOM     10  N   UNL     1      10.892  14.818  19.256  0.00  0.00    +0.000 N 
ATOM     11  C   UNL     1      11.086  13.801  20.304  0.00  0.00    +0.000 C 
ATOM     12  C   UNL     1      10.328  12.615  19.782  0.00  0.00    +0.000 A 
ATOM     13  C   UNL     1      10.182  11.342  20.294  0.00  0.00    +0.000 A 
ATOM     14  C   UNL     1       9.449  10.406  19.561  0.00  0.00    +0.000 A 
ATOM     15  C   UNL     1       8.856  10.734  18.317  0.00  0.00    +0.000 A 
ATOM     16  C   UNL     1       8.978  12.040  17.836  0.00  0.00    +0.000 A 
ATOM     17  C   UNL     1       9.713  12.952  18.559  0.00  0.00    +0.000 A 
ATOM     18  C   UNL     1       9.991  14.368  18.211  0.00  0.00    +0.000 C 
ENDBRANCH   1  15
BRANCH   4  19
ATOM     19  C   UNL     1       7.239   6.248  17.304  0.00  0.00    +0.000 C 
BRANCH  19  20
ATOM     20  C   UNL     1       6.067   5.502  16.670  0.00  0.00    +0.000 C 
ATOM     21  C   UNL     1       4.978   6.460  16.194  0.00  0.00    +0.000 C 
ATOM     22  C   UNL     1       4.136   6.679  17.445  0.00  0.00    +0.000 C 
ATOM     23  N   UNL     1       4.252   5.405  18.175  0.00  0.00    +0.000 N 
ATOM     24  C   UNL     1       5.317   4.577  17.618  0.00  0.00    +0.000 C 
BRANCH  23  25
ATOM     25  C   UNL     1       3.147   4.803  18.752  0.00  0.00    +0.000 A 
ATOM     26  C   UNL     1       2.297   3.936  18.041  0.00  0.00    +0.000 A 
ATOM     27  C   UNL     1       1.185   3.347  18.645  0.00  0.00    +0.000 A 
ATOM     28  C   UNL     1       0.914   3.594  19.988  0.00  0.00    +0.000 A 
ATOM     29  C   UNL     1       1.755   4.420  20.718  0.00  0.00    +0.000 A 
ATOM     30  C   UNL     1       2.859   5.010  20.104  0.00  0.00    +0.000 A 
ENDBRANCH  23  25
ENDBRANCH  19  20
ENDBRANCH   4  19
TORSDOF 4
ENDMDL
MODEL 3
REMARK VINA RESULT:      -9.0      1.140      1.249
REMARK  Name = 
REMARK  5 active torsions:
REMARK  status: ('A' for Active; 'I' for Inactive)
REMARK    1  A    between atoms: C_1  and  C_2
REMARK    2  A    between atoms: C_9  and  N_10
REMARK    3  A    between atoms: N_13  and  C_14
REMARK    4  A    between atoms: C_14  and  C_15
REMARK    5  A    between atoms: N_18  and  C_19
REMARK                            x       y       z     vdW  Elec       q    Type
REMARK                         _______ _______ _______ _____ _____    ______ ____
ROOT
ATOM      1  N   UNL     1       7.962   9.145  17.437  0.00  0.00    +0.000 N 
ATOM      2  C   UNL     1       7.861   7.821  17.793  0.00  0.00    +0.000 C 
ATOM      3  O   UNL     1       8.340   7.321  18.815  0.00  0.00    +0.000 OA
ATOM      4  N   UNL     1       7.212   7.025  16.889  0.00  0.00    +0.000 N 
ATOM      5  H   UNL     1       7.599   9.415  16.536  0.00  0.00    +0.000 HD
ATOM      6  H   UNL     1       6.818   7.411  16.036  0.00  0.00    +0.000 HD
ENDROOT
BRANCH   1  15
ATOM      7  C   UNL     1      12.059  15.896  20.248  0.00  0.00    +0.000 C 
ATOM      8  C   UNL     1      11.216  15.452  19.091  0.00  0.00    +0.000 C 
ATOM      9  O   UNL     1      11.043  16.190  18.112  0.00  0.00    +0.000 OA
ATOM     10  N   UNL     1      10.672  14.199  19.165  0.00  0.00    +0.000 N 
ATOM     11  C   UNL     1      10.750  13.222  20.265  0.00  0.00    +0.000 C 
ATOM     12  C   UNL     1      10.012  12.031  19.726  0.00  0.00    +0.000 A 
ATOM     13  C   UNL     1       9.792  10.783  20.273  0.00  0.00    +0.000 A 
ATOM     14  C   UNL     1       9.103   9.834  19.516  0.00  0.00    +0.000 A 
ATOM     15  C   UNL     1       8.627  10.122  18.214  0.00  0.00    +0.000 A 
ATOM     16  C   UNL     1       8.821  11.404  17.694  0.00  0.00    +0.000 A 
ATOM     17  C   UNL     1       9.513  12.330  18.442  0.00  0.00    +0.000 A 
ATOM     18  C   UNL     1       9.854  13.725  18.064  0.00  0.00    +0.000 C 
ENDBRANCH   1  15
BRANCH   4  19
ATOM     19  C   UNL     1       7.053   5.619  17.208  0.00  0.00    +0.000 C 
BRANCH  19  20
ATOM     20  C   UNL     1       5.727   4.957  16.840  0.00  0.00    +0.000 C 
ATOM     21  C   UNL     1       4.614   5.986  16.656  0.00  0.00    +0.000 C 
ATOM     22  C   UNL     1       4.094   6.194  18.074  0.00  0.00    +0.000 C 
ATOM     23  N   UNL     1       4.302   4.887  18.720  0.00  0.00    +0.000 N 
ATOM     24  C   UNL     1       5.163   4.032  17.909  0.00  0.00    +0.000 C 
BRANCH  23  25
ATOM     25  C   UNL     1       3.326   4.316  19.519  0.00  0.00    +0.000 A 
ATOM     26  C   UNL     1       2.004   4.795  19.562  0.00  0.00    +0.000 A 
ATOM     27  C   UNL     1       1.041   4.206  20.382  0.00  0.00    +0.000 A 
ATOM     28  C   UNL     1       1.376   3.102  21.162  0.00  0.00    +0.000 A 
ATOM     29  C   UNL     1       2.665   2.592  21.113  0.00  0.00    +0.000 A 
ATOM     30  C   UNL     1       3.622   3.193  20.296  0.00  0.00    +0.000 A 
ENDBRANCH  23  25
ENDBRANCH  19  20
ENDBRANCH   4  19
TORSDOF 4
ENDMDL
MODEL 4
REMARK VINA RESULT:      -8.9      1.627      2.117
REMARK  Name = 
REMARK  5 active torsions:
REMARK  status: ('A' for Active; 'I' for Inactive)
REMARK    1  A    between atoms: C_1  and  C_2
REMARK    2  A    between atoms: C_9  and  N_10
REMARK    3  A    between atoms: N_13  and  C_14
REMARK    4  A    between atoms: C_14  and  C_15
REMARK    5  A    between atoms: N_18  and  C_19
REMARK                            x       y       z     vdW  Elec       q    Type
REMARK                         _______ _______ _______ _____ _____    ______ ____
ROOT
ATOM      1  N   UNL     1       8.975   8.767  19.093  0.00  0.00    +0.000 N 
ATOM      2  C   UNL     1       8.086   8.245  18.184  0.00  0.00    +0.000 C 
ATOM      3  O   UNL     1       7.489   8.894  17.320  0.00  0.00    +0.000 OA
ATOM      4  N   UNL     1       7.838   6.907  18.318  0.00  0.00    +0.000 N 
ATOM      5  H   UNL     1       9.335   8.149  19.803  0.00  0.00    +0.000 HD
ATOM      6  H   UNL     1       8.309   6.353  19.028  0.00  0.00    +0.000 HD
ENDROOT
BRANCH   1  15
ATOM      7  C   UNL     1      10.271  16.757  21.272  0.00  0.00    +0.000 C 
ATOM      8  C   UNL     1      10.003  15.418  21.889  0.00  0.00    +0.000 C 
ATOM      9  O   UNL     1       9.804  15.309  23.106  0.00  0.00    +0.000 OA
ATOM     10  N   UNL     1       9.970  14.341  21.045  0.00  0.00    +0.000 N 
ATOM     11  C   UNL     1      10.221  14.298  19.595  0.00  0.00    +0.000 C 
ATOM     12  C   UNL     1       9.977  12.860  19.242  0.00  0.00    +0.000 A 
ATOM     13  C   UNL     1      10.004  12.213  18.022  0.00  0.00    +0.000 A 
ATOM     14  C   UNL     1       9.683  10.855  17.979  0.00  0.00    +0.000 A 
ATOM     15  C   UNL     1       9.336  10.134  19.148  0.00  0.00    +0.000 A 
ATOM     16  C   UNL     1       9.356  10.795  20.378  0.00  0.00    +0.000 A 
ATOM     17  C   UNL     1       9.662  12.137  20.410  0.00  0.00    +0.000 A 
ATOM     18  C   UNL     1       9.706  13.026  21.598  0.00  0.00    +0.000 C 
ENDBRANCH   1  15
BRANCH   4  19
ATOM     19  C   UNL     1       6.922   6.285  17.381  0.00  0.00    +0.000 C 
BRANCH  19  20
ATOM     20  C   UNL     1       6.501   4.843  17.657  0.00  0.00    +0.000 C 
ATOM     21  C   UNL     1       5.525   4.327  16.603  0.00  0.00    +0.000 C 
ATOM     22  C   UNL     1       4.172   4.800  17.121  0.00  0.00    +0.000 C 
ATOM     23  N   UNL     1       4.332   4.790  18.584  0.00  0.00    +0.000 N 
ATOM     24  C   UNL     1       5.735   4.645  18.957  0.00  0.00    +0.000 C 
BRANCH  23  25
ATOM     25  C   UNL     1       3.347   4.281  19.413  0.00  0.00    +0.000 A 
ATOM     26  C   UNL     1       2.035   4.791  19.436  0.00  0.00    +0.000 A 
ATOM     27  C   UNL     1       1.062   4.265  20.286  0.00  0.00    +0.000 A 
ATOM     28  C   UNL     1       1.375   3.193  21.119  0.00  0.00    +0.000 A 
ATOM     29  C   UNL     1       2.652   2.653  21.092  0.00  0.00    +0.000 A 
ATOM     30  C   UNL     1       3.619   3.191  20.244  0.00  0.00    +0.000 A 
ENDBRANCH  23  25
ENDBRANCH  19  20
ENDBRANCH   4  19
TORSDOF 4
ENDMDL
MODEL 5
REMARK VINA RESULT:      -8.9      2.000      2.460
REMARK  Name = 
REMARK  5 active torsions:
REMARK  status: ('A' for Active; 'I' for Inactive)
REMARK    1  A    between atoms: C_1  and  C_2
REMARK    2  A    between atoms: C_9  and  N_10
REMARK    3  A    between atoms: N_13  and  C_14
REMARK    4  A    between atoms: C_14  and  C_15
REMARK    5  A    between atoms: N_18  and  C_19
REMARK                            x       y       z     vdW  Elec       q    Type
REMARK                         _______ _______ _______ _____ _____    ______ ____
ROOT
ATOM      1  N   UNL     1       9.023   8.966  19.243  0.00  0.00    +0.000 N 
ATOM      2  C   UNL     1       8.301   8.410  18.213  0.00  0.00    +0.000 C 
ATOM      3  O   UNL     1       7.855   9.029  17.242  0.00  0.00    +0.000 OA
ATOM      4  N   UNL     1       8.040   7.074  18.343  0.00  0.00    +0.000 N 
ATOM      5  H   UNL     1       9.260   8.371  20.021  0.00  0.00    +0.000 HD
ATOM      6  H   UNL     1       8.386   6.545  19.138  0.00  0.00    +0.000 HD
ENDROOT
BRANCH   1  15
ATOM      7  C   UNL     1      10.183  16.947  21.528  0.00  0.00    +0.000 C 
ATOM      8  C   UNL     1       9.926  15.597  22.126  0.00  0.00    +0.000 C 
ATOM      9  O   UNL     1       9.716  15.471  23.340  0.00  0.00    +0.000 OA
ATOM     10  N   UNL     1       9.918  14.530  21.269  0.00  0.00    +0.000 N 
ATOM     11  C   UNL     1      10.185  14.507  19.821  0.00  0.00    +0.000 C 
ATOM     12  C   UNL     1       9.965  13.070  19.449  0.00  0.00    +0.000 A 
ATOM     13  C   UNL     1      10.014  12.438  18.223  0.00  0.00    +0.000 A 
ATOM     14  C   UNL     1       9.712  11.076  18.160  0.00  0.00    +0.000 A 
ATOM     15  C   UNL     1       9.364  10.336  19.317  0.00  0.00    +0.000 A 
ATOM     16  C   UNL     1       9.361  10.984  20.555  0.00  0.00    +0.000 A 
ATOM     17  C   UNL     1       9.648  12.329  20.606  0.00  0.00    +0.000 A 
ATOM     18  C   UNL     1       9.667  13.205  21.805  0.00  0.00    +0.000 C 
ENDBRANCH   1  15
BRANCH   4  19
ATOM     19  C   UNL     1       7.296   6.417  17.284  0.00  0.00    +0.000 C 
BRANCH  19  20
ATOM     20  C   UNL     1       7.031   4.921  17.431  0.00  0.00    +0.000 C 
ATOM     21  C   UNL     1       6.632   4.283  16.103  0.00  0.00    +0.000 C 
ATOM     22  C   UNL     1       5.128   4.524  16.039  0.00  0.00    +0.000 C 
ATOM     23  N   UNL     1       4.709   4.502  17.451  0.00  0.00    +0.000 N 
ATOM     24  C   UNL     1       5.863   4.571  18.342  0.00  0.00    +0.000 C 
BRANCH  23  25
ATOM     25  C   UNL     1       3.572   3.823  17.854  0.00  0.00    +0.000 A 
ATOM     26  C   UNL     1       2.299   4.422  17.880  0.00  0.00    +0.000 A 
ATOM     27  C   UNL     1       1.169   3.718  18.299  0.00  0.00    +0.000 A 
ATOM     28  C   UNL     1       1.286   2.382  18.676  0.00  0.00    +0.000 A 
ATOM     29  C   UNL     1       2.524   1.760  18.628  0.00  0.00    +0.000 A 
ATOM     30  C   UNL     1       3.648   2.475  18.216  0.00  0.00    +0.000 A 
ENDBRANCH  23  25
ENDBRANCH  19  20
ENDBRANCH   4  19
TORSDOF 4
ENDMDL
MODEL 6
REMARK VINA RESULT:      -8.9      1.799      2.272
REMARK  Name = 
REMARK  5 active torsions:
REMARK  status: ('A' for Active; 'I' for Inactive)
REMARK    1  A    between atoms: C_1  and  C_2
REMARK    2  A    between atoms: C_9  and  N_10
REMARK    3  A    between atoms: N_13  and  C_14
REMARK    4  A    between atoms: C_14  and  C_15
REMARK    5  A    between atoms: N_18  and  C_19
REMARK                            x       y       z     vdW  Elec       q    Type
REMARK                         _______ _______ _______ _____ _____    ______ ____
ROOT
ATOM      1  N   UNL     1       9.543   9.929  19.044  0.00  0.00    +0.000 N 
ATOM      2  C   UNL     1       8.609   9.176  18.374  0.00  0.00    +0.000 C 
ATOM      3  O   UNL     1       7.864   9.594  17.482  0.00  0.00    +0.000 OA
ATOM      4  N   UNL     1       8.497   7.880  18.797  0.00  0.00    +0.000 N 
ATOM      5  H   UNL     1      10.032   9.493  19.811  0.00  0.00    +0.000 HD
ATOM      6  H   UNL     1       9.090   7.515  19.536  0.00  0.00    +0.000 HD
ENDROOT
BRANCH   1  15
ATOM      7  C   UNL     1       9.153  18.278  18.398  0.00  0.00    +0.000 C 
ATOM      8  C   UNL     1       8.560  17.149  19.184  0.00  0.00    +0.000 C 
ATOM      9  O   UNL     1       7.639  17.351  19.986  0.00  0.00    +0.000 OA
ATOM     10  N   UNL     1       9.069  15.899  18.957  0.00  0.00    +0.000 N 
ATOM     11  C   UNL     1      10.179  15.502  18.074  0.00  0.00    +0.000 C 
ATOM     12  C   UNL     1      10.216  14.008  18.213  0.00  0.00    +0.000 A 
ATOM     13  C   UNL     1      11.007  13.063  17.590  0.00  0.00    +0.000 A 
ATOM     14  C   UNL     1      10.789  11.714  17.877  0.00  0.00    +0.000 A 
ATOM     15  C   UNL     1       9.785  11.299  18.786  0.00  0.00    +0.000 A 
ATOM     16  C   UNL     1       9.023  12.271  19.438  0.00  0.00    +0.000 A 
ATOM     17  C   UNL     1       9.237  13.598  19.141  0.00  0.00    +0.000 A 
ATOM     18  C   UNL     1       8.519  14.775  19.692  0.00  0.00    +0.000 C 
ENDBRANCH   1  15
BRANCH   4  19
ATOM     19  C   UNL     1       7.542   7.022  18.122  0.00  0.00    +0.000 C 
BRANCH  19  20
ATOM     20  C   UNL     1       7.352   5.609  18.670  0.00  0.00    +0.000 C 
ATOM     21  C   UNL     1       7.502   4.553  17.578  0.00  0.00    +0.000 C 
ATOM     22  C   UNL     1       6.108   4.482  16.968  0.00  0.00    +0.000 C 
ATOM     23  N   UNL     1       5.214   4.792  18.096  0.00  0.00    +0.000 N 
ATOM     24  C   UNL     1       5.964   5.327  19.228  0.00  0.00    +0.000 C 
BRANCH  23  25
ATOM     25  C   UNL     1       4.061   4.060  18.324  0.00  0.00    +0.000 A 
ATOM     26  C   UNL     1       3.146   4.382  19.343  0.00  0.00    +0.000 A 
ATOM     27  C   UNL     1       1.995   3.623  19.557  0.00  0.00    +0.000 A 
ATOM     28  C   UNL     1       1.719   2.535  18.732  0.00  0.00    +0.000 A 
ATOM     29  C   UNL     1       2.590   2.216  17.701  0.00  0.00    +0.000 A 
ATOM     30  C   UNL     1       3.741   2.976  17.501  0.00  0.00    +0.000 A 
ENDBRANCH  23  25
ENDBRANCH  19  20
ENDBRANCH   4  19
TORSDOF 4
ENDMDL
MODEL 7
REMARK VINA RESULT:      -8.8      6.626     10.249
REMARK  Name = 
REMARK  5 active torsions:
REMARK  status: ('A' for Active; 'I' for Inactive)
REMARK    1  A    between atoms: C_1  and  C_2
REMARK    2  A    between atoms: C_9  and  N_10
REMARK    3  A    between atoms: N_13  and  C_14
REMARK    4  A    between atoms: C_14  and  C_15
REMARK    5  A    between atoms: N_18  and  C_19
REMARK                            x       y       z     vdW  Elec       q    Type
REMARK                         _______ _______ _______ _____ _____    ______ ____
ROOT
ATOM      1  N   UNL     1       2.347   6.328  20.511  0.00  0.00    +0.000 N 
ATOM      2  C   UNL     1       1.944   7.642  20.508  0.00  0.00    +0.000 C 
ATOM      3  O   UNL     1       1.961   8.389  19.526  0.00  0.00    +0.000 OA
ATOM      4  N   UNL     1       1.548   8.130  21.723  0.00  0.00    +0.000 N 
ATOM      5  H   UNL     1       2.364   5.847  21.397  0.00  0.00    +0.000 HD
ATOM      6  H   UNL     1       1.535   7.538  22.549  0.00  0.00    +0.000 HD
ENDROOT
BRANCH   1  15
ATOM      7  C   UNL     1       6.484   3.882  13.643  0.00  0.00    +0.000 C 
ATOM      8  C   UNL     1       6.644   4.780  14.832  0.00  0.00    +0.000 C 
ATOM      9  O   UNL     1       7.623   5.532  14.932  0.00  0.00    +0.000 OA
ATOM     10  N   UNL     1       5.654   4.741  15.777  0.00  0.00    +0.000 N 
ATOM     11  C   UNL     1       4.457   3.885  15.824  0.00  0.00    +0.000 C 
ATOM     12  C   UNL     1       3.743   4.351  17.058  0.00  0.00    +0.000 A 
ATOM     13  C   UNL     1       2.534   3.966  17.602  0.00  0.00    +0.000 A 
ATOM     14  C   UNL     1       2.081   4.615  18.752  0.00  0.00    +0.000 A 
ATOM     15  C   UNL     1       2.829   5.648  19.368  0.00  0.00    +0.000 A 
ATOM     16  C   UNL     1       4.069   5.996  18.828  0.00  0.00    +0.000 A 
ATOM     17  C   UNL     1       4.503   5.359  17.687  0.00  0.00    +0.000 A 
ATOM     18  C   UNL     1       5.764   5.600  16.941  0.00  0.00    +0.000 C 
ENDBRANCH   1  15
BRANCH   4  19
ATOM     19  C   UNL     1       1.092   9.506  21.791  0.00  0.00    +0.000 C 
BRANCH  19  20
ATOM     20  C   UNL     1      -0.413   9.756  21.717  0.00  0.00    +0.000 C 
ATOM     21  C   UNL     1      -0.777  10.674  20.554  0.00  0.00    +0.000 C 
ATOM     22  C   UNL     1      -0.595  12.069  21.141  0.00  0.00    +0.000 C 
ATOM     23  N   UNL     1      -0.926  11.897  22.566  0.00  0.00    +0.000 N 
ATOM     24  C   UNL     1      -0.993  10.483  22.922  0.00  0.00    +0.000 C 
BRANCH  23  25
ATOM     25  C   UNL     1      -1.723  12.810  23.235  0.00  0.00    +0.000 A 
ATOM     26  C   UNL     1      -3.056  12.536  23.591  0.00  0.00    +0.000 A 
ATOM     27  C   UNL     1      -3.841  13.477  24.259  0.00  0.00    +0.000 A 
ATOM     28  C   UNL     1      -3.296  14.710  24.611  0.00  0.00    +0.000 A 
ATOM     29  C   UNL     1      -1.975  14.991  24.299  0.00  0.00    +0.000 A 
ATOM     30  C   UNL     1      -1.201  14.047  23.625  0.00  0.00    +0.000 A 
ENDBRANCH  23  25
ENDBRANCH  19  20
ENDBRANCH   4  19
TORSDOF 4
ENDMDL
MODEL 8
REMARK VINA RESULT:      -8.6      2.285     11.151
REMARK  Name = 
REMARK  5 active torsions:
REMARK  status: ('A' for Active; 'I' for Inactive)
REMARK    1  A    between atoms: C_1  and  C_2
REMARK    2  A    between atoms: C_9  and  N_10
REMARK    3  A    between atoms: N_13  and  C_14
REMARK    4  A    between atoms: C_14  and  C_15
REMARK    5  A    between atoms: N_18  and  C_19
REMARK                            x       y       z     vdW  Elec       q    Type
REMARK                         _______ _______ _______ _____ _____    ______ ____
ROOT
ATOM      1  N   UNL     1       7.179   8.339  17.125  0.00  0.00    +0.000 N 
ATOM      2  C   UNL     1       8.138   8.698  18.043  0.00  0.00    +0.000 C 
ATOM      3  O   UNL     1       8.548   7.982  18.961  0.00  0.00    +0.000 OA
ATOM      4  N   UNL     1       8.610   9.976  17.918  0.00  0.00    +0.000 N 
ATOM      5  H   UNL     1       6.869   9.043  16.473  0.00  0.00    +0.000 HD
ATOM      6  H   UNL     1       8.281  10.588  17.177  0.00  0.00    +0.000 HD
ENDROOT
BRANCH   1  15
ATOM      7  C   UNL     1       2.056   1.802  18.262  0.00  0.00    +0.000 C 
ATOM      8  C   UNL     1       2.068   3.296  18.372  0.00  0.00    +0.000 C 
ATOM      9  O   UNL     1       1.100   3.905  18.846  0.00  0.00    +0.000 OA
ATOM     10  N   UNL     1       3.196   3.942  17.944  0.00  0.00    +0.000 N 
ATOM     11  C   UNL     1       4.406   3.373  17.326  0.00  0.00    +0.000 C 
ATOM     12  C   UNL     1       5.297   4.566  17.141  0.00  0.00    +0.000 A 
ATOM     13  C   UNL     1       6.586   4.664  16.658  0.00  0.00    +0.000 A 
ATOM     14  C   UNL     1       7.202   5.916  16.644  0.00  0.00    +0.000 A 
ATOM     15  C   UNL     1       6.538   7.079  17.107  0.00  0.00    +0.000 A 
ATOM     16  C   UNL     1       5.218   6.968  17.553  0.00  0.00    +0.000 A 
ATOM     17  C   UNL     1       4.623   5.727  17.575  0.00  0.00    +0.000 A 
ATOM     18  C   UNL     1       3.254   5.388  18.038  0.00  0.00    +0.000 C 
ENDBRANCH   1  15
BRANCH   4  19
ATOM     19  C   UNL     1       9.638  10.417  18.843  0.00  0.00    +0.000 C 
BRANCH  19  20
ATOM     20  C   UNL     1      10.797  11.232  18.273  0.00  0.00    +0.000 C 
ATOM     21  C   UNL     1      11.711  11.761  19.375  0.00  0.00    +0.000 C 
ATOM     22  C   UNL     1      11.033  13.058  19.798  0.00  0.00    +0.000 C 
ATOM     23  N   UNL     1      10.391  13.539  18.563  0.00  0.00    +0.000 N 
ATOM     24  C   UNL     1      10.379  12.499  17.539  0.00  0.00    +0.000 C 
BRANCH  23  25
ATOM     25  C   UNL     1      10.458  14.869  18.187  0.00  0.00    +0.000 A 
ATOM     26  C   UNL     1      11.617  15.444  17.635  0.00  0.00    +0.000 A 
ATOM     27  C   UNL     1      11.663  16.791  17.271  0.00  0.00    +0.000 A 
ATOM     28  C   UNL     1      10.532  17.589  17.428  0.00  0.00    +0.000 A 
ATOM     29  C   UNL     1       9.367  17.038  17.941  0.00  0.00    +0.000 A 
ATOM     30  C   UNL     1       9.336  15.693  18.309  0.00  0.00    +0.000 A 
ENDBRANCH  23  25
ENDBRANCH  19  20
ENDBRANCH   4  19
TORSDOF 4
ENDMDL
MODEL 9
REMARK VINA RESULT:      -8.5      1.361      1.807
REMARK  Name = 
REMARK  5 active torsions:
REMARK  status: ('A' for Active; 'I' for Inactive)
REMARK    1  A    between atoms: C_1  and  C_2
REMARK    2  A    between atoms: C_9  and  N_10
REMARK    3  A    between atoms: N_13  and  C_14
REMARK    4  A    between atoms: C_14  and  C_15
REMARK    5  A    between atoms: N_18  and  C_19
REMARK                            x       y       z     vdW  Elec       q    Type
REMARK                         _______ _______ _______ _____ _____    ______ ____
ROOT
ATOM      1  N   UNL     1       8.047   8.591  17.142  0.00  0.00    +0.000 N 
ATOM      2  C   UNL     1       7.704   7.338  17.590  0.00  0.00    +0.000 C 
ATOM      3  O   UNL     1       7.759   6.962  18.765  0.00  0.00    +0.000 OA
ATOM      4  N   UNL     1       7.323   6.457  16.615  0.00  0.00    +0.000 N 
ATOM      5  H   UNL     1       8.037   8.750  16.147  0.00  0.00    +0.000 HD
ATOM      6  H   UNL     1       7.279   6.739  15.640  0.00  0.00    +0.000 HD
ENDROOT
BRANCH   1  15
ATOM      7  C   UNL     1      10.613  15.865  20.424  0.00  0.00    +0.000 C 
ATOM      8  C   UNL     1       9.846  15.330  19.253  0.00  0.00    +0.000 C 
ATOM      9  O   UNL     1       9.470  16.082  18.344  0.00  0.00    +0.000 OA
ATOM     10  N   UNL     1       9.605  13.983  19.232  0.00  0.00    +0.000 N 
ATOM     11  C   UNL     1       9.948  12.969  20.243  0.00  0.00    +0.000 C 
ATOM     12  C   UNL     1       9.479  11.685  19.622  0.00  0.00    +0.000 A 
ATOM     13  C   UNL     1       9.571  10.382  20.066  0.00  0.00    +0.000 A 
ATOM     14  C   UNL     1       9.086   9.361  19.247  0.00  0.00    +0.000 A 
ATOM     15  C   UNL     1       8.503   9.632  17.984  0.00  0.00    +0.000 A 
ATOM     16  C   UNL     1       8.380  10.960  17.571  0.00  0.00    +0.000 A 
ATOM     17  C   UNL     1       8.872  11.959  18.379  0.00  0.00    +0.000 A 
ATOM     18  C   UNL     1       8.872  13.421  18.113  0.00  0.00    +0.000 C 
ENDBRANCH   1  15
BRANCH   4  19
ATOM     19  C   UNL     1       6.930   5.120  17.018  0.00  0.00    +0.000 C 
BRANCH  19  20
ATOM     20  C   UNL     1       5.497   4.685  16.717  0.00  0.00    +0.000 C 
ATOM     21  C   UNL     1       4.528   5.864  16.756  0.00  0.00    +0.000 C 
ATOM     22  C   UNL     1       4.166   5.970  18.232  0.00  0.00    +0.000 C 
ATOM     23  N   UNL     1       4.241   4.580  18.713  0.00  0.00    +0.000 N 
ATOM     24  C   UNL     1       4.901   3.721  17.734  0.00  0.00    +0.000 C 
BRANCH  23  25
ATOM     25  C   UNL     1       3.267   4.050  19.541  0.00  0.00    +0.000 A 
ATOM     26  C   UNL     1       3.537   3.039  20.482  0.00  0.00    +0.000 A 
ATOM     27  C   UNL     1       2.536   2.517  21.300  0.00  0.00    +0.000 A 
ATOM     28  C   UNL     1       1.239   3.017  21.213  0.00  0.00    +0.000 A 
ATOM     29  C   UNL     1       0.954   4.036  20.317  0.00  0.00    +0.000 A 
ATOM     30  C   UNL     1       1.961   4.546  19.498  0.00  0.00    +0.000 A 
ENDBRANCH  23  25
ENDBRANCH  19  20
ENDBRANCH   4  19
TORSDOF 4
ENDMDL
