MODEL 1
REMARK VINA RESULT:      -9.5      0.000      0.000
REMARK  Name = 
REMARK  6 active torsions:
REMARK  status: ('A' for Active; 'I' for Inactive)
REMARK    1  A    between atoms: C_2  and  C_3
REMARK    2  A    between atoms: N_14  and  C_15
REMARK    3  A    between atoms: N_14  and  C_23
REMARK    4  A    between atoms: C_15  and  C_16
REMARK    5  A    between atoms: C_16  and  C_17
REMARK    6  A    between atoms: C_23  and  C_24
REMARK                            x       y       z     vdW  Elec       q    Type
REMARK                         _______ _______ _______ _____ _____    ______ ____
ROOT
ATOM      1  O   UNL     1       5.131   3.880  18.765  0.00  0.00    +0.000 OA
ATOM      2  C   UNL     1       4.986   4.867  18.044  0.00  0.00    +0.000 C 
ATOM      3  N   UNL     1       4.139   5.912  18.459  0.00  0.00    +0.000 N 
ENDROOT
BRANCH   2   4
ATOM      4  C   UNL     1       5.711   4.891  16.717  0.00  0.00    +0.000 A 
ATOM      5  C   UNL     1       5.162   4.419  15.584  0.00  0.00    +0.000 A 
ATOM      6  C   UNL     1       5.894   4.301  14.334  0.00  0.00    +0.000 A 
ATOM      7  C   UNL     1       5.423   3.486  13.303  0.00  0.00    +0.000 A 
ATOM      8  C   UNL     1       6.108   3.435  12.093  0.00  0.00    +0.000 A 
ATOM      9  C   UNL     1       7.248   4.221  11.917  0.00  0.00    +0.000 A 
ATOM     10  C   UNL     1       7.747   4.999  12.966  0.00  0.00    +0.000 A 
ATOM     11  C   UNL     1       7.078   5.009  14.189  0.00  0.00    +0.000 A 
ATOM     12  N   UNL     1       7.600   5.665  15.305  0.00  0.00    +0.000 N 
ATOM     13  C   UNL     1       7.059   5.571  16.574  0.00  0.00    +0.000 A 
ATOM     14  O   UNL     1       7.686   6.050  17.516  0.00  0.00    +0.000 OA
ATOM     15  H   UNL     1       8.484   6.150  15.247  0.00  0.00    +0.000 HD
ENDBRANCH   2   4
BRANCH   3  16
ATOM     16  C   UNL     1       3.681   7.082  17.695  0.00  0.00    +0.000 C 
BRANCH  16  17
ATOM     17  C   UNL     1       2.163   7.362  17.659  0.00  0.00    +0.000 C 
BRANCH  17  18
ATOM     18  C   UNL     1       1.784   8.617  18.426  0.00  0.00    +0.000 A 
ATOM     19  C   UNL     1       1.295   8.524  19.742  0.00  0.00    +0.000 A 
ATOM     20  C   UNL     1       0.962   9.677  20.462  0.00  0.00    +0.000 A 
ATOM     21  C   UNL     1       1.113  10.935  19.882  0.00  0.00    +0.000 A 
ATOM     22  C   UNL     1       1.601  11.044  18.586  0.00  0.00    +0.000 A 
ATOM     23  C   UNL     1       1.940   9.895  17.870  0.00  0.00    +0.000 A 
ENDBRANCH  17  18
ENDBRANCH  16  17
ENDBRANCH   3  16
BRANCH   3  24
ATOM     24  C   UNL     1       3.587   5.814  19.821  0.00  0.00    +0.000 C 
BRANCH  24  25
ATOM     25  C   UNL     1       2.577   4.710  20.048  0.00  0.00    +0.000 A 
ATOM     26  C   UNL     1       1.758   4.217  19.019  0.00  0.00    +0.000 A 
ATOM     27  C   UNL     1       0.921   3.114  19.248  0.00  0.00    +0.000 A 
ATOM     28  C   UNL     1       0.885   2.507  20.502  0.00  0.00    +0.000 A 
ATOM     29  C   UNL     1       1.670   3.005  21.537  0.00  0.00    +0.000 A 
ATOM     30  C   UNL     1       2.506   4.098  21.311  0.00  0.00    +0.000 A 
ENDBRANCH  24  25
ENDBRANCH   3  24
TORSDOF 6
ENDMDL
MODEL 2
REMARK VINA RESULT:      -9.5      0.625      1.042
REMARK  Name = 
REMARK  6 active torsions:
REMARK  status: ('A' for Active; 'I' for Inactive)
REMARK    1  A    between atoms: C_2  and  C_3
REMARK    2  A    between atoms: N_14  and  C_15
REMARK    3  A    between atoms: N_14  and  C_23
REMARK    4  A    between atoms: C_15  and  C_16
REMARK    5  A    between atoms: C_16  and  C_17
REMARK    6  A    between atoms: C_23  and  C_24
REMARK                            x       y       z     vdW  Elec       q    Type
REMARK                         _______ _______ _______ _____ _____    ______ ____
ROOT
ATOM      1  O   UNL     1       5.511   3.951  18.927  0.00  0.00    +0.000 OA
ATOM      2  C   UNL     1       5.109   4.781  18.112  0.00  0.00    +0.000 C 
ATOM      3  N   UNL     1       4.017   5.605  18.441  0.00  0.00    +0.000 N 
ENDROOT
BRANCH   2   4
ATOM      4  C   UNL     1       5.801   4.850  16.769  0.00  0.00    +0.000 A 
ATOM      5  C   UNL     1       5.256   4.346  15.648  0.00  0.00    +0.000 A 
ATOM      6  C   UNL     1       5.965   4.275  14.381  0.00  0.00    +0.000 A 
ATOM      7  C   UNL     1       5.521   3.433  13.359  0.00  0.00    +0.000 A 
ATOM      8  C   UNL     1       6.181   3.426  12.134  0.00  0.00    +0.000 A 
ATOM      9  C   UNL     1       7.266   4.280  11.934  0.00  0.00    +0.000 A 
ATOM     10  C   UNL     1       7.740   5.087  12.973  0.00  0.00    +0.000 A 
ATOM     11  C   UNL     1       7.100   5.055  14.211  0.00  0.00    +0.000 A 
ATOM     12  N   UNL     1       7.606   5.741  15.316  0.00  0.00    +0.000 N 
ATOM     13  C   UNL     1       7.101   5.613  16.597  0.00  0.00    +0.000 A 
ATOM     14  O   UNL     1       7.719   6.128  17.525  0.00  0.00    +0.000 OA
ATOM     15  H   UNL     1       8.457   6.279  15.239  0.00  0.00    +0.000 HD
ENDBRANCH   2   4
BRANCH   3  16
ATOM     16  C   UNL     1       3.265   6.524  17.573  0.00  0.00    +0.000 C 
BRANCH  16  17
ATOM     17  C   UNL     1       3.420   8.039  17.832  0.00  0.00    +0.000 C 
BRANCH  17  18
ATOM     18  C   UNL     1       2.185   8.648  18.473  0.00  0.00    +0.000 A 
ATOM     19  C   UNL     1       1.313   9.449  17.712  0.00  0.00    +0.000 A 
ATOM     20  C   UNL     1       0.164  10.000  18.291  0.00  0.00    +0.000 A 
ATOM     21  C   UNL     1      -0.133   9.758  19.631  0.00  0.00    +0.000 A 
ATOM     22  C   UNL     1       0.715   8.964  20.393  0.00  0.00    +0.000 A 
ATOM     23  C   UNL     1       1.857   8.409  19.815  0.00  0.00    +0.000 A 
ENDBRANCH  17  18
ENDBRANCH  16  17
ENDBRANCH   3  16
BRANCH   3  24
ATOM     24  C   UNL     1       3.512   5.513  19.821  0.00  0.00    +0.000 C 
BRANCH  24  25
ATOM     25  C   UNL     1       2.466   4.450  20.075  0.00  0.00    +0.000 A 
ATOM     26  C   UNL     1       1.630   3.960  19.058  0.00  0.00    +0.000 A 
ATOM     27  C   UNL     1       0.757   2.892  19.313  0.00  0.00    +0.000 A 
ATOM     28  C   UNL     1       0.701   2.317  20.581  0.00  0.00    +0.000 A 
ATOM     29  C   UNL     1       1.502   2.814  21.604  0.00  0.00    +0.000 A 
ATOM     30  C   UNL     1       2.374   3.872  21.352  0.00  0.00    +0.000 A 
ENDBRANCH  24  25
ENDBRANCH   3  24
TORSDOF 6
ENDMDL
MODEL 3
REMARK VINA RESULT:      -9.4      0.190      1.277
REMARK  Name = 
REMARK  6 active torsions:
REMARK  status: ('A' for Active; 'I' for Inactive)
REMARK    1  A    between atoms: C_2  and  C_3
REMARK    2  A    between atoms: N_14  and  C_15
REMARK    3  A    between atoms: N_14  and  C_23
REMARK    4  A    between atoms: C_15  and  C_16
REMARK    5  A    between atoms: C_16  and  C_17
REMARK    6  A    between atoms: C_23  and  C_24
REMARK                            x       y       z     vdW  Elec       q    Type
REMARK                         _______ _______ _______ _____ _____    ______ ____
ROOT
ATOM      1  O   UNL     1       5.303   3.732  18.734  0.00  0.00    +0.000 OA
ATOM      2  C   UNL     1       5.131   4.742  18.052  0.00  0.00    +0.000 C 
ATOM      3  N   UNL     1       4.289   5.765  18.527  0.00  0.00    +0.000 N 
ENDROOT
BRANCH   2   4
ATOM      4  C   UNL     1       5.819   4.817  16.707  0.00  0.00    +0.000 A 
ATOM      5  C   UNL     1       5.273   4.315  15.587  0.00  0.00    +0.000 A 
ATOM      6  C   UNL     1       5.979   4.249  14.317  0.00  0.00    +0.000 A 
ATOM      7  C   UNL     1       5.534   3.409  13.294  0.00  0.00    +0.000 A 
ATOM      8  C   UNL     1       6.190   3.407  12.067  0.00  0.00    +0.000 A 
ATOM      9  C   UNL     1       7.273   4.264  11.867  0.00  0.00    +0.000 A 
ATOM     10  C   UNL     1       7.747   5.069  12.907  0.00  0.00    +0.000 A 
ATOM     11  C   UNL     1       7.111   5.032  14.147  0.00  0.00    +0.000 A 
ATOM     12  N   UNL     1       7.618   5.716  15.252  0.00  0.00    +0.000 N 
ATOM     13  C   UNL     1       7.117   5.583  16.534  0.00  0.00    +0.000 A 
ATOM     14  O   UNL     1       7.735   6.097  17.462  0.00  0.00    +0.000 OA
ATOM     15  H   UNL     1       8.467   6.257  15.174  0.00  0.00    +0.000 HD
ENDBRANCH   2   4
BRANCH   3  16
ATOM     16  C   UNL     1       3.803   6.957  17.816  0.00  0.00    +0.000 C 
BRANCH  16  17
ATOM     17  C   UNL     1       2.276   7.181  17.758  0.00  0.00    +0.000 C 
BRANCH  17  18
ATOM     18  C   UNL     1       1.839   8.419  18.522  0.00  0.00    +0.000 A 
ATOM     19  C   UNL     1       1.817   9.674  17.887  0.00  0.00    +0.000 A 
ATOM     20  C   UNL     1       1.399  10.816  18.579  0.00  0.00    +0.000 A 
ATOM     21  C   UNL     1       0.996  10.723  19.910  0.00  0.00    +0.000 A 
ATOM     22  C   UNL     1       1.006   9.490  20.549  0.00  0.00    +0.000 A 
ATOM     23  C   UNL     1       1.416   8.349  19.858  0.00  0.00    +0.000 A 
ENDBRANCH  17  18
ENDBRANCH  16  17
ENDBRANCH   3  16
BRANCH   3  24
ATOM     24  C   UNL     1       3.776   5.616  19.898  0.00  0.00    +0.000 C 
BRANCH  24  25
ATOM     25  C   UNL     1       2.768   4.507  20.112  0.00  0.00    +0.000 A 
ATOM     26  C   UNL     1       2.621   3.852  21.346  0.00  0.00    +0.000 A 
ATOM     27  C   UNL     1       1.596   2.913  21.530  0.00  0.00    +0.000 A 
ATOM     28  C   UNL     1       0.722   2.612  20.488  0.00  0.00    +0.000 A 
ATOM     29  C   UNL     1       0.876   3.232  19.252  0.00  0.00    +0.000 A 
ATOM     30  C   UNL     1       1.892   4.169  19.067  0.00  0.00    +0.000 A 
ENDBRANCH  24  25
ENDBRANCH   3  24
TORSDOF 6
ENDMDL
MODEL 4
REMARK VINA RESULT:      -9.3      0.597      1.093
REMARK  Name = 
REMARK  6 active torsions:
REMARK  status: ('A' for Active; 'I' for Inactive)
REMARK    1  A    between atoms: C_2  and  C_3
REMARK    2  A    between atoms: N_14  and  C_15
REMARK    3  A    between atoms: N_14  and  C_23
REMARK    4  A    between atoms: C_15  and  C_16
REMARK    5  A    between atoms: C_16  and  C_17
REMARK    6  A    between atoms: C_23  and  C_24
REMARK                            x       y       z     vdW  Elec       q    Type
REMARK                         _______ _______ _______ _____ _____    ______ ____
ROOT
ATOM      1  O   UNL     1       5.880   3.872  18.923  0.00  0.00    +0.000 OA
ATOM      2  C   UNL     1       5.347   4.634  18.116  0.00  0.00    +0.000 C 
ATOM      3  N   UNL     1       4.186   5.338  18.487  0.00  0.00    +0.000 N 
ENDROOT
BRANCH   2   4
ATOM      4  C   UNL     1       5.960   4.750  16.738  0.00  0.00    +0.000 A 
ATOM      5  C   UNL     1       5.377   4.233  15.642  0.00  0.00    +0.000 A 
ATOM      6  C   UNL     1       6.018   4.208  14.337  0.00  0.00    +0.000 A 
ATOM      7  C   UNL     1       5.557   3.358  13.330  0.00  0.00    +0.000 A 
ATOM      8  C   UNL     1       6.147   3.395  12.071  0.00  0.00    +0.000 A 
ATOM      9  C   UNL     1       7.179   4.301  11.823  0.00  0.00    +0.000 A 
ATOM     10  C   UNL     1       7.673   5.117  12.845  0.00  0.00    +0.000 A 
ATOM     11  C   UNL     1       7.104   5.042  14.116  0.00  0.00    +0.000 A 
ATOM     12  N   UNL     1       7.639   5.739  15.201  0.00  0.00    +0.000 N 
ATOM     13  C   UNL     1       7.212   5.574  16.506  0.00  0.00    +0.000 A 
ATOM     14  O   UNL     1       7.855   6.107  17.405  0.00  0.00    +0.000 OA
ATOM     15  H   UNL     1       8.458   6.317  15.084  0.00  0.00    +0.000 HD
ENDBRANCH   2   4
BRANCH   3  16
ATOM     16  C   UNL     1       3.294   6.147  17.643  0.00  0.00    +0.000 C 
BRANCH  16  17
ATOM     17  C   UNL     1       3.500   7.677  17.649  0.00  0.00    +0.000 C 
BRANCH  17  18
ATOM     18  C   UNL     1       2.398   8.410  18.395  0.00  0.00    +0.000 A 
ATOM     19  C   UNL     1       1.986   7.967  19.665  0.00  0.00    +0.000 A 
ATOM     20  C   UNL     1       0.985   8.648  20.367  0.00  0.00    +0.000 A 
ATOM     21  C   UNL     1       0.384   9.778  19.815  0.00  0.00    +0.000 A 
ATOM     22  C   UNL     1       0.785  10.232  18.564  0.00  0.00    +0.000 A 
ATOM     23  C   UNL     1       1.788   9.557  17.867  0.00  0.00    +0.000 A 
ENDBRANCH  17  18
ENDBRANCH  16  17
ENDBRANCH   3  16
BRANCH   3  24
ATOM     24  C   UNL     1       3.763   5.221  19.893  0.00  0.00    +0.000 C 
BRANCH  24  25
ATOM     25  C   UNL     1       2.720   4.165  20.186  0.00  0.00    +0.000 A 
ATOM     26  C   UNL     1       2.398   3.769  21.494  0.00  0.00    +0.000 A 
ATOM     27  C   UNL     1       1.343   2.873  21.723  0.00  0.00    +0.000 A 
ATOM     28  C   UNL     1       0.614   2.358  20.654  0.00  0.00    +0.000 A 
ATOM     29  C   UNL     1       0.943   2.720  19.351  0.00  0.00    +0.000 A 
ATOM     30  C   UNL     1       1.988   3.614  19.121  0.00  0.00    +0.000 A 
ENDBRANCH  24  25
ENDBRANCH   3  24
TORSDOF 6
ENDMDL
MODEL 5
REMARK VINA RESULT:      -9.1      1.297      7.228
REMARK  Name = 
REMARK  6 active torsions:
REMARK  status: ('A' for Active; 'I' for Inactive)
REMARK    1  A    between atoms: C_2  and  C_3
REMARK    2  A    between atoms: N_14  and  C_15
REMARK    3  A    between atoms: N_14  and  C_23
REMARK    4  A    between atoms: C_15  and  C_16
REMARK    5  A    between atoms: C_16  and  C_17
REMARK    6  A    between atoms: C_23  and  C_24
REMARK                            x       y       z     vdW  Elec       q    Type
REMARK                         _______ _______ _______ _____ _____    ______ ____
ROOT
ATOM      1  O   UNL     1       6.579   6.912  16.949  0.00  0.00    +0.000 OA
ATOM      2  C   UNL     1       5.606   6.177  17.118  0.00  0.00    +0.000 C 
ATOM      3  N   UNL     1       5.595   4.894  16.540  0.00  0.00    +0.000 N 
ENDROOT
BRANCH   2   4
ATOM      4  C   UNL     1       4.443   6.713  17.924  0.00  0.00    +0.000 A 
ATOM      5  C   UNL     1       3.562   7.595  17.423  0.00  0.00    +0.000 A 
ATOM      6  C   UNL     1       2.527   8.229  18.224  0.00  0.00    +0.000 A 
ATOM      7  C   UNL     1       1.883   9.384  17.777  0.00  0.00    +0.000 A 
ATOM      8  C   UNL     1       0.854   9.939  18.532  0.00  0.00    +0.000 A 
ATOM      9  C   UNL     1       0.462   9.317  19.718  0.00  0.00    +0.000 A 
ATOM     10  C   UNL     1       1.139   8.188  20.189  0.00  0.00    +0.000 A 
ATOM     11  C   UNL     1       2.198   7.665  19.448  0.00  0.00    +0.000 A 
ATOM     12  N   UNL     1       2.987   6.621  19.932  0.00  0.00    +0.000 N 
ATOM     13  C   UNL     1       4.140   6.177  19.310  0.00  0.00    +0.000 A 
ATOM     14  O   UNL     1       4.850   5.368  19.901  0.00  0.00    +0.000 OA
ATOM     15  H   UNL     1       2.804   6.221  20.841  0.00  0.00    +0.000 HD
ENDBRANCH   2   4
BRANCH   3  16
ATOM     16  C   UNL     1       4.485   3.933  16.459  0.00  0.00    +0.000 C 
BRANCH  16  17
ATOM     17  C   UNL     1       4.410   2.835  17.543  0.00  0.00    +0.000 C 
BRANCH  17  18
ATOM     18  C   UNL     1       3.156   2.942  18.393  0.00  0.00    +0.000 A 
ATOM     19  C   UNL     1       2.018   3.606  17.899  0.00  0.00    +0.000 A 
ATOM     20  C   UNL     1       0.853   3.693  18.669  0.00  0.00    +0.000 A 
ATOM     21  C   UNL     1       0.805   3.118  19.937  0.00  0.00    +0.000 A 
ATOM     22  C   UNL     1       1.918   2.453  20.437  0.00  0.00    +0.000 A 
ATOM     23  C   UNL     1       3.078   2.360  19.666  0.00  0.00    +0.000 A 
ENDBRANCH  17  18
ENDBRANCH  16  17
ENDBRANCH   3  16
BRANCH   3  24
ATOM     24  C   UNL     1       6.836   4.457  15.879  0.00  0.00    +0.000 C 
BRANCH  24  25
ATOM     25  C   UNL     1       6.819   4.462  14.366  0.00  0.00    +0.000 A 
ATOM     26  C   UNL     1       7.628   5.324  13.608  0.00  0.00    +0.000 A 
ATOM     27  C   UNL     1       7.665   5.212  12.210  0.00  0.00    +0.000 A 
ATOM     28  C   UNL     1       6.890   4.254  11.561  0.00  0.00    +0.000 A 
ATOM     29  C   UNL     1       6.063   3.414  12.299  0.00  0.00    +0.000 A 
ATOM     30  C   UNL     1       6.027   3.520  13.689  0.00  0.00    +0.000 A 
ENDBRANCH  24  25
ENDBRANCH   3  24
TORSDOF 6
ENDMDL
MODEL 6
REMARK VINA RESULT:      -8.9      1.346      7.037
REMARK  Name = 
REMARK  6 active torsions:
REMARK  status: ('A' for Active; 'I' for Inactive)
REMARK    1  A    between atoms: C_2  and  C_3
REMARK    2  A    between atoms: N_14  and  C_15
REMARK    3  A    between atoms: N_14  and  C_23
REMARK    4  A    between atoms: C_15  and  C_16
REMARK    5  A    between atoms: C_16  and  C_17
REMARK    6  A    between atoms: C_23  and  C_24
REMARK                            x       y       z     vdW  Elec       q    Type
REMARK                         _______ _______ _______ _____ _____    ______ ____
ROOT
ATOM      1  O   UNL     1       6.061   6.849  16.173  0.00  0.00    +0.000 OA
ATOM      2  C   UNL     1       5.430   6.029  16.839  0.00  0.00    +0.000 C 
ATOM      3  N   UNL     1       5.679   4.654  16.666  0.00  0.00    +0.000 N 
ENDROOT
BRANCH   2   4
ATOM      4  C   UNL     1       4.383   6.548  17.801  0.00  0.00    +0.000 A 
ATOM      5  C   UNL     1       3.372   7.342  17.409  0.00  0.00    +0.000 A 
ATOM      6  C   UNL     1       2.444   7.965  18.339  0.00  0.00    +0.000 A 
ATOM      7  C   UNL     1       1.656   9.049  17.945  0.00  0.00    +0.000 A 
ATOM      8  C   UNL     1       0.732   9.591  18.832  0.00  0.00    +0.000 A 
ATOM      9  C   UNL     1       0.588   9.027  20.101  0.00  0.00    +0.000 A 
ATOM     10  C   UNL     1       1.410   7.974  20.512  0.00  0.00    +0.000 A 
ATOM     11  C   UNL     1       2.364   7.466  19.630  0.00  0.00    +0.000 A 
ATOM     12  N   UNL     1       3.293   6.505  20.030  0.00  0.00    +0.000 N 
ATOM     13  C   UNL     1       4.354   6.089  19.246  0.00  0.00    +0.000 A 
ATOM     14  O   UNL     1       5.207   5.364  19.751  0.00  0.00    +0.000 OA
ATOM     15  H   UNL     1       3.293   6.156  20.978  0.00  0.00    +0.000 HD
ENDBRANCH   2   4
BRANCH   3  16
ATOM     16  C   UNL     1       4.933   3.510  17.210  0.00  0.00    +0.000 C 
BRANCH  16  17
ATOM     17  C   UNL     1       3.402   3.495  17.010  0.00  0.00    +0.000 C 
BRANCH  17  18
ATOM     18  C   UNL     1       2.645   3.333  18.317  0.00  0.00    +0.000 A 
ATOM     19  C   UNL     1       3.203   2.588  19.372  0.00  0.00    +0.000 A 
ATOM     20  C   UNL     1       2.520   2.450  20.586  0.00  0.00    +0.000 A 
ATOM     21  C   UNL     1       1.277   3.054  20.765  0.00  0.00    +0.000 A 
ATOM     22  C   UNL     1       0.716   3.798  19.735  0.00  0.00    +0.000 A 
ATOM     23  C   UNL     1       1.399   3.942  18.527  0.00  0.00    +0.000 A 
ENDBRANCH  17  18
ENDBRANCH  16  17
ENDBRANCH   3  16
BRANCH   3  24
ATOM     24  C   UNL     1       6.801   4.293  15.784  0.00  0.00    +0.000 C 
BRANCH  24  25
ATOM     25  C   UNL     1       6.481   4.200  14.308  0.00  0.00    +0.000 A 
ATOM     26  C   UNL     1       7.414   4.539  13.314  0.00  0.00    +0.000 A 
ATOM     27  C   UNL     1       7.114   4.326  11.960  0.00  0.00    +0.000 A 
ATOM     28  C   UNL     1       5.884   3.789  11.589  0.00  0.00    +0.000 A 
ATOM     29  C   UNL     1       4.941   3.477  12.563  0.00  0.00    +0.000 A 
ATOM     30  C   UNL     1       5.237   3.683  13.909  0.00  0.00    +0.000 A 
ENDBRANCH  24  25
ENDBRANCH   3  24
TORSDOF 6
ENDMDL
MODEL 7
REMARK VINA RESULT:      -8.8      1.304      7.122
REMARK  Name = 
REMARK  6 active torsions:
REMARK  status: ('A' for Active; 'I' for Inactive)
REMARK    1  A    between atoms: C_2  and  C_3
REMARK    2  A    between atoms: N_14  and  C_15
REMARK    3  A    between atoms: N_14  and  C_23
REMARK    4  A    between atoms: C_15  and  C_16
REMARK    5  A    between atoms: C_16  and  C_17
REMARK    6  A    between atoms: C_23  and  C_24
REMARK                            x       y       z     vdW  Elec       q    Type
REMARK                         _______ _______ _______ _____ _____    ______ ____
ROOT
ATOM      1  O   UNL     1       6.550   6.779  16.968  0.00  0.00    +0.000 OA
ATOM      2  C   UNL     1       5.555   6.077  17.150  0.00  0.00    +0.000 C 
ATOM      3  N   UNL     1       5.511   4.780  16.605  0.00  0.00    +0.000 N 
ENDROOT
BRANCH   2   4
ATOM      4  C   UNL     1       4.404   6.666  17.936  0.00  0.00    +0.000 A 
ATOM      5  C   UNL     1       3.548   7.556  17.406  0.00  0.00    +0.000 A 
ATOM      6  C   UNL     1       2.527   8.239  18.183  0.00  0.00    +0.000 A 
ATOM      7  C   UNL     1       1.915   9.397  17.700  0.00  0.00    +0.000 A 
ATOM      8  C   UNL     1       0.898  10.000  18.435  0.00  0.00    +0.000 A 
ATOM      9  C   UNL     1       0.486   9.423  19.637  0.00  0.00    +0.000 A 
ATOM     10  C   UNL     1       1.133   8.292  20.144  0.00  0.00    +0.000 A 
ATOM     11  C   UNL     1       2.179   7.720  19.422  0.00  0.00    +0.000 A 
ATOM     12  N   UNL     1       2.940   6.671  19.940  0.00  0.00    +0.000 N 
ATOM     13  C   UNL     1       4.083   6.179  19.336  0.00  0.00    +0.000 A 
ATOM     14  O   UNL     1       4.770   5.370  19.953  0.00  0.00    +0.000 OA
ATOM     15  H   UNL     1       2.744   6.302  20.859  0.00  0.00    +0.000 HD
ENDBRANCH   2   4
BRANCH   3  16
ATOM     16  C   UNL     1       4.375   3.849  16.542  0.00  0.00    +0.000 C 
BRANCH  16  17
ATOM     17  C   UNL     1       4.315   2.723  17.598  0.00  0.00    +0.000 C 
BRANCH  17  18
ATOM     18  C   UNL     1       3.163   2.899  18.571  0.00  0.00    +0.000 A 
ATOM     19  C   UNL     1       3.285   2.459  19.902  0.00  0.00    +0.000 A 
ATOM     20  C   UNL     1       2.234   2.634  20.810  0.00  0.00    +0.000 A 
ATOM     21  C   UNL     1       1.051   3.249  20.405  0.00  0.00    +0.000 A 
ATOM     22  C   UNL     1       0.917   3.694  19.096  0.00  0.00    +0.000 A 
ATOM     23  C   UNL     1       1.967   3.527  18.192  0.00  0.00    +0.000 A 
ENDBRANCH  17  18
ENDBRANCH  16  17
ENDBRANCH   3  16
BRANCH   3  24
ATOM     24  C   UNL     1       6.743   4.291  15.963  0.00  0.00    +0.000 C 
BRANCH  24  25
ATOM     25  C   UNL     1       6.720   4.225  14.451  0.00  0.00    +0.000 A 
ATOM     26  C   UNL     1       5.806   3.424  13.748  0.00  0.00    +0.000 A 
ATOM     27  C   UNL     1       5.745   3.484  12.347  0.00  0.00    +0.000 A 
ATOM     28  C   UNL     1       6.599   4.328  11.642  0.00  0.00    +0.000 A 
ATOM     29  C   UNL     1       7.529   5.104  12.326  0.00  0.00    +0.000 A 
ATOM     30  C   UNL     1       7.590   5.050  13.718  0.00  0.00    +0.000 A 
ENDBRANCH  24  25
ENDBRANCH   3  24
TORSDOF 6
ENDMDL
MODEL 8
REMARK VINA RESULT:      -8.7      1.374      7.064
REMARK  Name = 
REMARK  6 active torsions:
REMARK  status: ('A' for Active; 'I' for Inactive)
REMARK    1  A    between atoms: C_2  and  C_3
REMARK    2  A    between atoms: N_14  and  C_15
REMARK    3  A    between atoms: N_14  and  C_23
REMARK    4  A    between atoms: C_15  and  C_16
REMARK    5  A    between atoms: C_16  and  C_17
REMARK    6  A    between atoms: C_23  and  C_24
REMARK                            x       y       z     vdW  Elec       q    Type
REMARK                         _______ _______ _______ _____ _____    ______ ____
ROOT
ATOM      1  O   UNL     1       6.023   6.939  16.130  0.00  0.00    +0.000 OA
ATOM      2  C   UNL     1       5.394   6.090  16.761  0.00  0.00    +0.000 C 
ATOM      3  N   UNL     1       5.623   4.725  16.508  0.00  0.00    +0.000 N 
ENDROOT
BRANCH   2   4
ATOM      4  C   UNL     1       4.369   6.567  17.766  0.00  0.00    +0.000 A 
ATOM      5  C   UNL     1       3.333   7.352  17.426  0.00  0.00    +0.000 A 
ATOM      6  C   UNL     1       2.423   7.937  18.398  0.00  0.00    +0.000 A 
ATOM      7  C   UNL     1       1.606   9.015  18.055  0.00  0.00    +0.000 A 
ATOM      8  C   UNL     1       0.701   9.519  18.984  0.00  0.00    +0.000 A 
ATOM      9  C   UNL     1       0.605   8.923  20.242  0.00  0.00    +0.000 A 
ATOM     10  C   UNL     1       1.458   7.875  20.601  0.00  0.00    +0.000 A 
ATOM     11  C   UNL     1       2.392   7.405  19.679  0.00  0.00    +0.000 A 
ATOM     12  N   UNL     1       3.349   6.451  20.026  0.00  0.00    +0.000 N 
ATOM     13  C   UNL     1       4.392   6.073  19.200  0.00  0.00    +0.000 A 
ATOM     14  O   UNL     1       5.273   5.351  19.660  0.00  0.00    +0.000 OA
ATOM     15  H   UNL     1       3.384   6.079  20.964  0.00  0.00    +0.000 HD
ENDBRANCH   2   4
BRANCH   3  16
ATOM     16  C   UNL     1       4.873   3.561  17.001  0.00  0.00    +0.000 C 
BRANCH  16  17
ATOM     17  C   UNL     1       3.333   3.606  16.894  0.00  0.00    +0.000 C 
BRANCH  17  18
ATOM     18  C   UNL     1       2.650   3.393  18.234  0.00  0.00    +0.000 A 
ATOM     19  C   UNL     1       1.385   3.956  18.484  0.00  0.00    +0.000 A 
ATOM     20  C   UNL     1       0.741   3.748  19.709  0.00  0.00    +0.000 A 
ATOM     21  C   UNL     1       1.347   2.977  20.698  0.00  0.00    +0.000 A 
ATOM     22  C   UNL     1       2.593   2.408  20.465  0.00  0.00    +0.000 A 
ATOM     23  C   UNL     1       3.232   2.609  19.241  0.00  0.00    +0.000 A 
ENDBRANCH  17  18
ENDBRANCH  16  17
ENDBRANCH   3  16
BRANCH   3  24
ATOM     24  C   UNL     1       6.727   4.400  15.589  0.00  0.00    +0.000 C 
BRANCH  24  25
ATOM     25  C   UNL     1       6.327   4.019  14.180  0.00  0.00    +0.000 A 
ATOM     26  C   UNL     1       4.993   3.758  13.822  0.00  0.00    +0.000 A 
ATOM     27  C   UNL     1       4.654   3.524  12.481  0.00  0.00    +0.000 A 
ATOM     28  C   UNL     1       5.638   3.534  11.495  0.00  0.00    +0.000 A 
ATOM     29  C   UNL     1       6.966   3.761  11.842  0.00  0.00    +0.000 A 
ATOM     30  C   UNL     1       7.306   3.999  13.173  0.00  0.00    +0.000 A 
ENDBRANCH  24  25
ENDBRANCH   3  24
TORSDOF 6
ENDMDL
MODEL 9
REMARK VINA RESULT:      -8.5      1.123      4.384
REMARK  Name = 
REMARK  6 active torsions:
REMARK  status: ('A' for Active; 'I' for Inactive)
REMARK    1  A    between atoms: C_2  and  C_3
REMARK    2  A    between atoms: N_14  and  C_15
REMARK    3  A    between atoms: N_14  and  C_23
REMARK    4  A    between atoms: C_15  and  C_16
REMARK    5  A    between atoms: C_16  and  C_17
REMARK    6  A    between atoms: C_23  and  C_24
REMARK                            x       y       z     vdW  Elec       q    Type
REMARK                         _______ _______ _______ _____ _____    ______ ____
ROOT
ATOM      1  O   UNL     1       5.675   6.346  18.685  0.00  0.00    +0.000 OA
ATOM      2  C   UNL     1       5.008   5.789  17.814  0.00  0.00    +0.000 C 
ATOM      3  N   UNL     1       3.662   5.467  18.071  0.00  0.00    +0.000 N 
ENDROOT
BRANCH   2   4
ATOM      4  C   UNL     1       5.688   5.448  16.507  0.00  0.00    +0.000 A 
ATOM      5  C   UNL     1       5.023   4.929  15.460  0.00  0.00    +0.000 A 
ATOM      6  C   UNL     1       5.682   4.462  14.251  0.00  0.00    +0.000 A 
ATOM      7  C   UNL     1       5.024   3.612  13.360  0.00  0.00    +0.000 A 
ATOM      8  C   UNL     1       5.653   3.226  12.180  0.00  0.00    +0.000 A 
ATOM      9  C   UNL     1       6.927   3.715  11.891  0.00  0.00    +0.000 A 
ATOM     10  C   UNL     1       7.605   4.526  12.806  0.00  0.00    +0.000 A 
ATOM     11  C   UNL     1       6.984   4.872  14.005  0.00  0.00    +0.000 A 
ATOM     12  N   UNL     1       7.661   5.571  15.006  0.00  0.00    +0.000 N 
ATOM     13  C   UNL     1       7.145   5.796  16.269  0.00  0.00    +0.000 A 
ATOM     14  O   UNL     1       7.882   6.275  17.127  0.00  0.00    +0.000 OA
ATOM     15  H   UNL     1       8.625   5.842  14.878  0.00  0.00    +0.000 HD
ENDBRANCH   2   4
BRANCH   3  16
ATOM     16  C   UNL     1       2.742   4.654  17.261  0.00  0.00    +0.000 C 
BRANCH  16  17
ATOM     17  C   UNL     1       2.620   3.154  17.608  0.00  0.00    +0.000 C 
BRANCH  17  18
ATOM     18  C   UNL     1       2.375   2.916  19.088  0.00  0.00    +0.000 A 
ATOM     19  C   UNL     1       3.421   2.477  19.918  0.00  0.00    +0.000 A 
ATOM     20  C   UNL     1       3.208   2.273  21.287  0.00  0.00    +0.000 A 
ATOM     21  C   UNL     1       1.953   2.507  21.844  0.00  0.00    +0.000 A 
ATOM     22  C   UNL     1       0.910   2.948  21.038  0.00  0.00    +0.000 A 
ATOM     23  C   UNL     1       1.124   3.158  19.675  0.00  0.00    +0.000 A 
ENDBRANCH  17  18
ENDBRANCH  16  17
ENDBRANCH   3  16
BRANCH   3  24
ATOM     24  C   UNL     1       3.095   5.958  19.338  0.00  0.00    +0.000 C 
BRANCH  24  25
ATOM     25  C   UNL     1       2.307   7.247  19.256  0.00  0.00    +0.000 A 
ATOM     26  C   UNL     1       1.683   7.819  20.377  0.00  0.00    +0.000 A 
ATOM     27  C   UNL     1       1.063   9.074  20.278  0.00  0.00    +0.000 A 
ATOM     28  C   UNL     1       1.050   9.757  19.064  0.00  0.00    +0.000 A 
ATOM     29  C   UNL     1       1.638   9.187  17.940  0.00  0.00    +0.000 A 
ATOM     30  C   UNL     1       2.258   7.942  18.036  0.00  0.00    +0.000 A 
ENDBRANCH  24  25
ENDBRANCH   3  24
TORSDOF 6
ENDMDL
