MODEL 1
REMARK VINA RESULT:      -9.5      0.000      0.000
REMARK  Name = 
REMARK  4 active torsions:
REMARK  status: ('A' for Active; 'I' for Inactive)
REMARK    1  A    between atoms: S_2  and  N_4
REMARK    2  A    between atoms: S_2  and  C_16
REMARK    3  A    between atoms: C_8  and  C_9
REMARK    4  A    between atoms: C_21  and  C_22
REMARK                            x       y       z     vdW  Elec       q    Type
REMARK                         _______ _______ _______ _____ _____    ______ ____
ROOT
ATOM      1  O   UNL     1       6.580   4.139  18.296  0.00  0.00    +0.000 OA
ATOM      2  S   UNL     1       5.477   5.052  18.520  0.00  0.00    +0.000 S 
ATOM      3  O   UNL     1       5.364   5.851  19.728  0.00  0.00    +0.000 OA
ENDROOT
BRANCH   2   4
ATOM      4  N   UNL     1       5.468   6.188  17.260  0.00  0.00    +0.000 N 
ATOM      5  C   UNL     1       6.092   5.632  16.122  0.00  0.00    +0.000 A 
ATOM      6  N   UNL     1       7.328   5.922  15.788  0.00  0.00    +0.000 NA
ATOM      7  N   UNL     1       7.591   5.221  14.627  0.00  0.00    +0.000 NA
ATOM      8  C   UNL     1       6.475   4.602  14.303  0.00  0.00    +0.000 A 
ATOM      9  O   UNL     1       5.471   4.812  15.219  0.00  0.00    +0.000 OA
ATOM     10  H   UNL     1       6.024   6.972  17.605  0.00  0.00    +0.000 HD
BRANCH   8  11
ATOM     11  C   UNL     1       6.161   3.813  13.111  0.00  0.00    +0.000 A 
ATOM     12  C   UNL     1       4.830   3.735  12.670  0.00  0.00    +0.000 A 
ATOM     13  C   UNL     1       4.480   2.955  11.565  0.00  0.00    +0.000 A 
ATOM     14  C   UNL     1       5.462   2.250  10.876  0.00  0.00    +0.000 A 
ATOM     15  C   UNL     1       6.789   2.322  11.293  0.00  0.00    +0.000 A 
ATOM     16  C   UNL     1       7.138   3.100  12.403  0.00  0.00    +0.000 A 
ENDBRANCH   8  11
ENDBRANCH   2   4
BRANCH   2  17
ATOM     17  C   UNL     1       3.968   4.116  18.366  0.00  0.00    +0.000 A 
ATOM     18  C   UNL     1       4.098   2.754  18.017  0.00  0.00    +0.000 A 
ATOM     19  C   UNL     1       2.983   1.925  17.941  0.00  0.00    +0.000 A 
ATOM     20  C   UNL     1       1.733   2.437  18.238  0.00  0.00    +0.000 A 
ATOM     21  C   UNL     1       1.594   3.790  18.577  0.00  0.00    +0.000 A 
ATOM     22  C   UNL     1       2.693   4.689  18.620  0.00  0.00    +0.000 A 
BRANCH  22  23
ATOM     23  C   UNL     1       2.377   6.138  18.854  0.00  0.00    +0.000 A 
ATOM     24  C   UNL     1       2.425   7.127  17.862  0.00  0.00    +0.000 A 
ATOM     25  C   UNL     1       2.027   8.450  18.097  0.00  0.00    +0.000 A 
ATOM     26  C   UNL     1       1.667   8.854  19.375  0.00  0.00    +0.000 A 
ATOM     27  C   UNL     1       1.701   7.930  20.408  0.00  0.00    +0.000 A 
ATOM     28  C   UNL     1       2.028   6.594  20.146  0.00  0.00    +0.000 A 
ENDBRANCH  22  23
ENDBRANCH   2  17
TORSDOF 4
ENDMDL
MODEL 2
REMARK VINA RESULT:      -9.2      0.089      1.307
REMARK  Name = 
REMARK  4 active torsions:
REMARK  status: ('A' for Active; 'I' for Inactive)
REMARK    1  A    between atoms: S_2  and  N_4
REMARK    2  A    between atoms: S_2  and  C_16
REMARK    3  A    between atoms: C_8  and  C_9
REMARK    4  A    between atoms: C_21  and  C_22
REMARK                            x       y       z     vdW  Elec       q    Type
REMARK                         _______ _______ _______ _____ _____    ______ ____
ROOT
ATOM      1  O   UNL     1       6.579   4.201  18.409  0.00  0.00    +0.000 OA
ATOM      2  S   UNL     1       5.452   5.092  18.592  0.00  0.00    +0.000 S 
ATOM      3  O   UNL     1       5.286   5.897  19.789  0.00  0.00    +0.000 OA
ENDROOT
BRANCH   2   4
ATOM      4  N   UNL     1       5.457   6.219  17.323  0.00  0.00    +0.000 N 
ATOM      5  C   UNL     1       6.066   5.643  16.186  0.00  0.00    +0.000 A 
ATOM      6  N   UNL     1       7.305   5.908  15.845  0.00  0.00    +0.000 NA
ATOM      7  N   UNL     1       7.550   5.193  14.687  0.00  0.00    +0.000 NA
ATOM      8  C   UNL     1       6.421   4.593  14.374  0.00  0.00    +0.000 A 
ATOM      9  O   UNL     1       5.426   4.828  15.293  0.00  0.00    +0.000 OA
ATOM     10  H   UNL     1       6.029   6.995  17.660  0.00  0.00    +0.000 HD
BRANCH   8  11
ATOM     11  C   UNL     1       6.087   3.801  13.189  0.00  0.00    +0.000 A 
ATOM     12  C   UNL     1       7.114   3.155  12.482  0.00  0.00    +0.000 A 
ATOM     13  C   UNL     1       6.845   2.429  11.319  0.00  0.00    +0.000 A 
ATOM     14  C   UNL     1       5.538   2.327  10.853  0.00  0.00    +0.000 A 
ATOM     15  C   UNL     1       4.504   2.953  11.546  0.00  0.00    +0.000 A 
ATOM     16  C   UNL     1       4.776   3.685  12.708  0.00  0.00    +0.000 A 
ENDBRANCH   8  11
ENDBRANCH   2   4
BRANCH   2  17
ATOM     17  C   UNL     1       3.968   4.124  18.399  0.00  0.00    +0.000 A 
ATOM     18  C   UNL     1       4.135   2.771  18.033  0.00  0.00    +0.000 A 
ATOM     19  C   UNL     1       3.041   1.917  17.926  0.00  0.00    +0.000 A 
ATOM     20  C   UNL     1       1.775   2.395  18.210  0.00  0.00    +0.000 A 
ATOM     21  C   UNL     1       1.599   3.739  18.567  0.00  0.00    +0.000 A 
ATOM     22  C   UNL     1       2.675   4.663  18.641  0.00  0.00    +0.000 A 
BRANCH  22  23
ATOM     23  C   UNL     1       2.322   6.101  18.891  0.00  0.00    +0.000 A 
ATOM     24  C   UNL     1       1.957   6.619  20.140  0.00  0.00    +0.000 A 
ATOM     25  C   UNL     1       1.731   7.985  20.353  0.00  0.00    +0.000 A 
ATOM     26  C   UNL     1       1.759   8.872  19.286  0.00  0.00    +0.000 A 
ATOM     27  C   UNL     1       2.019   8.386  18.013  0.00  0.00    +0.000 A 
ATOM     28  C   UNL     1       2.316   7.031  17.825  0.00  0.00    +0.000 A 
ENDBRANCH  22  23
ENDBRANCH   2  17
TORSDOF 4
ENDMDL
MODEL 3
REMARK VINA RESULT:      -7.8      3.933      8.755
REMARK  Name = 
REMARK  4 active torsions:
REMARK  status: ('A' for Active; 'I' for Inactive)
REMARK    1  A    between atoms: S_2  and  N_4
REMARK    2  A    between atoms: S_2  and  C_16
REMARK    3  A    between atoms: C_8  and  C_9
REMARK    4  A    between atoms: C_21  and  C_22
REMARK                            x       y       z     vdW  Elec       q    Type
REMARK                         _______ _______ _______ _____ _____    ______ ____
ROOT
ATOM      1  O   UNL     1       2.637   6.792  19.850  0.00  0.00    +0.000 OA
ATOM      2  S   UNL     1       2.747   6.945  18.413  0.00  0.00    +0.000 S 
ATOM      3  O   UNL     1       1.755   6.408  17.498  0.00  0.00    +0.000 OA
ENDROOT
BRANCH   2   4
ATOM      4  N   UNL     1       2.791   8.605  18.061  0.00  0.00    +0.000 N 
ATOM      5  C   UNL     1       1.572   9.200  18.451  0.00  0.00    +0.000 A 
ATOM      6  N   UNL     1       0.624   9.487  17.589  0.00  0.00    +0.000 NA
ATOM      7  N   UNL     1      -0.398  10.069  18.315  0.00  0.00    +0.000 NA
ATOM      8  C   UNL     1       0.027  10.151  19.559  0.00  0.00    +0.000 A 
ATOM      9  O   UNL     1       1.279   9.606  19.724  0.00  0.00    +0.000 OA
ATOM     10  H   UNL     1       2.887   8.657  17.046  0.00  0.00    +0.000 HD
BRANCH   8  11
ATOM     11  C   UNL     1      -0.605  10.781  20.718  0.00  0.00    +0.000 A 
ATOM     12  C   UNL     1      -0.394  10.238  21.996  0.00  0.00    +0.000 A 
ATOM     13  C   UNL     1      -1.017  10.779  23.124  0.00  0.00    +0.000 A 
ATOM     14  C   UNL     1      -1.852  11.884  22.989  0.00  0.00    +0.000 A 
ATOM     15  C   UNL     1      -2.067  12.442  21.731  0.00  0.00    +0.000 A 
ATOM     16  C   UNL     1      -1.447  11.895  20.602  0.00  0.00    +0.000 A 
ENDBRANCH   8  11
ENDBRANCH   2   4
BRANCH   2  17
ATOM     17  C   UNL     1       4.328   6.283  17.923  0.00  0.00    +0.000 A 
ATOM     18  C   UNL     1       5.257   7.196  17.379  0.00  0.00    +0.000 A 
ATOM     19  C   UNL     1       6.542   6.788  17.031  0.00  0.00    +0.000 A 
ATOM     20  C   UNL     1       6.921   5.477  17.249  0.00  0.00    +0.000 A 
ATOM     21  C   UNL     1       6.002   4.562  17.781  0.00  0.00    +0.000 A 
ATOM     22  C   UNL     1       4.665   4.915  18.105  0.00  0.00    +0.000 A 
BRANCH  22  23
ATOM     23  C   UNL     1       3.750   3.801  18.528  0.00  0.00    +0.000 A 
ATOM     24  C   UNL     1       3.603   3.359  19.849  0.00  0.00    +0.000 A 
ATOM     25  C   UNL     1       2.666   2.384  20.218  0.00  0.00    +0.000 A 
ATOM     26  C   UNL     1       1.913   1.738  19.247  0.00  0.00    +0.000 A 
ATOM     27  C   UNL     1       2.098   2.075  17.915  0.00  0.00    +0.000 A 
ATOM     28  C   UNL     1       2.984   3.102  17.566  0.00  0.00    +0.000 A 
ENDBRANCH  22  23
ENDBRANCH   2  17
TORSDOF 4
ENDMDL
MODEL 4
REMARK VINA RESULT:      -7.7      2.693      8.049
REMARK  Name = 
REMARK  4 active torsions:
REMARK  status: ('A' for Active; 'I' for Inactive)
REMARK    1  A    between atoms: S_2  and  N_4
REMARK    2  A    between atoms: S_2  and  C_16
REMARK    3  A    between atoms: C_8  and  C_9
REMARK    4  A    between atoms: C_21  and  C_22
REMARK                            x       y       z     vdW  Elec       q    Type
REMARK                         _______ _______ _______ _____ _____    ______ ____
ROOT
ATOM      1  O   UNL     1       4.216   7.969  17.118  0.00  0.00    +0.000 OA
ATOM      2  S   UNL     1       4.146   6.668  17.752  0.00  0.00    +0.000 S 
ATOM      3  O   UNL     1       4.746   6.404  19.048  0.00  0.00    +0.000 OA
ENDROOT
BRANCH   2   4
ATOM      4  N   UNL     1       2.509   6.267  17.956  0.00  0.00    +0.000 N 
ATOM      5  C   UNL     1       2.053   6.771  19.193  0.00  0.00    +0.000 A 
ATOM      6  N   UNL     1       1.920   6.010  20.255  0.00  0.00    +0.000 NA
ATOM      7  N   UNL     1       1.439   6.827  21.260  0.00  0.00    +0.000 NA
ATOM      8  C   UNL     1       1.254   8.014  20.721  0.00  0.00    +0.000 A 
ATOM      9  O   UNL     1       1.634   8.057  19.400  0.00  0.00    +0.000 OA
ATOM     10  H   UNL     1       2.487   5.246  17.974  0.00  0.00    +0.000 HD
BRANCH   8  11
ATOM     11  C   UNL     1       0.659   9.217  21.303  0.00  0.00    +0.000 A 
ATOM     12  C   UNL     1      -0.083   9.112  22.490  0.00  0.00    +0.000 A 
ATOM     13  C   UNL     1      -0.708  10.228  23.054  0.00  0.00    +0.000 A 
ATOM     14  C   UNL     1      -0.587  11.471  22.442  0.00  0.00    +0.000 A 
ATOM     15  C   UNL     1       0.152  11.598  21.268  0.00  0.00    +0.000 A 
ATOM     16  C   UNL     1       0.773  10.478  20.702  0.00  0.00    +0.000 A 
ENDBRANCH   8  11
ENDBRANCH   2   4
BRANCH   2  17
ATOM     17  C   UNL     1       4.818   5.478  16.609  0.00  0.00    +0.000 A 
ATOM     18  C   UNL     1       5.549   5.990  15.515  0.00  0.00    +0.000 A 
ATOM     19  C   UNL     1       6.172   5.138  14.608  0.00  0.00    +0.000 A 
ATOM     20  C   UNL     1       6.095   3.770  14.796  0.00  0.00    +0.000 A 
ATOM     21  C   UNL     1       5.364   3.253  15.875  0.00  0.00    +0.000 A 
ATOM     22  C   UNL     1       4.669   4.077  16.799  0.00  0.00    +0.000 A 
BRANCH  22  23
ATOM     23  C   UNL     1       3.809   3.384  17.816  0.00  0.00    +0.000 A 
ATOM     24  C   UNL     1       4.204   3.115  19.133  0.00  0.00    +0.000 A 
ATOM     25  C   UNL     1       3.337   2.556  20.081  0.00  0.00    +0.000 A 
ATOM     26  C   UNL     1       2.065   2.145  19.706  0.00  0.00    +0.000 A 
ATOM     27  C   UNL     1       1.667   2.302  18.387  0.00  0.00    +0.000 A 
ATOM     28  C   UNL     1       2.516   2.930  17.467  0.00  0.00    +0.000 A 
ENDBRANCH  22  23
ENDBRANCH   2  17
TORSDOF 4
ENDMDL
MODEL 5
REMARK VINA RESULT:      -7.7      1.392      3.418
REMARK  Name = 
REMARK  4 active torsions:
REMARK  status: ('A' for Active; 'I' for Inactive)
REMARK    1  A    between atoms: S_2  and  N_4
REMARK    2  A    between atoms: S_2  and  C_16
REMARK    3  A    between atoms: C_8  and  C_9
REMARK    4  A    between atoms: C_21  and  C_22
REMARK                            x       y       z     vdW  Elec       q    Type
REMARK                         _______ _______ _______ _____ _____    ______ ____
ROOT
ATOM      1  O   UNL     1       3.349   4.806  17.044  0.00  0.00    +0.000 OA
ATOM      2  S   UNL     1       4.126   5.857  17.668  0.00  0.00    +0.000 S 
ATOM      3  O   UNL     1       5.192   5.577  18.614  0.00  0.00    +0.000 OA
ENDROOT
BRANCH   2   4
ATOM      4  N   UNL     1       4.876   6.759  16.441  0.00  0.00    +0.000 N 
ATOM      5  C   UNL     1       5.684   5.905  15.659  0.00  0.00    +0.000 A 
ATOM      6  N   UNL     1       6.986   5.842  15.807  0.00  0.00    +0.000 NA
ATOM      7  N   UNL     1       7.440   4.929  14.873  0.00  0.00    +0.000 NA
ATOM      8  C   UNL     1       6.386   4.549  14.181  0.00  0.00    +0.000 A 
ATOM      9  O   UNL     1       5.223   5.126  14.632  0.00  0.00    +0.000 OA
ATOM     10  H   UNL     1       5.467   7.433  16.930  0.00  0.00    +0.000 HD
BRANCH   8  11
ATOM     11  C   UNL     1       6.310   3.684  13.003  0.00  0.00    +0.000 A 
ATOM     12  C   UNL     1       5.053   3.276  12.530  0.00  0.00    +0.000 A 
ATOM     13  C   UNL     1       4.937   2.412  11.437  0.00  0.00    +0.000 A 
ATOM     14  C   UNL     1       6.082   1.954  10.793  0.00  0.00    +0.000 A 
ATOM     15  C   UNL     1       7.338   2.354  11.243  0.00  0.00    +0.000 A 
ATOM     16  C   UNL     1       7.453   3.215  12.340  0.00  0.00    +0.000 A 
ENDBRANCH   8  11
ENDBRANCH   2   4
BRANCH   2  17
ATOM     17  C   UNL     1       2.983   6.961  18.476  0.00  0.00    +0.000 A 
ATOM     18  C   UNL     1       3.040   8.321  18.101  0.00  0.00    +0.000 A 
ATOM     19  C   UNL     1       2.142   9.246  18.625  0.00  0.00    +0.000 A 
ATOM     20  C   UNL     1       1.163   8.821  19.504  0.00  0.00    +0.000 A 
ATOM     21  C   UNL     1       1.104   7.474  19.889  0.00  0.00    +0.000 A 
ATOM     22  C   UNL     1       2.027   6.501  19.423  0.00  0.00    +0.000 A 
BRANCH  22  23
ATOM     23  C   UNL     1       1.936   5.131  20.030  0.00  0.00    +0.000 A 
ATOM     24  C   UNL     1       2.559   4.754  21.227  0.00  0.00    +0.000 A 
ATOM     25  C   UNL     1       2.369   3.495  21.812  0.00  0.00    +0.000 A 
ATOM     26  C   UNL     1       1.624   2.526  21.155  0.00  0.00    +0.000 A 
ATOM     27  C   UNL     1       1.070   2.824  19.919  0.00  0.00    +0.000 A 
ATOM     28  C   UNL     1       1.206   4.109  19.379  0.00  0.00    +0.000 A 
ENDBRANCH  22  23
ENDBRANCH   2  17
TORSDOF 4
ENDMDL
MODEL 6
REMARK VINA RESULT:      -7.7      4.458      7.474
REMARK  Name = 
REMARK  4 active torsions:
REMARK  status: ('A' for Active; 'I' for Inactive)
REMARK    1  A    between atoms: S_2  and  N_4
REMARK    2  A    between atoms: S_2  and  C_16
REMARK    3  A    between atoms: C_8  and  C_9
REMARK    4  A    between atoms: C_21  and  C_22
REMARK                            x       y       z     vdW  Elec       q    Type
REMARK                         _______ _______ _______ _____ _____    ______ ____
ROOT
ATOM      1  O   UNL     1       0.762   9.304  19.877  0.00  0.00    +0.000 OA
ATOM      2  S   UNL     1       0.762  10.230  18.764  0.00  0.00    +0.000 S 
ATOM      3  O   UNL     1       1.452  11.507  18.816  0.00  0.00    +0.000 OA
ENDROOT
BRANCH   2   4
ATOM      4  N   UNL     1       1.435   9.441  17.420  0.00  0.00    +0.000 N 
ATOM      5  C   UNL     1       2.053   8.243  17.840  0.00  0.00    +0.000 A 
ATOM      6  N   UNL     1       3.352   8.143  18.000  0.00  0.00    +0.000 NA
ATOM      7  N   UNL     1       3.595   6.840  18.393  0.00  0.00    +0.000 NA
ATOM      8  C   UNL     1       2.432   6.224  18.383  0.00  0.00    +0.000 A 
ATOM      9  O   UNL     1       1.394   7.062  18.047  0.00  0.00    +0.000 OA
ATOM     10  H   UNL     1       2.144  10.083  17.063  0.00  0.00    +0.000 HD
BRANCH   8  11
ATOM     11  C   UNL     1       2.127   4.810  18.607  0.00  0.00    +0.000 A 
ATOM     12  C   UNL     1       2.529   3.861  17.654  0.00  0.00    +0.000 A 
ATOM     13  C   UNL     1       2.217   2.507  17.806  0.00  0.00    +0.000 A 
ATOM     14  C   UNL     1       1.505   2.082  18.923  0.00  0.00    +0.000 A 
ATOM     15  C   UNL     1       1.104   3.008  19.884  0.00  0.00    +0.000 A 
ATOM     16  C   UNL     1       1.414   4.364  19.729  0.00  0.00    +0.000 A 
ENDBRANCH   8  11
ENDBRANCH   2   4
BRANCH   2  17
ATOM     17  C   UNL     1      -0.938  10.569  18.349  0.00  0.00    +0.000 A 
ATOM     18  C   UNL     1      -1.453   9.925  17.203  0.00  0.00    +0.000 A 
ATOM     19  C   UNL     1      -2.788  10.072  16.838  0.00  0.00    +0.000 A 
ATOM     20  C   UNL     1      -3.628  10.837  17.626  0.00  0.00    +0.000 A 
ATOM     21  C   UNL     1      -3.124  11.486  18.761  0.00  0.00    +0.000 A 
ATOM     22  C   UNL     1      -1.759  11.410  19.148  0.00  0.00    +0.000 A 
BRANCH  22  23
ATOM     23  C   UNL     1      -1.329  12.273  20.299  0.00  0.00    +0.000 A 
ATOM     24  C   UNL     1      -0.938  13.613  20.179  0.00  0.00    +0.000 A 
ATOM     25  C   UNL     1      -0.638  14.414  21.289  0.00  0.00    +0.000 A 
ATOM     26  C   UNL     1      -0.618  13.862  22.562  0.00  0.00    +0.000 A 
ATOM     27  C   UNL     1      -0.903  12.513  22.717  0.00  0.00    +0.000 A 
ATOM     28  C   UNL     1      -1.273  11.741  21.608  0.00  0.00    +0.000 A 
ENDBRANCH  22  23
ENDBRANCH   2  17
TORSDOF 4
ENDMDL
MODEL 7
REMARK VINA RESULT:      -7.6      2.793      7.589
REMARK  Name = 
REMARK  4 active torsions:
REMARK  status: ('A' for Active; 'I' for Inactive)
REMARK    1  A    between atoms: S_2  and  N_4
REMARK    2  A    between atoms: S_2  and  C_16
REMARK    3  A    between atoms: C_8  and  C_9
REMARK    4  A    between atoms: C_21  and  C_22
REMARK                            x       y       z     vdW  Elec       q    Type
REMARK                         _______ _______ _______ _____ _____    ______ ____
ROOT
ATOM      1  O   UNL     1       4.596   7.885  17.433  0.00  0.00    +0.000 OA
ATOM      2  S   UNL     1       4.391   6.550  17.958  0.00  0.00    +0.000 S 
ATOM      3  O   UNL     1       4.973   6.113  19.215  0.00  0.00    +0.000 OA
ENDROOT
BRANCH   2   4
ATOM      4  N   UNL     1       2.723   6.311  18.159  0.00  0.00    +0.000 N 
ATOM      5  C   UNL     1       2.159   7.445  18.785  0.00  0.00    +0.000 A 
ATOM      6  N   UNL     1       1.867   7.467  20.065  0.00  0.00    +0.000 NA
ATOM      7  N   UNL     1       1.322   8.711  20.318  0.00  0.00    +0.000 NA
ATOM      8  C   UNL     1       1.263   9.335  19.159  0.00  0.00    +0.000 A 
ATOM      9  O   UNL     1       1.789   8.588  18.131  0.00  0.00    +0.000 OA
ATOM     10  H   UNL     1       2.643   5.504  18.780  0.00  0.00    +0.000 HD
BRANCH   8  11
ATOM     11  C   UNL     1       0.673  10.633  18.832  0.00  0.00    +0.000 A 
ATOM     12  C   UNL     1       1.485  11.779  18.839  0.00  0.00    +0.000 A 
ATOM     13  C   UNL     1       0.952  13.044  18.578  0.00  0.00    +0.000 A 
ATOM     14  C   UNL     1      -0.403  13.179  18.294  0.00  0.00    +0.000 A 
ATOM     15  C   UNL     1      -1.223  12.053  18.274  0.00  0.00    +0.000 A 
ATOM     16  C   UNL     1      -0.689  10.787  18.540  0.00  0.00    +0.000 A 
ENDBRANCH   8  11
ENDBRANCH   2   4
BRANCH   2  17
ATOM     17  C   UNL     1       4.918   5.396  16.706  0.00  0.00    +0.000 A 
ATOM     18  C   UNL     1       5.656   5.925  15.625  0.00  0.00    +0.000 A 
ATOM     19  C   UNL     1       6.170   5.093  14.634  0.00  0.00    +0.000 A 
ATOM     20  C   UNL     1       5.978   3.727  14.726  0.00  0.00    +0.000 A 
ATOM     21  C   UNL     1       5.239   3.194  15.791  0.00  0.00    +0.000 A 
ATOM     22  C   UNL     1       4.651   4.003  16.800  0.00  0.00    +0.000 A 
BRANCH  22  23
ATOM     23  C   UNL     1       3.765   3.312  17.796  0.00  0.00    +0.000 A 
ATOM     24  C   UNL     1       4.174   2.921  19.078  0.00  0.00    +0.000 A 
ATOM     25  C   UNL     1       3.291   2.368  20.015  0.00  0.00    +0.000 A 
ATOM     26  C   UNL     1       1.980   2.087  19.657  0.00  0.00    +0.000 A 
ATOM     27  C   UNL     1       1.559   2.367  18.365  0.00  0.00    +0.000 A 
ATOM     28  C   UNL     1       2.430   2.987  17.461  0.00  0.00    +0.000 A 
ENDBRANCH  22  23
ENDBRANCH   2  17
TORSDOF 4
ENDMDL
MODEL 8
REMARK VINA RESULT:      -7.6      3.949      8.730
REMARK  Name = 
REMARK  4 active torsions:
REMARK  status: ('A' for Active; 'I' for Inactive)
REMARK    1  A    between atoms: S_2  and  N_4
REMARK    2  A    between atoms: S_2  and  C_16
REMARK    3  A    between atoms: C_8  and  C_9
REMARK    4  A    between atoms: C_21  and  C_22
REMARK                            x       y       z     vdW  Elec       q    Type
REMARK                         _______ _______ _______ _____ _____    ______ ____
ROOT
ATOM      1  O   UNL     1       2.611   6.814  19.865  0.00  0.00    +0.000 OA
ATOM      2  S   UNL     1       2.725   6.982  18.431  0.00  0.00    +0.000 S 
ATOM      3  O   UNL     1       1.739   6.449  17.507  0.00  0.00    +0.000 OA
ENDROOT
BRANCH   2   4
ATOM      4  N   UNL     1       2.763   8.645  18.094  0.00  0.00    +0.000 N 
ATOM      5  C   UNL     1       1.538   9.230  18.481  0.00  0.00    +0.000 A 
ATOM      6  N   UNL     1       0.595   9.521  17.616  0.00  0.00    +0.000 NA
ATOM      7  N   UNL     1      -0.435  10.090  18.341  0.00  0.00    +0.000 NA
ATOM      8  C   UNL     1      -0.019  10.162  19.588  0.00  0.00    +0.000 A 
ATOM      9  O   UNL     1       1.235   9.623  19.757  0.00  0.00    +0.000 OA
ATOM     10  H   UNL     1       2.865   8.708  17.080  0.00  0.00    +0.000 HD
BRANCH   8  11
ATOM     11  C   UNL     1      -0.662  10.778  20.749  0.00  0.00    +0.000 A 
ATOM     12  C   UNL     1      -1.476  11.908  20.565  0.00  0.00    +0.000 A 
ATOM     13  C   UNL     1      -2.070  12.556  21.651  0.00  0.00    +0.000 A 
ATOM     14  C   UNL     1      -1.868  12.072  22.940  0.00  0.00    +0.000 A 
ATOM     15  C   UNL     1      -1.071  10.947  23.142  0.00  0.00    +0.000 A 
ATOM     16  C   UNL     1      -0.472  10.303  22.053  0.00  0.00    +0.000 A 
ENDBRANCH   8  11
ENDBRANCH   2   4
BRANCH   2  17
ATOM     17  C   UNL     1       4.310   6.332  17.940  0.00  0.00    +0.000 A 
ATOM     18  C   UNL     1       5.251   7.260  17.443  0.00  0.00    +0.000 A 
ATOM     19  C   UNL     1       6.539   6.860  17.100  0.00  0.00    +0.000 A 
ATOM     20  C   UNL     1       6.910   5.540  17.275  0.00  0.00    +0.000 A 
ATOM     21  C   UNL     1       5.980   4.609  17.759  0.00  0.00    +0.000 A 
ATOM     22  C   UNL     1       4.640   4.956  18.076  0.00  0.00    +0.000 A 
BRANCH  22  23
ATOM     23  C   UNL     1       3.715   3.832  18.444  0.00  0.00    +0.000 A 
ATOM     24  C   UNL     1       2.953   3.102  17.522  0.00  0.00    +0.000 A 
ATOM     25  C   UNL     1       2.178   1.995  17.894  0.00  0.00    +0.000 A 
ATOM     26  C   UNL     1       2.056   1.646  19.231  0.00  0.00    +0.000 A 
ATOM     27  C   UNL     1       2.715   2.403  20.189  0.00  0.00    +0.000 A 
ATOM     28  C   UNL     1       3.545   3.461  19.798  0.00  0.00    +0.000 A 
ENDBRANCH  22  23
ENDBRANCH   2  17
TORSDOF 4
ENDMDL
MODEL 9
REMARK VINA RESULT:      -7.5      4.461      7.480
REMARK  Name = 
REMARK  4 active torsions:
REMARK  status: ('A' for Active; 'I' for Inactive)
REMARK    1  A    between atoms: S_2  and  N_4
REMARK    2  A    between atoms: S_2  and  C_16
REMARK    3  A    between atoms: C_8  and  C_9
REMARK    4  A    between atoms: C_21  and  C_22
REMARK                            x       y       z     vdW  Elec       q    Type
REMARK                         _______ _______ _______ _____ _____    ______ ____
ROOT
ATOM      1  O   UNL     1       0.942   9.408  19.938  0.00  0.00    +0.000 OA
ATOM      2  S   UNL     1       0.882  10.323  18.816  0.00  0.00    +0.000 S 
ATOM      3  O   UNL     1       1.512  11.631  18.847  0.00  0.00    +0.000 OA
ENDROOT
BRANCH   2   4
ATOM      4  N   UNL     1       1.572   9.553  17.470  0.00  0.00    +0.000 N 
ATOM      5  C   UNL     1       2.139   8.324  17.872  0.00  0.00    +0.000 A 
ATOM      6  N   UNL     1       3.429   8.177  18.068  0.00  0.00    +0.000 NA
ATOM      7  N   UNL     1       3.620   6.856  18.428  0.00  0.00    +0.000 NA
ATOM      8  C   UNL     1       2.438   6.278  18.364  0.00  0.00    +0.000 A 
ATOM      9  O   UNL     1       1.439   7.158  18.022  0.00  0.00    +0.000 OA
ATOM     10  H   UNL     1       2.312  10.183  17.155  0.00  0.00    +0.000 HD
BRANCH   8  11
ATOM     11  C   UNL     1       2.083   4.869  18.535  0.00  0.00    +0.000 A 
ATOM     12  C   UNL     1       1.333   4.480  19.657  0.00  0.00    +0.000 A 
ATOM     13  C   UNL     1       1.013   3.139  19.883  0.00  0.00    +0.000 A 
ATOM     14  C   UNL     1       1.429   2.167  18.979  0.00  0.00    +0.000 A 
ATOM     15  C   UNL     1       2.166   2.533  17.856  0.00  0.00    +0.000 A 
ATOM     16  C   UNL     1       2.490   3.876  17.633  0.00  0.00    +0.000 A 
ENDBRANCH   8  11
ENDBRANCH   2   4
BRANCH   2  17
ATOM     17  C   UNL     1      -0.838  10.577  18.424  0.00  0.00    +0.000 A 
ATOM     18  C   UNL     1      -1.355   9.845  17.333  0.00  0.00    +0.000 A 
ATOM     19  C   UNL     1      -2.703   9.923  16.994  0.00  0.00    +0.000 A 
ATOM     20  C   UNL     1      -3.551  10.707  17.753  0.00  0.00    +0.000 A 
ATOM     21  C   UNL     1      -3.044  11.444  18.832  0.00  0.00    +0.000 A 
ATOM     22  C   UNL     1      -1.670  11.439  19.189  0.00  0.00    +0.000 A 
BRANCH  22  23
ATOM     23  C   UNL     1      -1.244  12.387  20.273  0.00  0.00    +0.000 A 
ATOM     24  C   UNL     1      -1.119  12.038  21.624  0.00  0.00    +0.000 A 
ATOM     25  C   UNL     1      -0.623  12.924  22.589  0.00  0.00    +0.000 A 
ATOM     26  C   UNL     1      -0.335  14.238  22.247  0.00  0.00    +0.000 A 
ATOM     27  C   UNL     1      -0.539  14.655  20.940  0.00  0.00    +0.000 A 
ATOM     28  C   UNL     1      -0.964  13.740  19.968  0.00  0.00    +0.000 A 
ENDBRANCH  22  23
ENDBRANCH   2  17
TORSDOF 4
ENDMDL
