MODEL 1
REMARK VINA RESULT:      -8.5      0.000      0.000
REMARK  Name = 
REMARK  5 active torsions:
REMARK  status: ('A' for Active; 'I' for Inactive)
REMARK    1  A    between atoms: C_1  and  C_2
REMARK    2  A    between atoms: C_2  and  C_3
REMARK    3  A    between atoms: C_6  and  N_7
REMARK    4  A    between atoms: N_7  and  S_8
REMARK    5  A    between atoms: S_8  and  C_11
REMARK                            x       y       z     vdW  Elec       q    Type
REMARK                         _______ _______ _______ _____ _____    ______ ____
ROOT
ATOM      1  C   UNL     1       1.328   9.214  19.203  0.00  0.00    +0.000 A 
ATOM      2  C   UNL     1       2.108   8.395  18.363  0.00  0.00    +0.000 A 
ATOM      3  C   UNL     1       2.604   7.164  18.813  0.00  0.00    +0.000 A 
ATOM      4  C   UNL     1       2.297   6.721  20.093  0.00  0.00    +0.000 A 
ATOM      5  C   UNL     1       1.496   7.496  20.925  0.00  0.00    +0.000 A 
ATOM      6  C   UNL     1       1.010   8.727  20.484  0.00  0.00    +0.000 A 
ENDROOT
BRANCH   1   8
ATOM      7  C   UNL     1       1.953  11.449  18.204  0.00  0.00    +0.000 C 
ATOM      8  C   UNL     1       0.821  10.581  18.739  0.00  0.00    +0.000 C 
ATOM      9  N   UNL     1      -0.256  10.441  17.773  0.00  0.00    +0.000 N 
ATOM     10  C   UNL     1      -1.488  10.699  18.317  0.00  0.00    +0.000 C 
ATOM     11  O   UNL     1      -2.550  10.537  17.741  0.00  0.00    +0.000 OA
ATOM     12  N   UNL     1      -1.317  11.188  19.561  0.00  0.00    +0.000 N 
ATOM     13  C   UNL     1       0.009  11.315  19.839  0.00  0.00    +0.000 C 
ATOM     14  O   UNL     1       0.458  11.884  20.825  0.00  0.00    +0.000 OA
ATOM     15  H   UNL     1      -0.181  10.027  16.854  0.00  0.00    +0.000 HD
ATOM     16  H   UNL     1      -2.062  11.548  20.131  0.00  0.00    +0.000 HD
ENDBRANCH   1   8
BRANCH   4  17
ATOM     17  N   UNL     1       2.827   5.499  20.592  0.00  0.00    +0.000 N 
ATOM     18  H   UNL     1       2.652   5.285  21.574  0.00  0.00    +0.000 HD
BRANCH  17  19
ATOM     19  S   UNL     1       2.639   4.108  19.645  0.00  0.00    +0.000 S 
ATOM     20  O   UNL     1       2.954   2.986  20.501  0.00  0.00    +0.000 OA
ATOM     21  O   UNL     1       1.376   4.185  18.945  0.00  0.00    +0.000 OA
BRANCH  19  22
ATOM     22  C   UNL     1       3.957   4.235  18.461  0.00  0.00    +0.000 A 
ATOM     23  C   UNL     1       3.713   3.951  17.115  0.00  0.00    +0.000 A 
ATOM     24  C   UNL     1       4.752   4.076  16.189  0.00  0.00    +0.000 A 
ATOM     25  C   UNL     1       6.022   4.489  16.607  0.00  0.00    +0.000 A 
ATOM     26 CL   UNL     1       7.254   4.635  15.404  0.00  0.00    +0.000 Cl
ATOM     27  C   UNL     1       6.257   4.771  17.960  0.00  0.00    +0.000 A 
ATOM     28 CL   UNL     1       7.792   5.313  18.538  0.00  0.00    +0.000 Cl
ATOM     29  C   UNL     1       5.225   4.634  18.892  0.00  0.00    +0.000 A 
ENDBRANCH  19  22
ENDBRANCH  17  19
ENDBRANCH   4  17
TORSDOF 4
ENDMDL
MODEL 2
REMARK VINA RESULT:      -8.3      4.794      8.562
REMARK  Name = 
REMARK  5 active torsions:
REMARK  status: ('A' for Active; 'I' for Inactive)
REMARK    1  A    between atoms: C_1  and  C_2
REMARK    2  A    between atoms: C_2  and  C_3
REMARK    3  A    between atoms: C_6  and  N_7
REMARK    4  A    between atoms: N_7  and  S_8
REMARK    5  A    between atoms: S_8  and  C_11
REMARK                            x       y       z     vdW  Elec       q    Type
REMARK                         _______ _______ _______ _____ _____    ______ ____
ROOT
ATOM      1  C   UNL     1       4.320   5.675  18.111  0.00  0.00    +0.000 A 
ATOM      2  C   UNL     1       4.636   6.968  17.651  0.00  0.00    +0.000 A 
ATOM      3  C   UNL     1       3.639   7.940  17.488  0.00  0.00    +0.000 A 
ATOM      4  C   UNL     1       2.322   7.642  17.816  0.00  0.00    +0.000 A 
ATOM      5  C   UNL     1       1.995   6.383  18.309  0.00  0.00    +0.000 A 
ATOM      6  C   UNL     1       2.984   5.411  18.462  0.00  0.00    +0.000 A 
ENDROOT
BRANCH   1   8
ATOM      7  C   UNL     1       4.917   3.435  19.117  0.00  0.00    +0.000 C 
ATOM      8  C   UNL     1       5.392   4.591  18.247  0.00  0.00    +0.000 C 
ATOM      9  N   UNL     1       5.846   4.136  16.944  0.00  0.00    +0.000 N 
ATOM     10  C   UNL     1       7.076   4.641  16.607  0.00  0.00    +0.000 C 
ATOM     11  O   UNL     1       7.614   4.498  15.524  0.00  0.00    +0.000 OA
ATOM     12  N   UNL     1       7.588   5.279  17.679  0.00  0.00    +0.000 N 
ATOM     13  C   UNL     1       6.748   5.161  18.743  0.00  0.00    +0.000 C 
ATOM     14  O   UNL     1       7.028   5.496  19.886  0.00  0.00    +0.000 OA
ATOM     15  H   UNL     1       5.286   3.658  16.252  0.00  0.00    +0.000 HD
ATOM     16  H   UNL     1       8.521   5.649  17.720  0.00  0.00    +0.000 HD
ENDBRANCH   1   8
BRANCH   4  17
ATOM     17  N   UNL     1       1.284   8.593  17.615  0.00  0.00    +0.000 N 
ATOM     18  H   UNL     1       0.359   8.227  17.388  0.00  0.00    +0.000 HD
BRANCH  17  19
ATOM     19  S   UNL     1       1.156   9.872  18.716  0.00  0.00    +0.000 S 
ATOM     20  O   UNL     1       1.219   9.282  20.035  0.00  0.00    +0.000 OA
ATOM     21  O   UNL     1       2.068  10.924  18.321  0.00  0.00    +0.000 OA
BRANCH  19  22
ATOM     22  C   UNL     1      -0.509  10.445  18.490  0.00  0.00    +0.000 A 
ATOM     23  C   UNL     1      -1.303   9.899  17.478  0.00  0.00    +0.000 A 
ATOM     24  C   UNL     1      -2.618  10.342  17.325  0.00  0.00    +0.000 A 
ATOM     25  C   UNL     1      -3.138  11.320  18.181  0.00  0.00    +0.000 A 
ATOM     26 CL   UNL     1      -4.777  11.808  17.941  0.00  0.00    +0.000 Cl
ATOM     27  C   UNL     1      -2.333  11.862  19.193  0.00  0.00    +0.000 A 
ATOM     28 CL   UNL     1      -2.920  13.049  20.303  0.00  0.00    +0.000 Cl
ATOM     29  C   UNL     1      -1.012  11.432  19.343  0.00  0.00    +0.000 A 
ENDBRANCH  19  22
ENDBRANCH  17  19
ENDBRANCH   4  17
TORSDOF 4
ENDMDL
MODEL 3
REMARK VINA RESULT:      -8.2      1.246      1.799
REMARK  Name = 
REMARK  5 active torsions:
REMARK  status: ('A' for Active; 'I' for Inactive)
REMARK    1  A    between atoms: C_1  and  C_2
REMARK    2  A    between atoms: C_2  and  C_3
REMARK    3  A    between atoms: C_6  and  N_7
REMARK    4  A    between atoms: N_7  and  S_8
REMARK    5  A    between atoms: S_8  and  C_11
REMARK                            x       y       z     vdW  Elec       q    Type
REMARK                         _______ _______ _______ _____ _____    ______ ____
ROOT
ATOM      1  C   UNL     1       1.048   9.252  19.567  0.00  0.00    +0.000 A 
ATOM      2  C   UNL     1       1.871   8.576  18.644  0.00  0.00    +0.000 A 
ATOM      3  C   UNL     1       2.472   7.354  18.972  0.00  0.00    +0.000 A 
ATOM      4  C   UNL     1       2.230   6.775  20.212  0.00  0.00    +0.000 A 
ATOM      5  C   UNL     1       1.389   7.406  21.123  0.00  0.00    +0.000 A 
ATOM      6  C   UNL     1       0.798   8.628  20.802  0.00  0.00    +0.000 A 
ENDROOT
BRANCH   1   8
ATOM      7  C   UNL     1      -0.528  10.519  18.051  0.00  0.00    +0.000 C 
ATOM      8  C   UNL     1       0.425  10.610  19.236  0.00  0.00    +0.000 C 
ATOM      9  N   UNL     1      -0.218  11.189  20.404  0.00  0.00    +0.000 N 
ATOM     10  C   UNL     1       0.520  12.199  20.966  0.00  0.00    +0.000 C 
ATOM     11  O   UNL     1       0.249  12.759  22.013  0.00  0.00    +0.000 OA
ATOM     12  N   UNL     1       1.557  12.480  20.152  0.00  0.00    +0.000 N 
ATOM     13  C   UNL     1       1.494  11.715  19.028  0.00  0.00    +0.000 C 
ATOM     14  O   UNL     1       2.205  11.871  18.045  0.00  0.00    +0.000 OA
ATOM     15  H   UNL     1      -1.018  10.811  20.892  0.00  0.00    +0.000 HD
ATOM     16  H   UNL     1       2.189  13.249  20.290  0.00  0.00    +0.000 HD
ENDBRANCH   1   8
BRANCH   4  17
ATOM     17  N   UNL     1       2.865   5.560  20.590  0.00  0.00    +0.000 N 
ATOM     18  H   UNL     1       2.808   5.295  21.573  0.00  0.00    +0.000 HD
BRANCH  17  19
ATOM     19  S   UNL     1       2.636   4.205  19.601  0.00  0.00    +0.000 S 
ATOM     20  O   UNL     1       2.902   3.048  20.427  0.00  0.00    +0.000 OA
ATOM     21  O   UNL     1       1.383   4.349  18.892  0.00  0.00    +0.000 OA
BRANCH  19  22
ATOM     22  C   UNL     1       3.969   4.318  18.433  0.00  0.00    +0.000 A 
ATOM     23  C   UNL     1       3.755   3.975  17.096  0.00  0.00    +0.000 A 
ATOM     24  C   UNL     1       4.805   4.090  16.182  0.00  0.00    +0.000 A 
ATOM     25  C   UNL     1       6.058   4.549  16.602  0.00  0.00    +0.000 A 
ATOM     26 CL   UNL     1       7.305   4.678  15.414  0.00  0.00    +0.000 Cl
ATOM     27  C   UNL     1       6.264   4.889  17.947  0.00  0.00    +0.000 A 
ATOM     28 CL   UNL     1       7.776   5.491  18.526  0.00  0.00    +0.000 Cl
ATOM     29  C   UNL     1       5.220   4.764  18.868  0.00  0.00    +0.000 A 
ENDBRANCH  19  22
ENDBRANCH  17  19
ENDBRANCH   4  17
TORSDOF 4
ENDMDL
MODEL 4
REMARK VINA RESULT:      -8.2      4.282      8.550
REMARK  Name = 
REMARK  5 active torsions:
REMARK  status: ('A' for Active; 'I' for Inactive)
REMARK    1  A    between atoms: C_1  and  C_2
REMARK    2  A    between atoms: C_2  and  C_3
REMARK    3  A    between atoms: C_6  and  N_7
REMARK    4  A    between atoms: N_7  and  S_8
REMARK    5  A    between atoms: S_8  and  C_11
REMARK                            x       y       z     vdW  Elec       q    Type
REMARK                         _______ _______ _______ _____ _____    ______ ____
ROOT
ATOM      1  C   UNL     1       3.499   5.187  18.469  0.00  0.00    +0.000 A 
ATOM      2  C   UNL     1       3.665   6.369  17.721  0.00  0.00    +0.000 A 
ATOM      3  C   UNL     1       3.039   7.562  18.108  0.00  0.00    +0.000 A 
ATOM      4  C   UNL     1       2.271   7.596  19.265  0.00  0.00    +0.000 A 
ATOM      5  C   UNL     1       2.126   6.450  20.039  0.00  0.00    +0.000 A 
ATOM      6  C   UNL     1       2.740   5.259  19.650  0.00  0.00    +0.000 A 
ENDROOT
BRANCH   1   8
ATOM      7  C   UNL     1       4.823   3.997  16.675  0.00  0.00    +0.000 C 
ATOM      8  C   UNL     1       4.138   3.868  18.030  0.00  0.00    +0.000 C 
ATOM      9  N   UNL     1       5.045   3.360  19.047  0.00  0.00    +0.000 N 
ATOM     10  C   UNL     1       4.509   2.315  19.755  0.00  0.00    +0.000 C 
ATOM     11  O   UNL     1       5.026   1.799  20.730  0.00  0.00    +0.000 OA
ATOM     12  N   UNL     1       3.352   1.945  19.171  0.00  0.00    +0.000 N 
ATOM     13  C   UNL     1       3.132   2.687  18.052  0.00  0.00    +0.000 C 
ATOM     14  O   UNL     1       2.250   2.461  17.235  0.00  0.00    +0.000 OA
ATOM     15  H   UNL     1       5.897   3.804  19.359  0.00  0.00    +0.000 HD
ATOM     16  H   UNL     1       2.818   1.138  19.441  0.00  0.00    +0.000 HD
ENDBRANCH   1   8
BRANCH   4  17
ATOM     17  N   UNL     1       1.586   8.780  19.654  0.00  0.00    +0.000 N 
ATOM     18  H   UNL     1       1.991   9.319  20.420  0.00  0.00    +0.000 HD
BRANCH  17  19
ATOM     19  S   UNL     1       1.037   9.817  18.433  0.00  0.00    +0.000 S 
ATOM     20  O   UNL     1       2.137  10.704  18.127  0.00  0.00    +0.000 OA
ATOM     21  O   UNL     1       0.400   9.028  17.401  0.00  0.00    +0.000 OA
BRANCH  19  22
ATOM     22  C   UNL     1      -0.200  10.795  19.249  0.00  0.00    +0.000 A 
ATOM     23  C   UNL     1      -1.174  11.456  18.496  0.00  0.00    +0.000 A 
ATOM     24  C   UNL     1      -2.155  12.204  19.150  0.00  0.00    +0.000 A 
ATOM     25  C   UNL     1      -2.165  12.286  20.547  0.00  0.00    +0.000 A 
ATOM     26 CL   UNL     1      -3.417  13.218  21.288  0.00  0.00    +0.000 Cl
ATOM     27  C   UNL     1      -1.183  11.620  21.294  0.00  0.00    +0.000 A 
ATOM     28 CL   UNL     1      -1.154  11.655  23.021  0.00  0.00    +0.000 Cl
ATOM     29  C   UNL     1      -0.191  10.881  20.644  0.00  0.00    +0.000 A 
ENDBRANCH  19  22
ENDBRANCH  17  19
ENDBRANCH   4  17
TORSDOF 4
ENDMDL
MODEL 5
REMARK VINA RESULT:      -8.2      4.948      8.927
REMARK  Name = 
REMARK  5 active torsions:
REMARK  status: ('A' for Active; 'I' for Inactive)
REMARK    1  A    between atoms: C_1  and  C_2
REMARK    2  A    between atoms: C_2  and  C_3
REMARK    3  A    between atoms: C_6  and  N_7
REMARK    4  A    between atoms: N_7  and  S_8
REMARK    5  A    between atoms: S_8  and  C_11
REMARK                            x       y       z     vdW  Elec       q    Type
REMARK                         _______ _______ _______ _____ _____    ______ ____
ROOT
ATOM      1  C   UNL     1       2.261   6.942  19.255  0.00  0.00    +0.000 A 
ATOM      2  C   UNL     1       1.678   7.408  20.449  0.00  0.00    +0.000 A 
ATOM      3  C   UNL     1       1.207   8.723  20.557  0.00  0.00    +0.000 A 
ATOM      4  C   UNL     1       1.279   9.576  19.463  0.00  0.00    +0.000 A 
ATOM      5  C   UNL     1       1.814   9.124  18.262  0.00  0.00    +0.000 A 
ATOM      6  C   UNL     1       2.295   7.818  18.155  0.00  0.00    +0.000 A 
ENDROOT
BRANCH   1   8
ATOM      7  C   UNL     1       4.041   5.472  18.226  0.00  0.00    +0.000 C 
ATOM      8  C   UNL     1       2.824   5.523  19.141  0.00  0.00    +0.000 C 
ATOM      9  N   UNL     1       3.109   4.966  20.452  0.00  0.00    +0.000 N 
ATOM     10  C   UNL     1       2.170   4.050  20.852  0.00  0.00    +0.000 C 
ATOM     11  O   UNL     1       2.127   3.533  21.954  0.00  0.00    +0.000 OA
ATOM     12  N   UNL     1       1.341   3.802  19.817  0.00  0.00    +0.000 N 
ATOM     13  C   UNL     1       1.745   4.492  18.716  0.00  0.00    +0.000 C 
ATOM     14  O   UNL     1       1.284   4.334  17.594  0.00  0.00    +0.000 OA
ATOM     15  H   UNL     1       3.796   5.310  21.109  0.00  0.00    +0.000 HD
ATOM     16  H   UNL     1       0.630   3.092  19.824  0.00  0.00    +0.000 HD
ENDBRANCH   1   8
BRANCH   4  17
ATOM     17  N   UNL     1       0.851  10.929  19.559  0.00  0.00    +0.000 N 
ATOM     18  H   UNL     1       1.515  11.646  19.263  0.00  0.00    +0.000 HD
BRANCH  17  19
ATOM     19  S   UNL     1      -0.706  11.309  19.015  0.00  0.00    +0.000 S 
ATOM     20  O   UNL     1      -0.582  12.525  18.241  0.00  0.00    +0.000 OA
ATOM     21  O   UNL     1      -1.310  10.121  18.454  0.00  0.00    +0.000 OA
BRANCH  19  22
ATOM     22  C   UNL     1      -1.570  11.738  20.507  0.00  0.00    +0.000 A 
ATOM     23  C   UNL     1      -1.030  11.391  21.748  0.00  0.00    +0.000 A 
ATOM     24  C   UNL     1      -1.707  11.754  22.915  0.00  0.00    +0.000 A 
ATOM     25  C   UNL     1      -2.912  12.463  22.839  0.00  0.00    +0.000 A 
ATOM     26 CL   UNL     1      -3.686  12.889  24.324  0.00  0.00    +0.000 Cl
ATOM     27  C   UNL     1      -3.445  12.805  21.589  0.00  0.00    +0.000 A 
ATOM     28 CL   UNL     1      -4.911  13.704  21.425  0.00  0.00    +0.000 Cl
ATOM     29  C   UNL     1      -2.779  12.433  20.419  0.00  0.00    +0.000 A 
ENDBRANCH  19  22
ENDBRANCH  17  19
ENDBRANCH   4  17
TORSDOF 4
ENDMDL
MODEL 6
REMARK VINA RESULT:      -8.0      4.087      8.222
REMARK  Name = 
REMARK  5 active torsions:
REMARK  status: ('A' for Active; 'I' for Inactive)
REMARK    1  A    between atoms: C_1  and  C_2
REMARK    2  A    between atoms: C_2  and  C_3
REMARK    3  A    between atoms: C_6  and  N_7
REMARK    4  A    between atoms: N_7  and  S_8
REMARK    5  A    between atoms: S_8  and  C_11
REMARK                            x       y       z     vdW  Elec       q    Type
REMARK                         _______ _______ _______ _____ _____    ______ ____
ROOT
ATOM      1  C   UNL     1       2.306   5.609  19.394  0.00  0.00    +0.000 A 
ATOM      2  C   UNL     1       1.823   6.299  20.523  0.00  0.00    +0.000 A 
ATOM      3  C   UNL     1       1.612   7.684  20.489  0.00  0.00    +0.000 A 
ATOM      4  C   UNL     1       1.848   8.390  19.315  0.00  0.00    +0.000 A 
ATOM      5  C   UNL     1       2.288   7.722  18.177  0.00  0.00    +0.000 A 
ATOM      6  C   UNL     1       2.508   6.345  18.212  0.00  0.00    +0.000 A 
ENDROOT
BRANCH   1   8
ATOM      7  C   UNL     1       3.806   3.736  18.603  0.00  0.00    +0.000 C 
ATOM      8  C   UNL     1       2.585   4.105  19.436  0.00  0.00    +0.000 C 
ATOM      9  N   UNL     1       2.701   3.631  20.805  0.00  0.00    +0.000 N 
ATOM     10  C   UNL     1       1.585   2.953  21.224  0.00  0.00    +0.000 C 
ATOM     11  O   UNL     1       1.396   2.561  22.362  0.00  0.00    +0.000 OA
ATOM     12  N   UNL     1       0.769   2.770  20.167  0.00  0.00    +0.000 N 
ATOM     13  C   UNL     1       1.344   3.263  19.037  0.00  0.00    +0.000 C 
ATOM     14  O   UNL     1       0.909   3.089  17.907  0.00  0.00    +0.000 OA
ATOM     15  H   UNL     1       3.413   3.899  21.469  0.00  0.00    +0.000 HD
ATOM     16  H   UNL     1      -0.067   2.213  20.192  0.00  0.00    +0.000 HD
ENDBRANCH   1   8
BRANCH   4  17
ATOM     17  N   UNL     1       1.689   9.802  19.265  0.00  0.00    +0.000 N 
ATOM     18  H   UNL     1       2.326  10.318  18.658  0.00  0.00    +0.000 HD
BRANCH  17  19
ATOM     19  S   UNL     1       0.118  10.419  19.130  0.00  0.00    +0.000 S 
ATOM     20  O   UNL     1      -0.387   9.970  17.851  0.00  0.00    +0.000 OA
ATOM     21  O   UNL     1      -0.599  10.147  20.356  0.00  0.00    +0.000 OA
BRANCH  19  22
ATOM     22  C   UNL     1       0.374  12.171  18.994  0.00  0.00    +0.000 A 
ATOM     23  C   UNL     1      -0.668  13.052  19.292  0.00  0.00    +0.000 A 
ATOM     24  C   UNL     1      -0.448  14.429  19.203  0.00  0.00    +0.000 A 
ATOM     25  C   UNL     1       0.807  14.919  18.825  0.00  0.00    +0.000 A 
ATOM     26 CL   UNL     1       1.009  16.633  18.751  0.00  0.00    +0.000 Cl
ATOM     27  C   UNL     1       1.846  14.026  18.527  0.00  0.00    +0.000 A 
ATOM     28 CL   UNL     1       3.427  14.564  18.084  0.00  0.00    +0.000 Cl
ATOM     29  C   UNL     1       1.628  12.648  18.602  0.00  0.00    +0.000 A 
ENDBRANCH  19  22
ENDBRANCH  17  19
ENDBRANCH   4  17
TORSDOF 4
ENDMDL
MODEL 7
REMARK VINA RESULT:      -8.0      2.035      2.746
REMARK  Name = 
REMARK  5 active torsions:
REMARK  status: ('A' for Active; 'I' for Inactive)
REMARK    1  A    between atoms: C_1  and  C_2
REMARK    2  A    between atoms: C_2  and  C_3
REMARK    3  A    between atoms: C_6  and  N_7
REMARK    4  A    between atoms: N_7  and  S_8
REMARK    5  A    between atoms: S_8  and  C_11
REMARK                            x       y       z     vdW  Elec       q    Type
REMARK                         _______ _______ _______ _____ _____    ______ ____
ROOT
ATOM      1  C   UNL     1       1.388   8.777  19.206  0.00  0.00    +0.000 A 
ATOM      2  C   UNL     1       2.187   8.549  18.069  0.00  0.00    +0.000 A 
ATOM      3  C   UNL     1       3.074   7.465  18.015  0.00  0.00    +0.000 A 
ATOM      4  C   UNL     1       3.147   6.578  19.082  0.00  0.00    +0.000 A 
ATOM      5  C   UNL     1       2.338   6.762  20.198  0.00  0.00    +0.000 A 
ATOM      6  C   UNL     1       1.461   7.846  20.258  0.00  0.00    +0.000 A 
ENDROOT
BRANCH   1   8
ATOM      7  C   UNL     1      -0.530  10.022  18.130  0.00  0.00    +0.000 C 
ATOM      8  C   UNL     1       0.451   9.984  19.295  0.00  0.00    +0.000 C 
ATOM      9  N   UNL     1      -0.232  10.025  20.577  0.00  0.00    +0.000 N 
ATOM     10  C   UNL     1       0.291  10.969  21.423  0.00  0.00    +0.000 C 
ATOM     11  O   UNL     1      -0.033  11.116  22.588  0.00  0.00    +0.000 OA
ATOM     12  N   UNL     1       1.182  11.715  20.739  0.00  0.00    +0.000 N 
ATOM     13  C   UNL     1       1.223  11.322  19.437  0.00  0.00    +0.000 C 
ATOM     14  O   UNL     1       1.815  11.924  18.551  0.00  0.00    +0.000 OA
ATOM     15  H   UNL     1      -0.890   9.341  20.923  0.00  0.00    +0.000 HD
ATOM     16  H   UNL     1       1.629  12.536  21.107  0.00  0.00    +0.000 HD
ENDBRANCH   1   8
BRANCH   4  17
ATOM     17  N   UNL     1       4.072   5.498  19.074  0.00  0.00    +0.000 N 
ATOM     18  H   UNL     1       4.361   5.130  19.981  0.00  0.00    +0.000 HD
BRANCH  17  19
ATOM     19  S   UNL     1       3.803   4.230  17.985  0.00  0.00    +0.000 S 
ATOM     20  O   UNL     1       4.250   3.023  18.645  0.00  0.00    +0.000 OA
ATOM     21  O   UNL     1       2.461   4.343  17.457  0.00  0.00    +0.000 OA
BRANCH  19  22
ATOM     22  C   UNL     1       4.959   4.558  16.678  0.00  0.00    +0.000 A 
ATOM     23  C   UNL     1       6.106   5.314  16.935  0.00  0.00    +0.000 A 
ATOM     24  C   UNL     1       7.019   5.546  15.904  0.00  0.00    +0.000 A 
ATOM     25  C   UNL     1       6.790   5.020  14.628  0.00  0.00    +0.000 A 
ATOM     26 CL   UNL     1       7.971   5.336  13.407  0.00  0.00    +0.000 Cl
ATOM     27  C   UNL     1       5.636   4.264  14.379  0.00  0.00    +0.000 A 
ATOM     28 CL   UNL     1       5.307   3.561  12.836  0.00  0.00    +0.000 Cl
ATOM     29  C   UNL     1       4.713   4.040  15.403  0.00  0.00    +0.000 A 
ENDBRANCH  19  22
ENDBRANCH  17  19
ENDBRANCH   4  17
TORSDOF 4
ENDMDL
MODEL 8
REMARK VINA RESULT:      -7.9      4.356      8.582
REMARK  Name = 
REMARK  5 active torsions:
REMARK  status: ('A' for Active; 'I' for Inactive)
REMARK    1  A    between atoms: C_1  and  C_2
REMARK    2  A    between atoms: C_2  and  C_3
REMARK    3  A    between atoms: C_6  and  N_7
REMARK    4  A    between atoms: N_7  and  S_8
REMARK    5  A    between atoms: S_8  and  C_11
REMARK                            x       y       z     vdW  Elec       q    Type
REMARK                         _______ _______ _______ _____ _____    ______ ____
ROOT
ATOM      1  C   UNL     1       3.372   5.218  18.601  0.00  0.00    +0.000 A 
ATOM      2  C   UNL     1       2.765   5.304  19.869  0.00  0.00    +0.000 A 
ATOM      3  C   UNL     1       2.180   6.499  20.310  0.00  0.00    +0.000 A 
ATOM      4  C   UNL     1       2.163   7.610  19.475  0.00  0.00    +0.000 A 
ATOM      5  C   UNL     1       2.722   7.535  18.204  0.00  0.00    +0.000 A 
ATOM      6  C   UNL     1       3.315   6.349  17.767  0.00  0.00    +0.000 A 
ENDROOT
BRANCH   1   8
ATOM      7  C   UNL     1       4.737   4.121  16.779  0.00  0.00    +0.000 C 
ATOM      8  C   UNL     1       4.056   3.933  18.128  0.00  0.00    +0.000 C 
ATOM      9  N   UNL     1       4.977   3.429  19.133  0.00  0.00    +0.000 N 
ATOM     10  C   UNL     1       4.476   2.348  19.813  0.00  0.00    +0.000 C 
ATOM     11  O   UNL     1       5.008   1.823  20.774  0.00  0.00    +0.000 OA
ATOM     12  N   UNL     1       3.332   1.956  19.216  0.00  0.00    +0.000 N 
ATOM     13  C   UNL     1       3.089   2.719  18.117  0.00  0.00    +0.000 C 
ATOM     14  O   UNL     1       2.216   2.486  17.292  0.00  0.00    +0.000 OA
ATOM     15  H   UNL     1       5.813   3.892  19.460  0.00  0.00    +0.000 HD
ATOM     16  H   UNL     1       2.825   1.124  19.464  0.00  0.00    +0.000 HD
ENDBRANCH   1   8
BRANCH   4  17
ATOM     17  N   UNL     1       1.620   8.848  19.915  0.00  0.00    +0.000 N 
ATOM     18  H   UNL     1       1.105   9.398  19.227  0.00  0.00    +0.000 HD
BRANCH  17  19
ATOM     19  S   UNL     1       0.822   8.878  21.408  0.00  0.00    +0.000 S 
ATOM     20  O   UNL     1       0.018   7.677  21.465  0.00  0.00    +0.000 OA
ATOM     21  O   UNL     1       1.781   9.188  22.446  0.00  0.00    +0.000 OA
BRANCH  19  22
ATOM     22  C   UNL     1      -0.304  10.242  21.246  0.00  0.00    +0.000 A 
ATOM     23  C   UNL     1      -0.731  10.932  22.383  0.00  0.00    +0.000 A 
ATOM     24  C   UNL     1      -1.599  12.017  22.240  0.00  0.00    +0.000 A 
ATOM     25  C   UNL     1      -2.032  12.412  20.969  0.00  0.00    +0.000 A 
ATOM     26 CL   UNL     1      -3.093  13.771  20.869  0.00  0.00    +0.000 Cl
ATOM     27  C   UNL     1      -1.598  11.712  19.834  0.00  0.00    +0.000 A 
ATOM     28 CL   UNL     1      -2.070  12.164  18.235  0.00  0.00    +0.000 Cl
ATOM     29  C   UNL     1      -0.741  10.618  19.972  0.00  0.00    +0.000 A 
ENDBRANCH  19  22
ENDBRANCH  17  19
ENDBRANCH   4  17
TORSDOF 4
ENDMDL
MODEL 9
REMARK VINA RESULT:      -7.9      4.573      8.629
REMARK  Name = 
REMARK  5 active torsions:
REMARK  status: ('A' for Active; 'I' for Inactive)
REMARK    1  A    between atoms: C_1  and  C_2
REMARK    2  A    between atoms: C_2  and  C_3
REMARK    3  A    between atoms: C_6  and  N_7
REMARK    4  A    between atoms: N_7  and  S_8
REMARK    5  A    between atoms: S_8  and  C_11
REMARK                            x       y       z     vdW  Elec       q    Type
REMARK                         _______ _______ _______ _____ _____    ______ ____
ROOT
ATOM      1  C   UNL     1       2.875   5.690  18.722  0.00  0.00    +0.000 A 
ATOM      2  C   UNL     1       2.853   6.852  17.926  0.00  0.00    +0.000 A 
ATOM      3  C   UNL     1       2.271   8.038  18.394  0.00  0.00    +0.000 A 
ATOM      4  C   UNL     1       1.736   8.086  19.676  0.00  0.00    +0.000 A 
ATOM      5  C   UNL     1       1.783   6.962  20.493  0.00  0.00    +0.000 A 
ATOM      6  C   UNL     1       2.353   5.777  20.025  0.00  0.00    +0.000 A 
ENDROOT
BRANCH   1   8
ATOM      7  C   UNL     1       2.420   3.538  17.479  0.00  0.00    +0.000 C 
ATOM      8  C   UNL     1       3.465   4.377  18.203  0.00  0.00    +0.000 C 
ATOM      9  N   UNL     1       4.633   4.619  17.372  0.00  0.00    +0.000 N 
ATOM     10  C   UNL     1       5.808   4.339  18.021  0.00  0.00    +0.000 C 
ATOM     11  O   UNL     1       6.919   4.568  17.577  0.00  0.00    +0.000 OA
ATOM     12  N   UNL     1       5.521   3.742  19.195  0.00  0.00    +0.000 N 
ATOM     13  C   UNL     1       4.177   3.567  19.318  0.00  0.00    +0.000 C 
ATOM     14  O   UNL     1       3.643   2.908  20.200  0.00  0.00    +0.000 OA
ATOM     15  H   UNL     1       4.644   5.109  16.488  0.00  0.00    +0.000 HD
ATOM     16  H   UNL     1       6.212   3.348  19.810  0.00  0.00    +0.000 HD
ENDBRANCH   1   8
BRANCH   4  17
ATOM     17  N   UNL     1       1.097   9.261  20.158  0.00  0.00    +0.000 N 
ATOM     18  H   UNL     1       0.437   9.720  19.530  0.00  0.00    +0.000 HD
BRANCH  17  19
ATOM     19  S   UNL     1       0.487   9.240  21.738  0.00  0.00    +0.000 S 
ATOM     20  O   UNL     1      -0.506   8.189  21.777  0.00  0.00    +0.000 OA
ATOM     21  O   UNL     1       1.594   9.260  22.668  0.00  0.00    +0.000 OA
BRANCH  19  22
ATOM     22  C   UNL     1      -0.391  10.779  21.861  0.00  0.00    +0.000 A 
ATOM     23  C   UNL     1      -1.186  11.040  22.979  0.00  0.00    +0.000 A 
ATOM     24  C   UNL     1      -1.853  12.263  23.075  0.00  0.00    +0.000 A 
ATOM     25  C   UNL     1      -1.721  13.220  22.063  0.00  0.00    +0.000 A 
ATOM     26 CL   UNL     1      -2.564  14.715  22.257  0.00  0.00    +0.000 Cl
ATOM     27  C   UNL     1      -0.921  12.948  20.944  0.00  0.00    +0.000 A 
ATOM     28 CL   UNL     1      -0.691  14.096  19.673  0.00  0.00    +0.000 Cl
ATOM     29  C   UNL     1      -0.262  11.721  20.836  0.00  0.00    +0.000 A 
ENDBRANCH  19  22
ENDBRANCH  17  19
ENDBRANCH   4  17
TORSDOF 4
ENDMDL
