MODEL 1
REMARK VINA RESULT:      -7.3      0.000      0.000
REMARK  Name = 
REMARK  7 active torsions:
REMARK  status: ('A' for Active; 'I' for Inactive)
REMARK    1  A    between atoms: C_1  and  C_2
REMARK    2  A    between atoms: C_4  and  C_5
REMARK    3  A    between atoms: C_6  and  S_7
REMARK    4  A    between atoms: S_7  and  N_10
REMARK    5  A    between atoms: N_10  and  C_11
REMARK    6  A    between atoms: C_16  and  C_17
REMARK    7  A    between atoms: C_28  and  C_29
REMARK                            x       y       z     vdW  Elec       q    Type
REMARK                         _______ _______ _______ _____ _____    ______ ____
ROOT
ATOM      1  C   UNL     1      -2.840  12.387  19.793  0.00  0.00    +0.000 A 
ATOM      2  C   UNL     1      -2.710  11.766  18.532  0.00  0.00    +0.000 A 
ATOM      3  C   UNL     1      -3.844  11.439  17.752  0.00  0.00    +0.000 A 
ATOM      4  C   UNL     1      -5.123  11.595  18.273  0.00  0.00    +0.000 A 
ATOM      5  C   UNL     1      -5.276  12.177  19.530  0.00  0.00    +0.000 A 
ATOM      6  C   UNL     1      -4.152  12.731  20.197  0.00  0.00    +0.000 A 
ENDROOT
BRANCH   6   7
ATOM      7  C   UNL     1      -4.442  14.167  20.618  0.00  0.00    +0.000 A 
ATOM      8  N   UNL     1      -3.777  14.652  21.645  0.00  0.00    +0.000 NA
ATOM      9  C   UNL     1      -4.390  14.106  22.819  0.00  0.00    +0.000 A 
ATOM     10  C   UNL     1      -3.597  13.475  23.772  0.00  0.00    +0.000 A 
ATOM     11  C   UNL     1      -4.181  12.551  24.641  0.00  0.00    +0.000 A 
ATOM     12  C   UNL     1      -5.565  12.313  24.597  0.00  0.00    +0.000 A 
ATOM     13  C   UNL     1      -6.392  13.035  23.730  0.00  0.00    +0.000 A 
ATOM     14  C   UNL     1      -5.799  13.916  22.831  0.00  0.00    +0.000 A 
ATOM     15  N   UNL     1      -6.537  14.463  21.753  0.00  0.00    +0.000 N 
ATOM     16  C   UNL     1      -5.874  14.691  20.549  0.00  0.00    +0.000 A 
ATOM     17  O   UNL     1      -6.330  15.180  19.534  0.00  0.00    +0.000 OA
ATOM     18  H   UNL     1      -7.539  14.543  21.778  0.00  0.00    +0.000 HD
ENDBRANCH   6   7
BRANCH   1  19
ATOM     19  N   UNL     1      -1.653  12.982  20.419  0.00  0.00    +0.000 N 
ATOM     20  H   UNL     1      -1.064  13.413  19.702  0.00  0.00    +0.000 HD
BRANCH  19  21
ATOM     21  S   UNL     1      -0.543  12.073  21.391  0.00  0.00    +0.000 S 
ATOM     22  O   UNL     1      -1.390  11.279  22.259  0.00  0.00    +0.000 OA
ATOM     23  O   UNL     1       0.422  13.006  21.921  0.00  0.00    +0.000 OA
BRANCH  21  29
ATOM     24  C   UNL     1       2.592   8.033  17.819  0.00  0.00    +0.000 C 
ATOM     25  C   UNL     1       1.828   9.006  18.674  0.00  0.00    +0.000 A 
ATOM     26  C   UNL     1       1.653  10.330  18.285  0.00  0.00    +0.000 A 
ATOM     27  C   UNL     1       0.942  11.275  19.074  0.00  0.00    +0.000 A 
ATOM     28  C   UNL     1       0.972  12.678  18.524  0.00  0.00    +0.000 C 
ATOM     29  C   UNL     1       0.329  10.857  20.298  0.00  0.00    +0.000 A 
ATOM     30  C   UNL     1       0.552   9.525  20.717  0.00  0.00    +0.000 A 
ATOM     31  C   UNL     1       0.161   8.930  22.040  0.00  0.00    +0.000 C 
ATOM     32  C   UNL     1       1.280   8.618  19.891  0.00  0.00    +0.000 A 
ENDBRANCH  21  29
ENDBRANCH  19  21
ENDBRANCH   1  19
TORSDOF 4
ENDMDL
MODEL 2
REMARK VINA RESULT:      -7.2      2.413      7.390
REMARK  Name = 
REMARK  7 active torsions:
REMARK  status: ('A' for Active; 'I' for Inactive)
REMARK    1  A    between atoms: C_1  and  C_2
REMARK    2  A    between atoms: C_4  and  C_5
REMARK    3  A    between atoms: C_6  and  S_7
REMARK    4  A    between atoms: S_7  and  N_10
REMARK    5  A    between atoms: N_10  and  C_11
REMARK    6  A    between atoms: C_16  and  C_17
REMARK    7  A    between atoms: C_28  and  C_29
REMARK                            x       y       z     vdW  Elec       q    Type
REMARK                         _______ _______ _______ _____ _____    ______ ____
ROOT
ATOM      1  C   UNL     1      -1.324  11.209  22.458  0.00  0.00    +0.000 A 
ATOM      2  C   UNL     1      -0.620  10.467  23.431  0.00  0.00    +0.000 A 
ATOM      3  C   UNL     1       0.223   9.391  23.068  0.00  0.00    +0.000 A 
ATOM      4  C   UNL     1       0.270   8.949  21.751  0.00  0.00    +0.000 A 
ATOM      5  C   UNL     1      -0.441   9.646  20.777  0.00  0.00    +0.000 A 
ATOM      6  C   UNL     1      -1.082  10.870  21.106  0.00  0.00    +0.000 A 
ENDROOT
BRANCH   6   7
ATOM      7  C   UNL     1      -0.659  11.966  20.135  0.00  0.00    +0.000 A 
ATOM      8  N   UNL     1      -1.604  12.701  19.587  0.00  0.00    +0.000 NA
ATOM      9  C   UNL     1      -2.186  11.904  18.550  0.00  0.00    +0.000 A 
ATOM     10  C   UNL     1      -3.567  11.735  18.513  0.00  0.00    +0.000 A 
ATOM     11  C   UNL     1      -4.101  10.629  17.848  0.00  0.00    +0.000 A 
ATOM     12  C   UNL     1      -3.257   9.737  17.166  0.00  0.00    +0.000 A 
ATOM     13  C   UNL     1      -1.879   9.967  17.088  0.00  0.00    +0.000 A 
ATOM     14  C   UNL     1      -1.346  11.040  17.796  0.00  0.00    +0.000 A 
ATOM     15  N   UNL     1       0.051  11.166  17.985  0.00  0.00    +0.000 N 
ATOM     16  C   UNL     1       0.508  11.711  19.184  0.00  0.00    +0.000 A 
ATOM     17  O   UNL     1       1.659  11.926  19.508  0.00  0.00    +0.000 OA
ATOM     18  H   UNL     1       0.715  10.737  17.363  0.00  0.00    +0.000 HD
ENDBRANCH   6   7
BRANCH   1  19
ATOM     19  N   UNL     1      -1.931  12.489  22.842  0.00  0.00    +0.000 N 
ATOM     20  H   UNL     1      -1.506  12.826  23.709  0.00  0.00    +0.000 HD
BRANCH  19  21
ATOM     21  S   UNL     1      -3.634  12.688  23.097  0.00  0.00    +0.000 S 
ATOM     22  O   UNL     1      -3.960  11.722  24.126  0.00  0.00    +0.000 OA
ATOM     23  O   UNL     1      -4.266  12.657  21.799  0.00  0.00    +0.000 OA
BRANCH  21  29
ATOM     24  C   UNL     1      -4.551  18.379  25.481  0.00  0.00    +0.000 C 
ATOM     25  C   UNL     1      -4.330  17.004  24.916  0.00  0.00    +0.000 A 
ATOM     26  C   UNL     1      -3.067  16.421  24.903  0.00  0.00    +0.000 A 
ATOM     27  C   UNL     1      -2.824  15.126  24.369  0.00  0.00    +0.000 A 
ATOM     28  C   UNL     1      -1.369  14.734  24.349  0.00  0.00    +0.000 C 
ATOM     29  C   UNL     1      -3.918  14.350  23.867  0.00  0.00    +0.000 A 
ATOM     30  C   UNL     1      -5.191  14.964  23.833  0.00  0.00    +0.000 A 
ATOM     31  C   UNL     1      -6.430  14.410  23.189  0.00  0.00    +0.000 C 
ATOM     32  C   UNL     1      -5.379  16.270  24.375  0.00  0.00    +0.000 A 
ENDBRANCH  21  29
ENDBRANCH  19  21
ENDBRANCH   1  19
TORSDOF 4
ENDMDL
MODEL 3
REMARK VINA RESULT:      -7.2      0.159      1.609
REMARK  Name = 
REMARK  7 active torsions:
REMARK  status: ('A' for Active; 'I' for Inactive)
REMARK    1  A    between atoms: C_1  and  C_2
REMARK    2  A    between atoms: C_4  and  C_5
REMARK    3  A    between atoms: C_6  and  S_7
REMARK    4  A    between atoms: S_7  and  N_10
REMARK    5  A    between atoms: N_10  and  C_11
REMARK    6  A    between atoms: C_16  and  C_17
REMARK    7  A    between atoms: C_28  and  C_29
REMARK                            x       y       z     vdW  Elec       q    Type
REMARK                         _______ _______ _______ _____ _____    ______ ____
ROOT
ATOM      1  C   UNL     1      -2.776  12.404  19.842  0.00  0.00    +0.000 A 
ATOM      2  C   UNL     1      -2.584  11.774  18.592  0.00  0.00    +0.000 A 
ATOM      3  C   UNL     1      -3.680  11.395  17.783  0.00  0.00    +0.000 A 
ATOM      4  C   UNL     1      -4.980  11.509  18.262  0.00  0.00    +0.000 A 
ATOM      5  C   UNL     1      -5.193  12.099  19.506  0.00  0.00    +0.000 A 
ATOM      6  C   UNL     1      -4.112  12.703  20.201  0.00  0.00    +0.000 A 
ENDROOT
BRANCH   6   7
ATOM      7  C   UNL     1      -4.468  14.131  20.595  0.00  0.00    +0.000 A 
ATOM      8  N   UNL     1      -3.828  14.666  21.613  0.00  0.00    +0.000 NA
ATOM      9  C   UNL     1      -4.417  14.114  22.796  0.00  0.00    +0.000 A 
ATOM     10  C   UNL     1      -3.598  13.538  23.762  0.00  0.00    +0.000 A 
ATOM     11  C   UNL     1      -4.139  12.604  24.648  0.00  0.00    +0.000 A 
ATOM     12  C   UNL     1      -5.511  12.303  24.607  0.00  0.00    +0.000 A 
ATOM     13  C   UNL     1      -6.369  12.969  23.725  0.00  0.00    +0.000 A 
ATOM     14  C   UNL     1      -5.816  13.860  22.810  0.00  0.00    +0.000 A 
ATOM     15  N   UNL     1      -6.576  14.352  21.722  0.00  0.00    +0.000 N 
ATOM     16  C   UNL     1      -5.922  14.588  20.514  0.00  0.00    +0.000 A 
ATOM     17  O   UNL     1      -6.399  15.037  19.491  0.00  0.00    +0.000 OA
ATOM     18  H   UNL     1      -7.581  14.386  21.745  0.00  0.00    +0.000 HD
ENDBRANCH   6   7
BRANCH   1  19
ATOM     19  N   UNL     1      -1.632  13.050  20.495  0.00  0.00    +0.000 N 
ATOM     20  H   UNL     1      -1.049  13.512  19.794  0.00  0.00    +0.000 HD
BRANCH  19  21
ATOM     21  S   UNL     1      -0.501  12.189  21.487  0.00  0.00    +0.000 S 
ATOM     22  O   UNL     1      -1.328  11.351  22.333  0.00  0.00    +0.000 OA
ATOM     23  O   UNL     1       0.407  13.164  22.043  0.00  0.00    +0.000 OA
BRANCH  21  29
ATOM     24  C   UNL     1       2.510   8.223  17.731  0.00  0.00    +0.000 C 
ATOM     25  C   UNL     1       1.792   9.178  18.643  0.00  0.00    +0.000 A 
ATOM     26  C   UNL     1       1.180   8.742  19.813  0.00  0.00    +0.000 A 
ATOM     27  C   UNL     1       0.488   9.619  20.692  0.00  0.00    +0.000 A 
ATOM     28  C   UNL     1      -0.199   8.923  21.838  0.00  0.00    +0.000 C 
ATOM     29  C   UNL     1       0.451  11.022  20.407  0.00  0.00    +0.000 A 
ATOM     30  C   UNL     1       1.028  11.456  19.192  0.00  0.00    +0.000 A 
ATOM     31  C   UNL     1       0.948  12.839  18.611  0.00  0.00    +0.000 C 
ATOM     32  C   UNL     1       1.705  10.533  18.342  0.00  0.00    +0.000 A 
ENDBRANCH  21  29
ENDBRANCH  19  21
ENDBRANCH   1  19
TORSDOF 4
ENDMDL
MODEL 4
REMARK VINA RESULT:      -7.1      5.488     11.344
REMARK  Name = 
REMARK  7 active torsions:
REMARK  status: ('A' for Active; 'I' for Inactive)
REMARK    1  A    between atoms: C_1  and  C_2
REMARK    2  A    between atoms: C_4  and  C_5
REMARK    3  A    between atoms: C_6  and  S_7
REMARK    4  A    between atoms: S_7  and  N_10
REMARK    5  A    between atoms: N_10  and  C_11
REMARK    6  A    between atoms: C_16  and  C_17
REMARK    7  A    between atoms: C_28  and  C_29
REMARK                            x       y       z     vdW  Elec       q    Type
REMARK                         _______ _______ _______ _____ _____    ______ ____
ROOT
ATOM      1  C   UNL     1       3.215   5.585  19.543  0.00  0.00    +0.000 A 
ATOM      2  C   UNL     1       2.668   4.673  20.472  0.00  0.00    +0.000 A 
ATOM      3  C   UNL     1       3.094   3.325  20.518  0.00  0.00    +0.000 A 
ATOM      4  C   UNL     1       3.963   2.830  19.553  0.00  0.00    +0.000 A 
ATOM      5  C   UNL     1       4.492   3.704  18.606  0.00  0.00    +0.000 A 
ATOM      6  C   UNL     1       4.258   5.100  18.719  0.00  0.00    +0.000 A 
ENDROOT
BRANCH   6   7
ATOM      7  C   UNL     1       5.577   5.863  18.672  0.00  0.00    +0.000 A 
ATOM      8  N   UNL     1       5.758   6.718  17.688  0.00  0.00    +0.000 NA
ATOM      9  C   UNL     1       6.081   5.941  16.530  0.00  0.00    +0.000 A 
ATOM     10  C   UNL     1       5.368   6.140  15.353  0.00  0.00    +0.000 A 
ATOM     11  C   UNL     1       5.323   5.120  14.400  0.00  0.00    +0.000 A 
ATOM     12  C   UNL     1       6.048   3.933  14.600  0.00  0.00    +0.000 A 
ATOM     13  C   UNL     1       6.872   3.772  15.720  0.00  0.00    +0.000 A 
ATOM     14  C   UNL     1       6.872   4.769  16.690  0.00  0.00    +0.000 A 
ATOM     15  N   UNL     1       7.457   4.550  17.960  0.00  0.00    +0.000 N 
ATOM     16  C   UNL     1       6.867   5.150  19.071  0.00  0.00    +0.000 A 
ATOM     17  O   UNL     1       7.244   5.103  20.225  0.00  0.00    +0.000 OA
ATOM     18  H   UNL     1       8.175   3.861  18.105  0.00  0.00    +0.000 HD
ENDBRANCH   6   7
BRANCH   1  19
ATOM     19  N   UNL     1       2.978   7.021  19.732  0.00  0.00    +0.000 N 
ATOM     20  H   UNL     1       2.426   7.171  20.580  0.00  0.00    +0.000 HD
BRANCH  19  21
ATOM     21  S   UNL     1       2.207   8.016  18.540  0.00  0.00    +0.000 S 
ATOM     22  O   UNL     1       1.216   7.149  17.933  0.00  0.00    +0.000 OA
ATOM     23  O   UNL     1       3.252   8.634  17.761  0.00  0.00    +0.000 OA
BRANCH  21  29
ATOM     24  C   UNL     1      -0.843  12.503  21.617  0.00  0.00    +0.000 C 
ATOM     25  C   UNL     1      -0.117  11.418  20.872  0.00  0.00    +0.000 A 
ATOM     26  C   UNL     1      -0.135  10.100  21.313  0.00  0.00    +0.000 A 
ATOM     27  C   UNL     1       0.548   9.053  20.635  0.00  0.00    +0.000 A 
ATOM     28  C   UNL     1       0.495   7.725  21.345  0.00  0.00    +0.000 C 
ATOM     29  C   UNL     1       1.245   9.336  19.417  0.00  0.00    +0.000 A 
ATOM     30  C   UNL     1       1.305  10.685  18.998  0.00  0.00    +0.000 A 
ATOM     31  C   UNL     1       2.124  11.229  17.862  0.00  0.00    +0.000 C 
ATOM     32  C   UNL     1       0.608  11.699  19.720  0.00  0.00    +0.000 A 
ENDBRANCH  21  29
ENDBRANCH  19  21
ENDBRANCH   1  19
TORSDOF 4
ENDMDL
MODEL 5
REMARK VINA RESULT:      -7.0      5.401     11.118
REMARK  Name = 
REMARK  7 active torsions:
REMARK  status: ('A' for Active; 'I' for Inactive)
REMARK    1  A    between atoms: C_1  and  C_2
REMARK    2  A    between atoms: C_4  and  C_5
REMARK    3  A    between atoms: C_6  and  S_7
REMARK    4  A    between atoms: S_7  and  N_10
REMARK    5  A    between atoms: N_10  and  C_11
REMARK    6  A    between atoms: C_16  and  C_17
REMARK    7  A    between atoms: C_28  and  C_29
REMARK                            x       y       z     vdW  Elec       q    Type
REMARK                         _______ _______ _______ _____ _____    ______ ____
ROOT
ATOM      1  C   UNL     1       3.120   5.526  19.607  0.00  0.00    +0.000 A 
ATOM      2  C   UNL     1       2.599   4.641  20.577  0.00  0.00    +0.000 A 
ATOM      3  C   UNL     1       3.116   3.334  20.732  0.00  0.00    +0.000 A 
ATOM      4  C   UNL     1       4.059   2.839  19.838  0.00  0.00    +0.000 A 
ATOM      5  C   UNL     1       4.565   3.684  18.853  0.00  0.00    +0.000 A 
ATOM      6  C   UNL     1       4.229   5.064  18.859  0.00  0.00    +0.000 A 
ENDROOT
BRANCH   6   7
ATOM      7  C   UNL     1       5.491   5.916  18.809  0.00  0.00    +0.000 A 
ATOM      8  N   UNL     1       5.603   6.792  17.833  0.00  0.00    +0.000 NA
ATOM      9  C   UNL     1       5.967   6.052  16.663  0.00  0.00    +0.000 A 
ATOM     10  C   UNL     1       5.229   6.214  15.495  0.00  0.00    +0.000 A 
ATOM     11  C   UNL     1       5.245   5.204  14.531  0.00  0.00    +0.000 A 
ATOM     12  C   UNL     1       6.052   4.068  14.710  0.00  0.00    +0.000 A 
ATOM     13  C   UNL     1       6.896   3.952  15.819  0.00  0.00    +0.000 A 
ATOM     14  C   UNL     1       6.837   4.936  16.802  0.00  0.00    +0.000 A 
ATOM     15  N   UNL     1       7.450   4.743  18.063  0.00  0.00    +0.000 N 
ATOM     16  C   UNL     1       6.831   5.289  19.187  0.00  0.00    +0.000 A 
ATOM     17  O   UNL     1       7.223   5.255  20.336  0.00  0.00    +0.000 OA
ATOM     18  H   UNL     1       8.215   4.104  18.194  0.00  0.00    +0.000 HD
ENDBRANCH   6   7
BRANCH   1  19
ATOM     19  N   UNL     1       2.775   6.950  19.686  0.00  0.00    +0.000 N 
ATOM     20  H   UNL     1       3.608   7.495  19.917  0.00  0.00    +0.000 HD
BRANCH  19  21
ATOM     21  S   UNL     1       1.555   7.567  20.751  0.00  0.00    +0.000 S 
ATOM     22  O   UNL     1       2.271   7.902  21.966  0.00  0.00    +0.000 OA
ATOM     23  O   UNL     1       0.467   6.618  20.750  0.00  0.00    +0.000 OA
BRANCH  21  29
ATOM     24  C   UNL     1      -0.676  12.892  18.388  0.00  0.00    +0.000 C 
ATOM     25  C   UNL     1      -0.129  11.613  18.959  0.00  0.00    +0.000 A 
ATOM     26  C   UNL     1       0.664  10.761  18.198  0.00  0.00    +0.000 A 
ATOM     27  C   UNL     1       1.190   9.542  18.706  0.00  0.00    +0.000 A 
ATOM     28  C   UNL     1       1.925   8.717  17.681  0.00  0.00    +0.000 C 
ATOM     29  C   UNL     1       0.949   9.182  20.070  0.00  0.00    +0.000 A 
ATOM     30  C   UNL     1       0.099  10.021  20.826  0.00  0.00    +0.000 A 
ATOM     31  C   UNL     1      -0.430   9.745  22.205  0.00  0.00    +0.000 C 
ATOM     32  C   UNL     1      -0.409  11.231  20.266  0.00  0.00    +0.000 A 
ENDBRANCH  21  29
ENDBRANCH  19  21
ENDBRANCH   1  19
TORSDOF 4
ENDMDL
MODEL 6
REMARK VINA RESULT:      -6.9      5.425     11.188
REMARK  Name = 
REMARK  7 active torsions:
REMARK  status: ('A' for Active; 'I' for Inactive)
REMARK    1  A    between atoms: C_1  and  C_2
REMARK    2  A    between atoms: C_4  and  C_5
REMARK    3  A    between atoms: C_6  and  S_7
REMARK    4  A    between atoms: S_7  and  N_10
REMARK    5  A    between atoms: N_10  and  C_11
REMARK    6  A    between atoms: C_16  and  C_17
REMARK    7  A    between atoms: C_28  and  C_29
REMARK                            x       y       z     vdW  Elec       q    Type
REMARK                         _______ _______ _______ _____ _____    ______ ____
ROOT
ATOM      1  C   UNL     1       3.130   5.519  19.591  0.00  0.00    +0.000 A 
ATOM      2  C   UNL     1       2.618   4.624  20.556  0.00  0.00    +0.000 A 
ATOM      3  C   UNL     1       3.138   3.316  20.694  0.00  0.00    +0.000 A 
ATOM      4  C   UNL     1       4.074   2.832  19.787  0.00  0.00    +0.000 A 
ATOM      5  C   UNL     1       4.570   3.688  18.806  0.00  0.00    +0.000 A 
ATOM      6  C   UNL     1       4.233   5.067  18.829  0.00  0.00    +0.000 A 
ENDROOT
BRANCH   6   7
ATOM      7  C   UNL     1       5.493   5.921  18.777  0.00  0.00    +0.000 A 
ATOM      8  N   UNL     1       5.607   6.791  17.795  0.00  0.00    +0.000 NA
ATOM      9  C   UNL     1       5.977   6.042  16.632  0.00  0.00    +0.000 A 
ATOM     10  C   UNL     1       5.243   6.195  15.460  0.00  0.00    +0.000 A 
ATOM     11  C   UNL     1       5.265   5.177  14.504  0.00  0.00    +0.000 A 
ATOM     12  C   UNL     1       6.073   4.044  14.694  0.00  0.00    +0.000 A 
ATOM     13  C   UNL     1       6.913   3.938  15.808  0.00  0.00    +0.000 A 
ATOM     14  C   UNL     1       6.849   4.929  16.783  0.00  0.00    +0.000 A 
ATOM     15  N   UNL     1       7.457   4.747  18.048  0.00  0.00    +0.000 N 
ATOM     16  C   UNL     1       6.833   5.300  19.165  0.00  0.00    +0.000 A 
ATOM     17  O   UNL     1       7.221   5.276  20.316  0.00  0.00    +0.000 OA
ATOM     18  H   UNL     1       8.223   4.111  18.186  0.00  0.00    +0.000 HD
ENDBRANCH   6   7
BRANCH   1  19
ATOM     19  N   UNL     1       2.783   6.942  19.688  0.00  0.00    +0.000 N 
ATOM     20  H   UNL     1       3.611   7.483  19.950  0.00  0.00    +0.000 HD
BRANCH  19  21
ATOM     21  S   UNL     1       1.536   7.541  20.733  0.00  0.00    +0.000 S 
ATOM     22  O   UNL     1       2.239   7.969  21.926  0.00  0.00    +0.000 OA
ATOM     23  O   UNL     1       0.502   6.535  20.783  0.00  0.00    +0.000 OA
BRANCH  21  29
ATOM     24  C   UNL     1      -0.622  12.859  18.288  0.00  0.00    +0.000 C 
ATOM     25  C   UNL     1      -0.111  11.572  18.876  0.00  0.00    +0.000 A 
ATOM     26  C   UNL     1      -0.444  11.184  20.169  0.00  0.00    +0.000 A 
ATOM     27  C   UNL     1       0.028   9.978  20.755  0.00  0.00    +0.000 A 
ATOM     28  C   UNL     1      -0.357   9.808  22.202  0.00  0.00    +0.000 C 
ATOM     29  C   UNL     1       0.840   9.087  19.983  0.00  0.00    +0.000 A 
ATOM     30  C   UNL     1       1.220   9.507  18.688  0.00  0.00    +0.000 A 
ATOM     31  C   UNL     1       2.203   8.822  17.782  0.00  0.00    +0.000 C 
ATOM     32  C   UNL     1       0.724  10.731  18.150  0.00  0.00    +0.000 A 
ENDBRANCH  21  29
ENDBRANCH  19  21
ENDBRANCH   1  19
TORSDOF 4
ENDMDL
MODEL 7
REMARK VINA RESULT:      -6.9      5.474     11.223
REMARK  Name = 
REMARK  7 active torsions:
REMARK  status: ('A' for Active; 'I' for Inactive)
REMARK    1  A    between atoms: C_1  and  C_2
REMARK    2  A    between atoms: C_4  and  C_5
REMARK    3  A    between atoms: C_6  and  S_7
REMARK    4  A    between atoms: S_7  and  N_10
REMARK    5  A    between atoms: N_10  and  C_11
REMARK    6  A    between atoms: C_16  and  C_17
REMARK    7  A    between atoms: C_28  and  C_29
REMARK                            x       y       z     vdW  Elec       q    Type
REMARK                         _______ _______ _______ _____ _____    ______ ____
ROOT
ATOM      1  C   UNL     1       3.185   5.571  19.516  0.00  0.00    +0.000 A 
ATOM      2  C   UNL     1       2.639   4.627  20.413  0.00  0.00    +0.000 A 
ATOM      3  C   UNL     1       3.053   3.275  20.399  0.00  0.00    +0.000 A 
ATOM      4  C   UNL     1       3.908   2.811  19.407  0.00  0.00    +0.000 A 
ATOM      5  C   UNL     1       4.435   3.718  18.490  0.00  0.00    +0.000 A 
ATOM      6  C   UNL     1       4.215   5.110  18.662  0.00  0.00    +0.000 A 
ENDROOT
BRANCH   6   7
ATOM      7  C   UNL     1       5.540   5.863  18.632  0.00  0.00    +0.000 A 
ATOM      8  N   UNL     1       5.741   6.717  17.651  0.00  0.00    +0.000 NA
ATOM      9  C   UNL     1       6.073   5.937  16.497  0.00  0.00    +0.000 A 
ATOM     10  C   UNL     1       5.377   6.142  15.310  0.00  0.00    +0.000 A 
ATOM     11  C   UNL     1       5.336   5.122  14.357  0.00  0.00    +0.000 A 
ATOM     12  C   UNL     1       6.049   3.929  14.566  0.00  0.00    +0.000 A 
ATOM     13  C   UNL     1       6.857   3.762  15.697  0.00  0.00    +0.000 A 
ATOM     14  C   UNL     1       6.852   4.759  16.667  0.00  0.00    +0.000 A 
ATOM     15  N   UNL     1       7.419   4.535  17.945  0.00  0.00    +0.000 N 
ATOM     16  C   UNL     1       6.819   5.140  19.048  0.00  0.00    +0.000 A 
ATOM     17  O   UNL     1       7.181   5.090  20.207  0.00  0.00    +0.000 OA
ATOM     18  H   UNL     1       8.130   3.841  18.099  0.00  0.00    +0.000 HD
ENDBRANCH   6   7
BRANCH   1  19
ATOM     19  N   UNL     1       2.963   7.000  19.765  0.00  0.00    +0.000 N 
ATOM     20  H   UNL     1       2.411   7.120  20.618  0.00  0.00    +0.000 HD
BRANCH  19  21
ATOM     21  S   UNL     1       2.205   8.053  18.616  0.00  0.00    +0.000 S 
ATOM     22  O   UNL     1       1.151   7.248  18.030  0.00  0.00    +0.000 OA
ATOM     23  O   UNL     1       3.253   8.631  17.811  0.00  0.00    +0.000 OA
BRANCH  21  29
ATOM     24  C   UNL     1      -0.892  12.565  21.609  0.00  0.00    +0.000 C 
ATOM     25  C   UNL     1      -0.136  11.481  20.892  0.00  0.00    +0.000 A 
ATOM     26  C   UNL     1       0.632  11.756  19.766  0.00  0.00    +0.000 A 
ATOM     27  C   UNL     1       1.351  10.752  19.062  0.00  0.00    +0.000 A 
ATOM     28  C   UNL     1       2.022  11.246  17.807  0.00  0.00    +0.000 C 
ATOM     29  C   UNL     1       1.340   9.404  19.544  0.00  0.00    +0.000 A 
ATOM     30  C   UNL     1       0.518   9.116  20.658  0.00  0.00    +0.000 A 
ATOM     31  C   UNL     1       0.216   7.754  21.214  0.00  0.00    +0.000 C 
ATOM     32  C   UNL     1      -0.190  10.161  21.324  0.00  0.00    +0.000 A 
ENDBRANCH  21  29
ENDBRANCH  19  21
ENDBRANCH   1  19
TORSDOF 4
ENDMDL
MODEL 8
REMARK VINA RESULT:      -6.8      3.077      6.483
REMARK  Name = 
REMARK  7 active torsions:
REMARK  status: ('A' for Active; 'I' for Inactive)
REMARK    1  A    between atoms: C_1  and  C_2
REMARK    2  A    between atoms: C_4  and  C_5
REMARK    3  A    between atoms: C_6  and  S_7
REMARK    4  A    between atoms: S_7  and  N_10
REMARK    5  A    between atoms: N_10  and  C_11
REMARK    6  A    between atoms: C_16  and  C_17
REMARK    7  A    between atoms: C_28  and  C_29
REMARK                            x       y       z     vdW  Elec       q    Type
REMARK                         _______ _______ _______ _____ _____    ______ ____
ROOT
ATOM      1  C   UNL     1      -0.954  11.325  21.835  0.00  0.00    +0.000 A 
ATOM      2  C   UNL     1      -0.490  10.818  23.069  0.00  0.00    +0.000 A 
ATOM      3  C   UNL     1       0.042   9.512  23.174  0.00  0.00    +0.000 A 
ATOM      4  C   UNL     1      -0.008   8.643  22.090  0.00  0.00    +0.000 A 
ATOM      5  C   UNL     1      -0.491   9.110  20.870  0.00  0.00    +0.000 A 
ATOM      6  C   UNL     1      -0.788  10.489  20.705  0.00  0.00    +0.000 A 
ENDROOT
BRANCH   6   7
ATOM      7  C   UNL     1      -0.072  11.042  19.479  0.00  0.00    +0.000 A 
ATOM      8  N   UNL     1      -0.591  12.096  18.886  0.00  0.00    +0.000 NA
ATOM      9  C   UNL     1      -1.701  11.622  18.116  0.00  0.00    +0.000 A 
ATOM     10  C   UNL     1      -2.943  12.231  18.263  0.00  0.00    +0.000 A 
ATOM     11  C   UNL     1      -4.096  11.523  17.916  0.00  0.00    +0.000 A 
ATOM     12  C   UNL     1      -3.996  10.236  17.362  0.00  0.00    +0.000 A 
ATOM     13  C   UNL     1      -2.748   9.664  17.090  0.00  0.00    +0.000 A 
ATOM     14  C   UNL     1      -1.605  10.351  17.485  0.00  0.00    +0.000 A 
ATOM     15  N   UNL     1      -0.339   9.717  17.494  0.00  0.00    +0.000 N 
ATOM     16  C   UNL     1       0.570  10.072  18.489  0.00  0.00    +0.000 A 
ATOM     17  O   UNL     1       1.704   9.663  18.634  0.00  0.00    +0.000 OA
ATOM     18  H   UNL     1      -0.137   8.920  16.915  0.00  0.00    +0.000 HD
ENDBRANCH   6   7
BRANCH   1  19
ATOM     19  N   UNL     1      -1.204  12.765  21.707  0.00  0.00    +0.000 N 
ATOM     20  H   UNL     1      -1.619  12.964  20.794  0.00  0.00    +0.000 HD
BRANCH  19  21
ATOM     21  S   UNL     1       0.042  13.958  21.877  0.00  0.00    +0.000 S 
ATOM     22  O   UNL     1       1.273  13.230  21.641  0.00  0.00    +0.000 OA
ATOM     23  O   UNL     1      -0.201  14.655  23.117  0.00  0.00    +0.000 OA
BRANCH  21  29
ATOM     24  C   UNL     1      -0.397  18.166  17.293  0.00  0.00    +0.000 C 
ATOM     25  C   UNL     1      -0.296  17.144  18.391  0.00  0.00    +0.000 A 
ATOM     26  C   UNL     1      -1.402  16.791  19.155  0.00  0.00    +0.000 A 
ATOM     27  C   UNL     1      -1.337  15.834  20.205  0.00  0.00    +0.000 A 
ATOM     28  C   UNL     1      -2.621  15.686  20.980  0.00  0.00    +0.000 C 
ATOM     29  C   UNL     1      -0.104  15.157  20.471  0.00  0.00    +0.000 A 
ATOM     30  C   UNL     1       1.032  15.556  19.728  0.00  0.00    +0.000 A 
ATOM     31  C   UNL     1       2.448  15.114  19.961  0.00  0.00    +0.000 C 
ATOM     32  C   UNL     1       0.913  16.526  18.690  0.00  0.00    +0.000 A 
ENDBRANCH  21  29
ENDBRANCH  19  21
ENDBRANCH   1  19
TORSDOF 4
ENDMDL
MODEL 9
REMARK VINA RESULT:      -6.8      5.998     11.283
REMARK  Name = 
REMARK  7 active torsions:
REMARK  status: ('A' for Active; 'I' for Inactive)
REMARK    1  A    between atoms: C_1  and  C_2
REMARK    2  A    between atoms: C_4  and  C_5
REMARK    3  A    between atoms: C_6  and  S_7
REMARK    4  A    between atoms: S_7  and  N_10
REMARK    5  A    between atoms: N_10  and  C_11
REMARK    6  A    between atoms: C_16  and  C_17
REMARK    7  A    between atoms: C_28  and  C_29
REMARK                            x       y       z     vdW  Elec       q    Type
REMARK                         _______ _______ _______ _____ _____    ______ ____
ROOT
ATOM      1  C   UNL     1       2.111   4.620  18.257  0.00  0.00    +0.000 A 
ATOM      2  C   UNL     1       1.388   3.564  18.854  0.00  0.00    +0.000 A 
ATOM      3  C   UNL     1       1.916   2.254  18.915  0.00  0.00    +0.000 A 
ATOM      4  C   UNL     1       3.103   1.943  18.261  0.00  0.00    +0.000 A 
ATOM      5  C   UNL     1       3.818   2.962  17.636  0.00  0.00    +0.000 A 
ATOM      6  C   UNL     1       3.413   4.314  17.794  0.00  0.00    +0.000 A 
ENDROOT
BRANCH   6   7
ATOM      7  C   UNL     1       4.583   5.166  18.270  0.00  0.00    +0.000 A 
ATOM      8  N   UNL     1       4.921   6.209  17.543  0.00  0.00    +0.000 NA
ATOM      9  C   UNL     1       5.650   5.702  16.420  0.00  0.00    +0.000 A 
ATOM     10  C   UNL     1       5.273   6.078  15.135  0.00  0.00    +0.000 A 
ATOM     11  C   UNL     1       5.626   5.265  14.055  0.00  0.00    +0.000 A 
ATOM     12  C   UNL     1       6.412   4.119  14.259  0.00  0.00    +0.000 A 
ATOM     13  C   UNL     1       6.905   3.801  15.529  0.00  0.00    +0.000 A 
ATOM     14  C   UNL     1       6.507   4.583  16.609  0.00  0.00    +0.000 A 
ATOM     15  N   UNL     1       6.739   4.160  17.940  0.00  0.00    +0.000 N 
ATOM     16  C   UNL     1       5.791   4.484  18.909  0.00  0.00    +0.000 A 
ATOM     17  O   UNL     1       5.836   4.238  20.098  0.00  0.00    +0.000 OA
ATOM     18  H   UNL     1       7.470   3.511  18.174  0.00  0.00    +0.000 HD
ENDBRANCH   6   7
BRANCH   1  19
ATOM     19  N   UNL     1       1.673   6.002  18.489  0.00  0.00    +0.000 N 
ATOM     20  H   UNL     1       2.164   6.631  17.850  0.00  0.00    +0.000 HD
BRANCH  19  21
ATOM     21  S   UNL     1       1.792   6.783  20.031  0.00  0.00    +0.000 S 
ATOM     22  O   UNL     1       3.208   6.761  20.339  0.00  0.00    +0.000 OA
ATOM     23  O   UNL     1       0.817   6.165  20.898  0.00  0.00    +0.000 OA
BRANCH  21  29
ATOM     24  C   UNL     1       0.543  12.859  19.373  0.00  0.00    +0.000 C 
ATOM     25  C   UNL     1       0.833  11.393  19.530  0.00  0.00    +0.000 A 
ATOM     26  C   UNL     1       0.559  10.723  20.718  0.00  0.00    +0.000 A 
ATOM     27  C   UNL     1       0.829   9.339  20.900  0.00  0.00    +0.000 A 
ATOM     28  C   UNL     1       0.564   8.842  22.298  0.00  0.00    +0.000 C 
ATOM     29  C   UNL     1       1.357   8.572  19.813  0.00  0.00    +0.000 A 
ATOM     30  C   UNL     1       1.685   9.264  18.625  0.00  0.00    +0.000 A 
ATOM     31  C   UNL     1       2.409   8.701  17.436  0.00  0.00    +0.000 C 
ATOM     32  C   UNL     1       1.400  10.656  18.496  0.00  0.00    +0.000 A 
ENDBRANCH  21  29
ENDBRANCH  19  21
ENDBRANCH   1  19
TORSDOF 4
ENDMDL
