MODEL 1
REMARK VINA RESULT:      -9.2      0.000      0.000
REMARK  Name = 
REMARK  5 active torsions:
REMARK  status: ('A' for Active; 'I' for Inactive)
REMARK    1  A    between atoms: C_2  and  C_19
REMARK    2  A    between atoms: N_3  and  C_4
REMARK    3  A    between atoms: C_8  and  C_9
REMARK    4  A    between atoms: C_15  and  O_16
REMARK    5  A    between atoms: C_23  and  C_24
REMARK                            x       y       z     vdW  Elec       q    Type
REMARK                         _______ _______ _______ _____ _____    ______ ____
ROOT
ATOM      1  O   UNL     1       1.364   4.869  19.121  0.00  0.00    +0.000 OA
ATOM      2  C   UNL     1       2.505   5.112  19.503  0.00  0.00    +0.000 C 
ATOM      3  N   UNL     1       3.018   6.390  19.696  0.00  0.00    +0.000 N 
ATOM      4  H   UNL     1       4.027   6.466  19.656  0.00  0.00    +0.000 HD
ENDROOT
BRANCH   3   5
ATOM      5  C   UNL     1       2.251   7.547  19.479  0.00  0.00    +0.000 A 
ATOM      6  C   UNL     1       2.237   8.125  18.210  0.00  0.00    +0.000 A 
ATOM      7  C   UNL     1       1.432   9.239  17.962  0.00  0.00    +0.000 A 
ATOM      8  C   UNL     1       0.654   9.779  18.989  0.00  0.00    +0.000 A 
ATOM      9  C   UNL     1       0.675   9.209  20.269  0.00  0.00    +0.000 A 
ATOM     10  C   UNL     1       1.513   8.119  20.517  0.00  0.00    +0.000 A 
BRANCH   9  11
ATOM     11  C   UNL     1      -0.152   9.842  21.332  0.00  0.00    +0.000 C 
ATOM     12  O   UNL     1      -0.441   9.130  22.297  0.00  0.00    +0.000 OA
ATOM     13  N   UNL     1      -0.546  11.180  21.245  0.00  0.00    +0.000 N 
ATOM     14  C   UNL     1      -0.211  12.127  20.175  0.00  0.00    +0.000 C 
ATOM     15  C   UNL     1       0.294  13.462  20.713  0.00  0.00    +0.000 C 
ATOM     16  C   UNL     1      -0.616  14.036  21.789  0.00  0.00    +0.000 C 
ATOM     17  C   UNL     1      -0.879  13.009  22.888  0.00  0.00    +0.000 C 
ATOM     18  C   UNL     1      -1.429  11.707  22.288  0.00  0.00    +0.000 C 
BRANCH  17  19
ATOM     19  O   UNL     1      -1.785  13.562  23.840  0.00  0.00    +0.000 OA
ATOM     20  H   UNL     1      -1.624  13.133  24.697  0.00  0.00    +0.000 HD
ENDBRANCH  17  19
ENDBRANCH   9  11
ENDBRANCH   3   5
BRANCH   2  21
ATOM     21  C   UNL     1       3.497   4.066  19.713  0.00  0.00    +0.000 A 
ATOM     22  N   UNL     1       3.204   2.937  20.444  0.00  0.00    +0.000 NA
ATOM     23  N   UNL     1       4.251   2.131  20.400  0.00  0.00    +0.000 NA
ATOM     24  N   UNL     1       5.198   2.745  19.677  0.00  0.00    +0.000 N 
ATOM     25  C   UNL     1       4.812   3.997  19.265  0.00  0.00    +0.000 A 
ATOM     26  H   UNL     1       6.084   2.274  19.541  0.00  0.00    +0.000 HD
BRANCH  25  27
ATOM     27  C   UNL     1       5.710   4.937  18.598  0.00  0.00    +0.000 A 
ATOM     28  C   UNL     1       5.514   5.308  17.258  0.00  0.00    +0.000 A 
ATOM     29  C   UNL     1       6.403   6.177  16.618  0.00  0.00    +0.000 A 
ATOM     30  C   UNL     1       7.499   6.689  17.305  0.00  0.00    +0.000 A 
ATOM     31  C   UNL     1       7.711   6.330  18.633  0.00  0.00    +0.000 A 
ATOM     32  C   UNL     1       6.826   5.457  19.271  0.00  0.00    +0.000 A 
ENDBRANCH  25  27
ENDBRANCH   2  21
TORSDOF 5
ENDMDL
MODEL 2
REMARK VINA RESULT:      -9.1      0.963      1.112
REMARK  Name = 
REMARK  5 active torsions:
REMARK  status: ('A' for Active; 'I' for Inactive)
REMARK    1  A    between atoms: C_2  and  C_19
REMARK    2  A    between atoms: N_3  and  C_4
REMARK    3  A    between atoms: C_8  and  C_9
REMARK    4  A    between atoms: C_15  and  O_16
REMARK    5  A    between atoms: C_23  and  C_24
REMARK                            x       y       z     vdW  Elec       q    Type
REMARK                         _______ _______ _______ _____ _____    ______ ____
ROOT
ATOM      1  O   UNL     1       1.499   4.902  18.624  0.00  0.00    +0.000 OA
ATOM      2  C   UNL     1       2.520   5.011  19.298  0.00  0.00    +0.000 C 
ATOM      3  N   UNL     1       2.984   6.204  19.841  0.00  0.00    +0.000 N 
ATOM      4  H   UNL     1       3.975   6.233  20.050  0.00  0.00    +0.000 HD
ENDROOT
BRANCH   3   5
ATOM      5  C   UNL     1       2.300   7.420  19.675  0.00  0.00    +0.000 A 
ATOM      6  C   UNL     1       2.199   7.974  18.399  0.00  0.00    +0.000 A 
ATOM      7  C   UNL     1       1.470   9.150  18.208  0.00  0.00    +0.000 A 
ATOM      8  C   UNL     1       0.856   9.775  19.296  0.00  0.00    +0.000 A 
ATOM      9  C   UNL     1       0.966   9.229  20.582  0.00  0.00    +0.000 A 
ATOM     10  C   UNL     1       1.729   8.074  20.769  0.00  0.00    +0.000 A 
BRANCH   9  11
ATOM     11  C   UNL     1       0.316   9.951  21.708  0.00  0.00    +0.000 C 
ATOM     12  O   UNL     1       0.730   9.686  22.840  0.00  0.00    +0.000 OA
ATOM     13  N   UNL     1      -0.685  10.900  21.482  0.00  0.00    +0.000 N 
ATOM     14  C   UNL     1      -1.208  11.330  20.180  0.00  0.00    +0.000 C 
ATOM     15  C   UNL     1      -1.280  12.848  20.051  0.00  0.00    +0.000 C 
ATOM     16  C   UNL     1      -1.965  13.500  21.243  0.00  0.00    +0.000 C 
ATOM     17  C   UNL     1      -1.334  13.039  22.556  0.00  0.00    +0.000 C 
ATOM     18  C   UNL     1      -1.335  11.506  22.645  0.00  0.00    +0.000 C 
BRANCH  17  19
ATOM     19  O   UNL     1      -2.046  13.620  23.647  0.00  0.00    +0.000 OA
ATOM     20  H   UNL     1      -2.722  14.216  23.285  0.00  0.00    +0.000 HD
ENDBRANCH  17  19
ENDBRANCH   9  11
ENDBRANCH   3   5
BRANCH   2  21
ATOM     21  C   UNL     1       3.425   3.893  19.530  0.00  0.00    +0.000 A 
ATOM     22  N   UNL     1       3.255   3.044  20.601  0.00  0.00    +0.000 NA
ATOM     23  N   UNL     1       4.161   2.085  20.516  0.00  0.00    +0.000 NA
ATOM     24  N   UNL     1       4.904   2.331  19.429  0.00  0.00    +0.000 N 
ATOM     25  C   UNL     1       4.535   3.492  18.794  0.00  0.00    +0.000 A 
ATOM     26  H   UNL     1       5.661   1.695  19.206  0.00  0.00    +0.000 HD
BRANCH  25  27
ATOM     27  C   UNL     1       5.280   4.072  17.679  0.00  0.00    +0.000 A 
ATOM     28  C   UNL     1       4.786   4.021  16.366  0.00  0.00    +0.000 A 
ATOM     29  C   UNL     1       5.527   4.543  15.302  0.00  0.00    +0.000 A 
ATOM     30  C   UNL     1       6.769   5.125  15.531  0.00  0.00    +0.000 A 
ATOM     31  C   UNL     1       7.277   5.181  16.826  0.00  0.00    +0.000 A 
ATOM     32  C   UNL     1       6.539   4.654  17.890  0.00  0.00    +0.000 A 
ENDBRANCH  25  27
ENDBRANCH   2  21
TORSDOF 5
ENDMDL
MODEL 3
REMARK VINA RESULT:      -9.0      3.254      3.868
REMARK  Name = 
REMARK  5 active torsions:
REMARK  status: ('A' for Active; 'I' for Inactive)
REMARK    1  A    between atoms: C_2  and  C_19
REMARK    2  A    between atoms: N_3  and  C_4
REMARK    3  A    between atoms: C_8  and  C_9
REMARK    4  A    between atoms: C_15  and  O_16
REMARK    5  A    between atoms: C_23  and  C_24
REMARK                            x       y       z     vdW  Elec       q    Type
REMARK                         _______ _______ _______ _____ _____    ______ ____
ROOT
ATOM      1  O   UNL     1       2.310   7.244  19.918  0.00  0.00    +0.000 OA
ATOM      2  C   UNL     1       2.436   7.071  18.709  0.00  0.00    +0.000 C 
ATOM      3  N   UNL     1       2.118   8.016  17.739  0.00  0.00    +0.000 N 
ATOM      4  H   UNL     1       1.924   7.647  16.816  0.00  0.00    +0.000 HD
ENDROOT
BRANCH   3   5
ATOM      5  C   UNL     1       1.625   9.290  18.066  0.00  0.00    +0.000 A 
ATOM      6  C   UNL     1       2.519  10.353  18.192  0.00  0.00    +0.000 A 
ATOM      7  C   UNL     1       2.038  11.637  18.457  0.00  0.00    +0.000 A 
ATOM      8  C   UNL     1       0.666  11.852  18.609  0.00  0.00    +0.000 A 
ATOM      9  C   UNL     1      -0.234  10.784  18.496  0.00  0.00    +0.000 A 
ATOM     10  C   UNL     1       0.258   9.497  18.269  0.00  0.00    +0.000 A 
BRANCH   9  11
ATOM     11  C   UNL     1      -1.682  11.064  18.694  0.00  0.00    +0.000 C 
ATOM     12  O   UNL     1      -1.990  11.645  19.738  0.00  0.00    +0.000 OA
ATOM     13  N   UNL     1      -2.629  10.714  17.727  0.00  0.00    +0.000 N 
ATOM     14  C   UNL     1      -2.365  10.075  16.432  0.00  0.00    +0.000 C 
ATOM     15  C   UNL     1      -3.076  10.777  15.279  0.00  0.00    +0.000 C 
ATOM     16  C   UNL     1      -4.551  11.016  15.566  0.00  0.00    +0.000 C 
ATOM     17  C   UNL     1      -4.739  11.726  16.906  0.00  0.00    +0.000 C 
ATOM     18  C   UNL     1      -4.042  10.946  18.030  0.00  0.00    +0.000 C 
BRANCH  17  19
ATOM     19  O   UNL     1      -6.134  11.872  17.167  0.00  0.00    +0.000 OA
ATOM     20  H   UNL     1      -6.306  12.805  17.378  0.00  0.00    +0.000 HD
ENDBRANCH  17  19
ENDBRANCH   9  11
ENDBRANCH   3   5
BRANCH   2  21
ATOM     21  C   UNL     1       2.856   5.797  18.141  0.00  0.00    +0.000 A 
ATOM     22  N   UNL     1       1.942   4.817  17.826  0.00  0.00    +0.000 NA
ATOM     23  N   UNL     1       2.590   3.815  17.257  0.00  0.00    +0.000 NA
ATOM     24  N   UNL     1       3.890   4.141  17.232  0.00  0.00    +0.000 N 
ATOM     25  C   UNL     1       4.137   5.352  17.831  0.00  0.00    +0.000 A 
ATOM     26  H   UNL     1       4.546   3.481  16.832  0.00  0.00    +0.000 HD
BRANCH  25  27
ATOM     27  C   UNL     1       5.481   5.869  18.077  0.00  0.00    +0.000 A 
ATOM     28  C   UNL     1       6.031   6.883  17.278  0.00  0.00    +0.000 A 
ATOM     29  C   UNL     1       7.333   7.342  17.498  0.00  0.00    +0.000 A 
ATOM     30  C   UNL     1       8.106   6.796  18.518  0.00  0.00    +0.000 A 
ATOM     31  C   UNL     1       7.578   5.786  19.318  0.00  0.00    +0.000 A 
ATOM     32  C   UNL     1       6.278   5.323  19.095  0.00  0.00    +0.000 A 
ENDBRANCH  25  27
ENDBRANCH   2  21
TORSDOF 5
ENDMDL
MODEL 4
REMARK VINA RESULT:      -9.0      2.528      9.097
REMARK  Name = 
REMARK  5 active torsions:
REMARK  status: ('A' for Active; 'I' for Inactive)
REMARK    1  A    between atoms: C_2  and  C_19
REMARK    2  A    between atoms: N_3  and  C_4
REMARK    3  A    between atoms: C_8  and  C_9
REMARK    4  A    between atoms: C_15  and  O_16
REMARK    5  A    between atoms: C_23  and  C_24
REMARK                            x       y       z     vdW  Elec       q    Type
REMARK                         _______ _______ _______ _____ _____    ______ ____
ROOT
ATOM      1  O   UNL     1      -0.053   8.312  21.412  0.00  0.00    +0.000 OA
ATOM      2  C   UNL     1       0.683   8.948  20.663  0.00  0.00    +0.000 C 
ATOM      3  N   UNL     1       1.691   8.390  19.884  0.00  0.00    +0.000 N 
ATOM      4  H   UNL     1       2.431   9.023  19.607  0.00  0.00    +0.000 HD
ENDROOT
BRANCH   3   5
ATOM      5  C   UNL     1       1.953   7.009  19.874  0.00  0.00    +0.000 A 
ATOM      6  C   UNL     1       1.667   6.255  21.012  0.00  0.00    +0.000 A 
ATOM      7  C   UNL     1       1.865   4.873  20.996  0.00  0.00    +0.000 A 
ATOM      8  C   UNL     1       2.363   4.251  19.849  0.00  0.00    +0.000 A 
ATOM      9  C   UNL     1       2.664   5.007  18.708  0.00  0.00    +0.000 A 
ATOM     10  C   UNL     1       2.499   6.394  18.745  0.00  0.00    +0.000 A 
BRANCH   9  11
ATOM     11  C   UNL     1       3.217   4.298  17.523  0.00  0.00    +0.000 C 
ATOM     12  O   UNL     1       2.407   3.676  16.831  0.00  0.00    +0.000 OA
ATOM     13  N   UNL     1       4.576   4.368  17.202  0.00  0.00    +0.000 N 
ATOM     14  C   UNL     1       5.609   5.122  17.921  0.00  0.00    +0.000 C 
ATOM     15  C   UNL     1       6.481   5.955  16.986  0.00  0.00    +0.000 C 
ATOM     16  C   UNL     1       7.006   5.148  15.808  0.00  0.00    +0.000 C 
ATOM     17  C   UNL     1       5.866   4.432  15.085  0.00  0.00    +0.000 C 
ATOM     18  C   UNL     1       5.058   3.575  16.070  0.00  0.00    +0.000 C 
BRANCH  17  19
ATOM     19  O   UNL     1       6.406   3.636  14.032  0.00  0.00    +0.000 OA
ATOM     20  H   UNL     1       6.039   2.740  14.111  0.00  0.00    +0.000 HD
ENDBRANCH  17  19
ENDBRANCH   9  11
ENDBRANCH   3   5
BRANCH   2  21
ATOM     21  C   UNL     1       0.639  10.402  20.575  0.00  0.00    +0.000 A 
ATOM     22  N   UNL     1       1.427  11.192  21.381  0.00  0.00    +0.000 NA
ATOM     23  N   UNL     1       1.244  12.454  21.029  0.00  0.00    +0.000 NA
ATOM     24  N   UNL     1       0.343  12.466  20.037  0.00  0.00    +0.000 N 
ATOM     25  C   UNL     1      -0.127  11.210  19.742  0.00  0.00    +0.000 A 
ATOM     26  H   UNL     1       0.072  13.358  19.641  0.00  0.00    +0.000 HD
BRANCH  25  27
ATOM     27  C   UNL     1      -1.227  10.960  18.813  0.00  0.00    +0.000 A 
ATOM     28  C   UNL     1      -1.089  10.061  17.744  0.00  0.00    +0.000 A 
ATOM     29  C   UNL     1      -2.134   9.860  16.837  0.00  0.00    +0.000 A 
ATOM     30  C   UNL     1      -3.332  10.552  16.984  0.00  0.00    +0.000 A 
ATOM     31  C   UNL     1      -3.486  11.450  18.036  0.00  0.00    +0.000 A 
ATOM     32  C   UNL     1      -2.439  11.656  18.939  0.00  0.00    +0.000 A 
ENDBRANCH  25  27
ENDBRANCH   2  21
TORSDOF 5
ENDMDL
MODEL 5
REMARK VINA RESULT:      -8.7      3.018      9.532
REMARK  Name = 
REMARK  5 active torsions:
REMARK  status: ('A' for Active; 'I' for Inactive)
REMARK    1  A    between atoms: C_2  and  C_19
REMARK    2  A    between atoms: N_3  and  C_4
REMARK    3  A    between atoms: C_8  and  C_9
REMARK    4  A    between atoms: C_15  and  O_16
REMARK    5  A    between atoms: C_23  and  C_24
REMARK                            x       y       z     vdW  Elec       q    Type
REMARK                         _______ _______ _______ _____ _____    ______ ____
ROOT
ATOM      1  O   UNL     1      -0.528   9.668  20.148  0.00  0.00    +0.000 OA
ATOM      2  C   UNL     1       0.275  10.165  19.363  0.00  0.00    +0.000 C 
ATOM      3  N   UNL     1       1.416   9.526  18.891  0.00  0.00    +0.000 N 
ATOM      4  H   UNL     1       2.153  10.137  18.559  0.00  0.00    +0.000 HD
ENDROOT
BRANCH   3   5
ATOM      5  C   UNL     1       1.753   8.216  19.269  0.00  0.00    +0.000 A 
ATOM      6  C   UNL     1       1.548   7.816  20.589  0.00  0.00    +0.000 A 
ATOM      7  C   UNL     1       1.820   6.499  20.966  0.00  0.00    +0.000 A 
ATOM      8  C   UNL     1       2.311   5.591  20.026  0.00  0.00    +0.000 A 
ATOM      9  C   UNL     1       2.532   5.992  18.701  0.00  0.00    +0.000 A 
ATOM     10  C   UNL     1       2.293   7.321  18.342  0.00  0.00    +0.000 A 
BRANCH   9  11
ATOM     11  C   UNL     1       3.081   4.991  17.747  0.00  0.00    +0.000 C 
ATOM     12  O   UNL     1       2.266   4.223  17.231  0.00  0.00    +0.000 OA
ATOM     13  N   UNL     1       4.444   4.956  17.436  0.00  0.00    +0.000 N 
ATOM     14  C   UNL     1       5.484   5.855  17.947  0.00  0.00    +0.000 C 
ATOM     15  C   UNL     1       6.378   6.404  16.838  0.00  0.00    +0.000 C 
ATOM     16  C   UNL     1       6.898   5.311  15.917  0.00  0.00    +0.000 C 
ATOM     17  C   UNL     1       5.752   4.448  15.391  0.00  0.00    +0.000 C 
ATOM     18  C   UNL     1       4.921   3.889  16.554  0.00  0.00    +0.000 C 
BRANCH  17  19
ATOM     19  O   UNL     1       6.286   3.399  14.586  0.00  0.00    +0.000 OA
ATOM     20  H   UNL     1       7.166   3.672  14.278  0.00  0.00    +0.000 HD
ENDBRANCH  17  19
ENDBRANCH   9  11
ENDBRANCH   3   5
BRANCH   2  21
ATOM     21  C   UNL     1       0.164  11.542  18.900  0.00  0.00    +0.000 A 
ATOM     22  N   UNL     1       1.192  12.441  19.074  0.00  0.00    +0.000 NA
ATOM     23  N   UNL     1       0.852  13.577  18.490  0.00  0.00    +0.000 NA
ATOM     24  N   UNL     1      -0.374  13.411  17.975  0.00  0.00    +0.000 N 
ATOM     25  C   UNL     1      -0.894  12.170  18.252  0.00  0.00    +0.000 A 
ATOM     26  H   UNL     1      -0.804  14.189  17.489  0.00  0.00    +0.000 HD
BRANCH  25  27
ATOM     27  C   UNL     1      -2.270  11.787  17.944  0.00  0.00    +0.000 A 
ATOM     28  C   UNL     1      -3.307  11.986  18.869  0.00  0.00    +0.000 A 
ATOM     29  C   UNL     1      -4.613  11.578  18.579  0.00  0.00    +0.000 A 
ATOM     30  C   UNL     1      -4.903  10.969  17.363  0.00  0.00    +0.000 A 
ATOM     31  C   UNL     1      -3.887  10.760  16.435  0.00  0.00    +0.000 A 
ATOM     32  C   UNL     1      -2.580  11.162  16.726  0.00  0.00    +0.000 A 
ENDBRANCH  25  27
ENDBRANCH   2  21
TORSDOF 5
ENDMDL
MODEL 6
REMARK VINA RESULT:      -8.7      2.652      4.230
REMARK  Name = 
REMARK  5 active torsions:
REMARK  status: ('A' for Active; 'I' for Inactive)
REMARK    1  A    between atoms: C_2  and  C_19
REMARK    2  A    between atoms: N_3  and  C_4
REMARK    3  A    between atoms: C_8  and  C_9
REMARK    4  A    between atoms: C_15  and  O_16
REMARK    5  A    between atoms: C_23  and  C_24
REMARK                            x       y       z     vdW  Elec       q    Type
REMARK                         _______ _______ _______ _____ _____    ______ ____
ROOT
ATOM      1  O   UNL     1       1.805   7.936  19.888  0.00  0.00    +0.000 OA
ATOM      2  C   UNL     1       2.155   7.999  18.712  0.00  0.00    +0.000 C 
ATOM      3  N   UNL     1       1.660   8.913  17.788  0.00  0.00    +0.000 N 
ATOM      4  H   UNL     1       1.744   8.642  16.816  0.00  0.00    +0.000 HD
ENDROOT
BRANCH   3   5
ATOM      5  C   UNL     1       0.702   9.882  18.132  0.00  0.00    +0.000 A 
ATOM      6  C   UNL     1      -0.631   9.674  17.777  0.00  0.00    +0.000 A 
ATOM      7  C   UNL     1      -1.604  10.598  18.164  0.00  0.00    +0.000 A 
ATOM      8  C   UNL     1      -1.240  11.733  18.892  0.00  0.00    +0.000 A 
ATOM      9  C   UNL     1       0.100  11.951  19.240  0.00  0.00    +0.000 A 
ATOM     10  C   UNL     1       1.072  11.042  18.815  0.00  0.00    +0.000 A 
BRANCH   9  11
ATOM     11  C   UNL     1       0.436  13.189  19.993  0.00  0.00    +0.000 C 
ATOM     12  O   UNL     1       0.968  14.096  19.347  0.00  0.00    +0.000 OA
ATOM     13  N   UNL     1       0.130  13.320  21.351  0.00  0.00    +0.000 N 
ATOM     14  C   UNL     1      -0.549  12.331  22.196  0.00  0.00    +0.000 C 
ATOM     15  C   UNL     1      -1.679  12.944  23.019  0.00  0.00    +0.000 C 
ATOM     16  C   UNL     1      -1.243  14.200  23.758  0.00  0.00    +0.000 C 
ATOM     17  C   UNL     1      -0.589  15.197  22.803  0.00  0.00    +0.000 C 
ATOM     18  C   UNL     1       0.568  14.534  22.041  0.00  0.00    +0.000 C 
BRANCH  17  19
ATOM     19  O   UNL     1      -0.137  16.329  23.544  0.00  0.00    +0.000 OA
ATOM     20  H   UNL     1      -0.858  16.981  23.571  0.00  0.00    +0.000 HD
ENDBRANCH  17  19
ENDBRANCH   9  11
ENDBRANCH   3   5
BRANCH   2  21
ATOM     21  C   UNL     1       3.080   7.041  18.121  0.00  0.00    +0.000 A 
ATOM     22  N   UNL     1       3.995   7.425  17.166  0.00  0.00    +0.000 NA
ATOM     23  N   UNL     1       4.750   6.380  16.873  0.00  0.00    +0.000 NA
ATOM     24  N   UNL     1       4.311   5.350  17.609  0.00  0.00    +0.000 N 
ATOM     25  C   UNL     1       3.218   5.681  18.373  0.00  0.00    +0.000 A 
ATOM     26  H   UNL     1       4.773   4.454  17.511  0.00  0.00    +0.000 HD
BRANCH  25  27
ATOM     27  C   UNL     1       2.451   4.706  19.144  0.00  0.00    +0.000 A 
ATOM     28  C   UNL     1       2.553   4.638  20.543  0.00  0.00    +0.000 A 
ATOM     29  C   UNL     1       1.845   3.674  21.267  0.00  0.00    +0.000 A 
ATOM     30  C   UNL     1       1.024   2.765  20.608  0.00  0.00    +0.000 A 
ATOM     31  C   UNL     1       0.913   2.815  19.221  0.00  0.00    +0.000 A 
ATOM     32  C   UNL     1       1.625   3.774  18.496  0.00  0.00    +0.000 A 
ENDBRANCH  25  27
ENDBRANCH   2  21
TORSDOF 5
ENDMDL
MODEL 7
REMARK VINA RESULT:      -8.7      2.747      4.159
REMARK  Name = 
REMARK  5 active torsions:
REMARK  status: ('A' for Active; 'I' for Inactive)
REMARK    1  A    between atoms: C_2  and  C_19
REMARK    2  A    between atoms: N_3  and  C_4
REMARK    3  A    between atoms: C_8  and  C_9
REMARK    4  A    between atoms: C_15  and  O_16
REMARK    5  A    between atoms: C_23  and  C_24
REMARK                            x       y       z     vdW  Elec       q    Type
REMARK                         _______ _______ _______ _____ _____    ______ ____
ROOT
ATOM      1  O   UNL     1       2.301   8.688  17.449  0.00  0.00    +0.000 OA
ATOM      2  C   UNL     1       2.623   7.739  18.158  0.00  0.00    +0.000 C 
ATOM      3  N   UNL     1       2.249   7.584  19.489  0.00  0.00    +0.000 N 
ATOM      4  H   UNL     1       2.847   6.985  20.045  0.00  0.00    +0.000 HD
ENDROOT
BRANCH   3   5
ATOM      5  C   UNL     1       1.437   8.519  20.153  0.00  0.00    +0.000 A 
ATOM      6  C   UNL     1       1.203   8.367  21.519  0.00  0.00    +0.000 A 
ATOM      7  C   UNL     1       0.448   9.321  22.205  0.00  0.00    +0.000 A 
ATOM      8  C   UNL     1      -0.082  10.417  21.520  0.00  0.00    +0.000 A 
ATOM      9  C   UNL     1       0.140  10.566  20.145  0.00  0.00    +0.000 A 
ATOM     10  C   UNL     1       0.864   9.587  19.459  0.00  0.00    +0.000 A 
BRANCH   9  11
ATOM     11  C   UNL     1      -0.470  11.738  19.460  0.00  0.00    +0.000 C 
ATOM     12  O   UNL     1      -1.675  11.658  19.207  0.00  0.00    +0.000 OA
ATOM     13  N   UNL     1       0.284  12.875  19.154  0.00  0.00    +0.000 N 
ATOM     14  C   UNL     1       1.702  13.096  19.460  0.00  0.00    +0.000 C 
ATOM     15  C   UNL     1       1.957  14.456  20.102  0.00  0.00    +0.000 C 
ATOM     16  C   UNL     1       1.302  15.593  19.332  0.00  0.00    +0.000 C 
ATOM     17  C   UNL     1      -0.181  15.311  19.095  0.00  0.00    +0.000 C 
ATOM     18  C   UNL     1      -0.366  13.951  18.405  0.00  0.00    +0.000 C 
BRANCH  17  19
ATOM     19  O   UNL     1      -0.740  16.366  18.316  0.00  0.00    +0.000 OA
ATOM     20  H   UNL     1      -1.706  16.254  18.304  0.00  0.00    +0.000 HD
ENDBRANCH  17  19
ENDBRANCH   9  11
ENDBRANCH   3   5
BRANCH   2  21
ATOM     21  C   UNL     1       3.526   6.692  17.699  0.00  0.00    +0.000 A 
ATOM     22  N   UNL     1       4.517   6.953  16.780  0.00  0.00    +0.000 NA
ATOM     23  N   UNL     1       5.229   5.852  16.614  0.00  0.00    +0.000 NA
ATOM     24  N   UNL     1       4.688   4.905  17.393  0.00  0.00    +0.000 N 
ATOM     25  C   UNL     1       3.571   5.349  18.058  0.00  0.00    +0.000 A 
ATOM     26  H   UNL     1       5.103   3.981  17.391  0.00  0.00    +0.000 HD
BRANCH  25  27
ATOM     27  C   UNL     1       2.704   4.477  18.847  0.00  0.00    +0.000 A 
ATOM     28  C   UNL     1       1.675   3.735  18.247  0.00  0.00    +0.000 A 
ATOM     29  C   UNL     1       0.826   2.935  19.018  0.00  0.00    +0.000 A 
ATOM     30  C   UNL     1       0.991   2.863  20.397  0.00  0.00    +0.000 A 
ATOM     31  C   UNL     1       2.004   3.595  21.010  0.00  0.00    +0.000 A 
ATOM     32  C   UNL     1       2.850   4.399  20.241  0.00  0.00    +0.000 A 
ENDBRANCH  25  27
ENDBRANCH   2  21
TORSDOF 5
ENDMDL
MODEL 8
REMARK VINA RESULT:      -8.6      2.925      3.953
REMARK  Name = 
REMARK  5 active torsions:
REMARK  status: ('A' for Active; 'I' for Inactive)
REMARK    1  A    between atoms: C_2  and  C_19
REMARK    2  A    between atoms: N_3  and  C_4
REMARK    3  A    between atoms: C_8  and  C_9
REMARK    4  A    between atoms: C_15  and  O_16
REMARK    5  A    between atoms: C_23  and  C_24
REMARK                            x       y       z     vdW  Elec       q    Type
REMARK                         _______ _______ _______ _____ _____    ______ ____
ROOT
ATOM      1  O   UNL     1       4.813   7.980  17.825  0.00  0.00    +0.000 OA
ATOM      2  C   UNL     1       4.150   7.017  17.450  0.00  0.00    +0.000 C 
ATOM      3  N   UNL     1       2.839   6.761  17.836  0.00  0.00    +0.000 N 
ATOM      4  H   UNL     1       2.541   5.796  17.761  0.00  0.00    +0.000 HD
ENDROOT
BRANCH   3   5
ATOM      5  C   UNL     1       2.133   7.613  18.702  0.00  0.00    +0.000 A 
ATOM      6  C   UNL     1       2.104   7.324  20.066  0.00  0.00    +0.000 A 
ATOM      7  C   UNL     1       1.459   8.194  20.947  0.00  0.00    +0.000 A 
ATOM      8  C   UNL     1       0.832   9.343  20.460  0.00  0.00    +0.000 A 
ATOM      9  C   UNL     1       0.847   9.631  19.089  0.00  0.00    +0.000 A 
ATOM     10  C   UNL     1       1.462   8.735  18.210  0.00  0.00    +0.000 A 
BRANCH   9  11
ATOM     11  C   UNL     1       0.141  10.854  18.621  0.00  0.00    +0.000 C 
ATOM     12  O   UNL     1      -0.981  10.687  18.136  0.00  0.00    +0.000 OA
ATOM     13  N   UNL     1       0.714  12.122  18.760  0.00  0.00    +0.000 N 
ATOM     14  C   UNL     1       2.010  12.437  19.371  0.00  0.00    +0.000 C 
ATOM     15  C   UNL     1       1.920  13.584  20.373  0.00  0.00    +0.000 C 
ATOM     16  C   UNL     1       1.189  14.792  19.808  0.00  0.00    +0.000 C 
ATOM     17  C   UNL     1      -0.169  14.391  19.234  0.00  0.00    +0.000 C 
ATOM     18  C   UNL     1      -0.005  13.267  18.200  0.00  0.00    +0.000 C 
BRANCH  17  19
ATOM     19  O   UNL     1      -0.792  15.537  18.657  0.00  0.00    +0.000 OA
ATOM     20  H   UNL     1      -0.802  15.422  17.692  0.00  0.00    +0.000 HD
ENDBRANCH  17  19
ENDBRANCH   9  11
ENDBRANCH   3   5
BRANCH   2  21
ATOM     21  C   UNL     1       4.708   5.964  16.611  0.00  0.00    +0.000 A 
ATOM     22  N   UNL     1       5.427   6.259  15.474  0.00  0.00    +0.000 NA
ATOM     23  N   UNL     1       5.877   5.126  14.964  0.00  0.00    +0.000 NA
ATOM     24  N   UNL     1       5.435   4.131  15.745  0.00  0.00    +0.000 N 
ATOM     25  C   UNL     1       4.639   4.585  16.768  0.00  0.00    +0.000 A 
ATOM     26  H   UNL     1       5.680   3.179  15.501  0.00  0.00    +0.000 HD
BRANCH  25  27
ATOM     27  C   UNL     1       3.903   3.699  17.668  0.00  0.00    +0.000 A 
ATOM     28  C   UNL     1       2.648   3.178  17.314  0.00  0.00    +0.000 A 
ATOM     29  C   UNL     1       1.935   2.364  18.200  0.00  0.00    +0.000 A 
ATOM     30  C   UNL     1       2.463   2.057  19.449  0.00  0.00    +0.000 A 
ATOM     31  C   UNL     1       3.705   2.567  19.818  0.00  0.00    +0.000 A 
ATOM     32  C   UNL     1       4.415   3.386  18.936  0.00  0.00    +0.000 A 
ENDBRANCH  25  27
ENDBRANCH   2  21
TORSDOF 5
ENDMDL
MODEL 9
REMARK VINA RESULT:      -8.6      2.227      2.780
REMARK  Name = 
REMARK  5 active torsions:
REMARK  status: ('A' for Active; 'I' for Inactive)
REMARK    1  A    between atoms: C_2  and  C_19
REMARK    2  A    between atoms: N_3  and  C_4
REMARK    3  A    between atoms: C_8  and  C_9
REMARK    4  A    between atoms: C_15  and  O_16
REMARK    5  A    between atoms: C_23  and  C_24
REMARK                            x       y       z     vdW  Elec       q    Type
REMARK                         _______ _______ _______ _____ _____    ______ ____
ROOT
ATOM      1  O   UNL     1       1.966   5.399  20.556  0.00  0.00    +0.000 OA
ATOM      2  C   UNL     1       2.282   5.787  19.434  0.00  0.00    +0.000 C 
ATOM      3  N   UNL     1       2.138   7.094  18.981  0.00  0.00    +0.000 N 
ATOM      4  H   UNL     1       2.090   7.205  17.975  0.00  0.00    +0.000 HD
ENDROOT
BRANCH   3   5
ATOM      5  C   UNL     1       1.618   8.116  19.792  0.00  0.00    +0.000 A 
ATOM      6  C   UNL     1       1.791   8.041  21.174  0.00  0.00    +0.000 A 
ATOM      7  C   UNL     1       1.333   9.080  21.988  0.00  0.00    +0.000 A 
ATOM      8  C   UNL     1       0.692  10.182  21.419  0.00  0.00    +0.000 A 
ATOM      9  C   UNL     1       0.505  10.255  20.032  0.00  0.00    +0.000 A 
ATOM     10  C   UNL     1       0.931   9.194  19.229  0.00  0.00    +0.000 A 
BRANCH   9  11
ATOM     11  C   UNL     1      -0.209  11.439  19.482  0.00  0.00    +0.000 C 
ATOM     12  O   UNL     1      -1.441  11.395  19.504  0.00  0.00    +0.000 OA
ATOM     13  N   UNL     1       0.491  12.550  19.000  0.00  0.00    +0.000 N 
ATOM     14  C   UNL     1       1.947  12.729  18.980  0.00  0.00    +0.000 C 
ATOM     15  C   UNL     1       2.377  14.085  19.530  0.00  0.00    +0.000 C 
ATOM     16  C   UNL     1       1.600  15.236  18.907  0.00  0.00    +0.000 C 
ATOM     17  C   UNL     1       0.094  14.998  19.010  0.00  0.00    +0.000 C 
ATOM     18  C   UNL     1      -0.279  13.640  18.398  0.00  0.00    +0.000 C 
BRANCH  17  19
ATOM     19  O   UNL     1      -0.594  16.064  18.358  0.00  0.00    +0.000 OA
ATOM     20  H   UNL     1      -1.255  15.677  17.761  0.00  0.00    +0.000 HD
ENDBRANCH  17  19
ENDBRANCH   9  11
ENDBRANCH   3   5
BRANCH   2  21
ATOM     21  C   UNL     1       2.769   4.880  18.403  0.00  0.00    +0.000 A 
ATOM     22  N   UNL     1       1.974   3.876  17.898  0.00  0.00    +0.000 NA
ATOM     23  N   UNL     1       2.637   3.270  16.928  0.00  0.00    +0.000 NA
ATOM     24  N   UNL     1       3.836   3.861  16.834  0.00  0.00    +0.000 N 
ATOM     25  C   UNL     1       4.010   4.845  17.777  0.00  0.00    +0.000 A 
ATOM     26  H   UNL     1       4.490   3.521  16.139  0.00  0.00    +0.000 HD
BRANCH  25  27
ATOM     27  C   UNL     1       5.279   5.536  17.995  0.00  0.00    +0.000 A 
ATOM     28  C   UNL     1       5.677   6.605  17.176  0.00  0.00    +0.000 A 
ATOM     29  C   UNL     1       6.912   7.233  17.368  0.00  0.00    +0.000 A 
ATOM     30  C   UNL     1       7.766   6.805  18.379  0.00  0.00    +0.000 A 
ATOM     31  C   UNL     1       7.390   5.744  19.198  0.00  0.00    +0.000 A 
ATOM     32  C   UNL     1       6.158   5.112  19.003  0.00  0.00    +0.000 A 
ENDBRANCH  25  27
ENDBRANCH   2  21
TORSDOF 5
ENDMDL
