MODEL 1
REMARK VINA RESULT:      -8.3      0.000      0.000
REMARK  Name = 
REMARK  6 active torsions:
REMARK  status: ('A' for Active; 'I' for Inactive)
REMARK    1  A    between atoms: C_1  and  C_2
REMARK    2  A    between atoms: N_6  and  C_7
REMARK    3  A    between atoms: C_7  and  C_8
REMARK    4  A    between atoms: C_12  and  C_13
REMARK    5  A    between atoms: C_16  and  C_17
REMARK    6  A    between atoms: C_19  and  C_20
REMARK                            x       y       z     vdW  Elec       q    Type
REMARK                         _______ _______ _______ _____ _____    ______ ____
ROOT
ATOM      1  C   UNL     1       3.417   4.751  18.288  0.00  0.00    +0.000 A 
ATOM      2  C   UNL     1       3.102   4.255  19.560  0.00  0.00    +0.000 A 
ATOM      3  C   UNL     1       2.378   5.033  20.464  0.00  0.00    +0.000 A 
ATOM      4  C   UNL     1       1.988   6.331  20.125  0.00  0.00    +0.000 A 
ATOM      5  C   UNL     1       2.324   6.871  18.877  0.00  0.00    +0.000 A 
ATOM      6  C   UNL     1       3.018   6.060  17.957  0.00  0.00    +0.000 A 
ENDROOT
BRANCH   5   7
ATOM      7  C   UNL     1       2.013   8.267  18.570  0.00  0.00    +0.000 A 
ATOM      8  N   UNL     1       2.346   8.867  17.414  0.00  0.00    +0.000 NA
ATOM      9  O   UNL     1       1.976  10.193  17.607  0.00  0.00    +0.000 OA
ATOM     10  C   UNL     1       1.449  10.278  18.864  0.00  0.00    +0.000 A 
ATOM     11  N   UNL     1       1.431   9.119  19.488  0.00  0.00    +0.000 NA
BRANCH  10  12
ATOM     12  C   UNL     1       1.077  11.655  19.325  0.00  0.00    +0.000 C 
ATOM     13  C   UNL     1       0.764  11.753  20.820  0.00  0.00    +0.000 C 
ATOM     14  C   UNL     1      -0.615  11.183  21.171  0.00  0.00    +0.000 C 
ATOM     15  C   UNL     1      -0.951  11.422  22.642  0.00  0.00    +0.000 C 
ATOM     16  C   UNL     1      -1.669  11.805  20.256  0.00  0.00    +0.000 C 
ATOM     17  C   UNL     1      -1.279  11.652  18.792  0.00  0.00    +0.000 C 
ATOM     18  O   UNL     1       0.014  12.190  18.519  0.00  0.00    +0.000 OA
ENDBRANCH  10  12
ENDBRANCH   5   7
BRANCH   1  19
ATOM     19  C   UNL     1       4.155   3.887  17.292  0.00  0.00    +0.000 C 
BRANCH  19  25
ATOM     20  C   UNL     1       5.890   4.055  14.697  0.00  0.00    +0.000 C 
ATOM     21  C   UNL     1       6.353   4.322  16.082  0.00  0.00    +0.000 A 
ATOM     22  N   UNL     1       7.571   4.719  16.398  0.00  0.00    +0.000 NA
ATOM     23  C   UNL     1       7.581   4.867  17.757  0.00  0.00    +0.000 A 
ATOM     24  C   UNL     1       6.352   4.557  18.286  0.00  0.00    +0.000 A 
ATOM     25  N   UNL     1       5.576   4.194  17.213  0.00  0.00    +0.000 N 
ENDBRANCH  19  25
ENDBRANCH   1  19
TORSDOF 4
ENDMDL
MODEL 2
REMARK VINA RESULT:      -8.0      2.236      3.615
REMARK  Name = 
REMARK  6 active torsions:
REMARK  status: ('A' for Active; 'I' for Inactive)
REMARK    1  A    between atoms: C_1  and  C_2
REMARK    2  A    between atoms: N_6  and  C_7
REMARK    3  A    between atoms: C_7  and  C_8
REMARK    4  A    between atoms: C_12  and  C_13
REMARK    5  A    between atoms: C_16  and  C_17
REMARK    6  A    between atoms: C_19  and  C_20
REMARK                            x       y       z     vdW  Elec       q    Type
REMARK                         _______ _______ _______ _____ _____    ______ ____
ROOT
ATOM      1  C   UNL     1       2.896   4.493  17.906  0.00  0.00    +0.000 A 
ATOM      2  C   UNL     1       4.132   4.512  17.247  0.00  0.00    +0.000 A 
ATOM      3  C   UNL     1       4.774   5.722  16.979  0.00  0.00    +0.000 A 
ATOM      4  C   UNL     1       4.173   6.933  17.332  0.00  0.00    +0.000 A 
ATOM      5  C   UNL     1       2.917   6.949  17.953  0.00  0.00    +0.000 A 
ATOM      6  C   UNL     1       2.301   5.719  18.257  0.00  0.00    +0.000 A 
ENDROOT
BRANCH   5   7
ATOM      7  C   UNL     1       2.243   8.219  18.218  0.00  0.00    +0.000 A 
ATOM      8  N   UNL     1       2.242   9.256  17.362  0.00  0.00    +0.000 NA
ATOM      9  O   UNL     1       1.605  10.271  18.066  0.00  0.00    +0.000 OA
ATOM     10  C   UNL     1       1.275   9.759  19.288  0.00  0.00    +0.000 A 
ATOM     11  N   UNL     1       1.626   8.497  19.424  0.00  0.00    +0.000 NA
BRANCH  10  12
ATOM     12  C   UNL     1       0.665  10.725  20.258  0.00  0.00    +0.000 C 
ATOM     13  C   UNL     1      -0.857  10.842  20.154  0.00  0.00    +0.000 C 
ATOM     14  C   UNL     1      -1.302  11.666  18.940  0.00  0.00    +0.000 C 
ATOM     15  C   UNL     1      -2.815  11.879  18.944  0.00  0.00    +0.000 C 
ATOM     16  C   UNL     1      -0.558  13.001  18.931  0.00  0.00    +0.000 C 
ATOM     17  C   UNL     1       0.947  12.785  19.029  0.00  0.00    +0.000 C 
ATOM     18  O   UNL     1       1.308  12.008  20.169  0.00  0.00    +0.000 OA
ENDBRANCH  10  12
ENDBRANCH   5   7
BRANCH   1  19
ATOM     19  C   UNL     1       2.229   3.180  18.242  0.00  0.00    +0.000 C 
BRANCH  19  25
ATOM     20  C   UNL     1       4.556   2.229  20.099  0.00  0.00    +0.000 C 
ATOM     21  C   UNL     1       3.172   2.557  20.525  0.00  0.00    +0.000 A 
ATOM     22  N   UNL     1       2.750   2.535  21.774  0.00  0.00    +0.000 NA
ATOM     23  C   UNL     1       1.437   2.915  21.737  0.00  0.00    +0.000 A 
ATOM     24  C   UNL     1       1.045   3.175  20.447  0.00  0.00    +0.000 A 
ATOM     25  N   UNL     1       2.152   2.929  19.675  0.00  0.00    +0.000 N 
ENDBRANCH  19  25
ENDBRANCH   1  19
TORSDOF 4
ENDMDL
MODEL 3
REMARK VINA RESULT:      -8.0      0.776      1.400
REMARK  Name = 
REMARK  6 active torsions:
REMARK  status: ('A' for Active; 'I' for Inactive)
REMARK    1  A    between atoms: C_1  and  C_2
REMARK    2  A    between atoms: N_6  and  C_7
REMARK    3  A    between atoms: C_7  and  C_8
REMARK    4  A    between atoms: C_12  and  C_13
REMARK    5  A    between atoms: C_16  and  C_17
REMARK    6  A    between atoms: C_19  and  C_20
REMARK                            x       y       z     vdW  Elec       q    Type
REMARK                         _______ _______ _______ _____ _____    ______ ____
ROOT
ATOM      1  C   UNL     1       4.150   4.814  19.147  0.00  0.00    +0.000 A 
ATOM      2  C   UNL     1       3.385   4.182  20.135  0.00  0.00    +0.000 A 
ATOM      3  C   UNL     1       2.198   4.759  20.591  0.00  0.00    +0.000 A 
ATOM      4  C   UNL     1       1.778   5.994  20.093  0.00  0.00    +0.000 A 
ATOM      5  C   UNL     1       2.543   6.673  19.135  0.00  0.00    +0.000 A 
ATOM      6  C   UNL     1       3.715   6.058  18.652  0.00  0.00    +0.000 A 
ENDROOT
BRANCH   5   7
ATOM      7  C   UNL     1       2.158   8.015  18.700  0.00  0.00    +0.000 A 
ATOM      8  N   UNL     1       2.402   8.498  17.469  0.00  0.00    +0.000 NA
ATOM      9  O   UNL     1       1.989   9.823  17.542  0.00  0.00    +0.000 OA
ATOM     10  C   UNL     1       1.530  10.026  18.812  0.00  0.00    +0.000 A 
ATOM     11  N   UNL     1       1.593   8.941  19.556  0.00  0.00    +0.000 NA
BRANCH  10  12
ATOM     12  C   UNL     1       1.128  11.431  19.144  0.00  0.00    +0.000 C 
ATOM     13  C   UNL     1       0.863  11.671  20.633  0.00  0.00    +0.000 C 
ATOM     14  C   UNL     1      -0.483  11.100  21.091  0.00  0.00    +0.000 C 
ATOM     15  C   UNL     1      -0.777  11.478  22.542  0.00  0.00    +0.000 C 
ATOM     16  C   UNL     1      -1.589  11.593  20.158  0.00  0.00    +0.000 C 
ATOM     17  C   UNL     1      -1.244  11.303  18.704  0.00  0.00    +0.000 C 
ATOM     18  O   UNL     1       0.020  11.848  18.329  0.00  0.00    +0.000 OA
ENDBRANCH  10  12
ENDBRANCH   5   7
BRANCH   1  19
ATOM     19  C   UNL     1       5.405   4.161  18.618  0.00  0.00    +0.000 C 
BRANCH  19  25
ATOM     20  C   UNL     1       7.644   6.335  18.441  0.00  0.00    +0.000 C 
ATOM     21  C   UNL     1       6.928   5.719  17.297  0.00  0.00    +0.000 A 
ATOM     22  N   UNL     1       7.182   5.979  16.029  0.00  0.00    +0.000 NA
ATOM     23  C   UNL     1       6.326   5.199  15.303  0.00  0.00    +0.000 A 
ATOM     24  C   UNL     1       5.533   4.447  16.134  0.00  0.00    +0.000 A 
ATOM     25  N   UNL     1       5.910   4.795  17.407  0.00  0.00    +0.000 N 
ENDBRANCH  19  25
ENDBRANCH   1  19
TORSDOF 4
ENDMDL
MODEL 4
REMARK VINA RESULT:      -7.8      3.398      4.671
REMARK  Name = 
REMARK  6 active torsions:
REMARK  status: ('A' for Active; 'I' for Inactive)
REMARK    1  A    between atoms: C_1  and  C_2
REMARK    2  A    between atoms: N_6  and  C_7
REMARK    3  A    between atoms: C_7  and  C_8
REMARK    4  A    between atoms: C_12  and  C_13
REMARK    5  A    between atoms: C_16  and  C_17
REMARK    6  A    between atoms: C_19  and  C_20
REMARK                            x       y       z     vdW  Elec       q    Type
REMARK                         _______ _______ _______ _____ _____    ______ ____
ROOT
ATOM      1  C   UNL     1       2.276   7.304  19.321  0.00  0.00    +0.000 A 
ATOM      2  C   UNL     1       1.994   7.830  18.054  0.00  0.00    +0.000 A 
ATOM      3  C   UNL     1       1.303   9.036  17.925  0.00  0.00    +0.000 A 
ATOM      4  C   UNL     1       0.853   9.716  19.059  0.00  0.00    +0.000 A 
ATOM      5  C   UNL     1       1.082   9.194  20.339  0.00  0.00    +0.000 A 
ATOM      6  C   UNL     1       1.818   7.998  20.456  0.00  0.00    +0.000 A 
ENDROOT
BRANCH   5   7
ATOM      7  C   UNL     1       0.512   9.850  21.516  0.00  0.00    +0.000 A 
ATOM      8  N   UNL     1       0.696   9.413  22.774  0.00  0.00    +0.000 NA
ATOM      9  O   UNL     1      -0.114  10.245  23.539  0.00  0.00    +0.000 OA
ATOM     10  C   UNL     1      -0.716  11.115  22.674  0.00  0.00    +0.000 A 
ATOM     11  N   UNL     1      -0.349  10.927  21.424  0.00  0.00    +0.000 NA
BRANCH  10  12
ATOM     12  C   UNL     1      -1.724  12.044  23.280  0.00  0.00    +0.000 C 
ATOM     13  C   UNL     1      -2.968  12.268  22.416  0.00  0.00    +0.000 C 
ATOM     14  C   UNL     1      -2.703  13.207  21.234  0.00  0.00    +0.000 C 
ATOM     15  C   UNL     1      -3.994  13.517  20.477  0.00  0.00    +0.000 C 
ATOM     16  C   UNL     1      -2.040  14.487  21.740  0.00  0.00    +0.000 C 
ATOM     17  C   UNL     1      -0.809  14.167  22.579  0.00  0.00    +0.000 C 
ATOM     18  O   UNL     1      -1.107  13.285  23.660  0.00  0.00    +0.000 OA
ENDBRANCH  10  12
ENDBRANCH   5   7
BRANCH   1  19
ATOM     19  C   UNL     1       3.069   6.025  19.458  0.00  0.00    +0.000 C 
BRANCH  19  25
ATOM     20  C   UNL     1       1.707   3.942  17.568  0.00  0.00    +0.000 C 
ATOM     21  C   UNL     1       1.682   3.928  19.052  0.00  0.00    +0.000 A 
ATOM     22  N   UNL     1       1.111   2.989  19.781  0.00  0.00    +0.000 NA
ATOM     23  C   UNL     1       1.327   3.336  21.085  0.00  0.00    +0.000 A 
ATOM     24  C   UNL     1       2.043   4.505  21.162  0.00  0.00    +0.000 A 
ATOM     25  N   UNL     1       2.254   4.888  19.860  0.00  0.00    +0.000 N 
ENDBRANCH  19  25
ENDBRANCH   1  19
TORSDOF 4
ENDMDL
MODEL 5
REMARK VINA RESULT:      -7.8      3.025      4.315
REMARK  Name = 
REMARK  6 active torsions:
REMARK  status: ('A' for Active; 'I' for Inactive)
REMARK    1  A    between atoms: C_1  and  C_2
REMARK    2  A    between atoms: N_6  and  C_7
REMARK    3  A    between atoms: C_7  and  C_8
REMARK    4  A    between atoms: C_12  and  C_13
REMARK    5  A    between atoms: C_16  and  C_17
REMARK    6  A    between atoms: C_19  and  C_20
REMARK                            x       y       z     vdW  Elec       q    Type
REMARK                         _______ _______ _______ _____ _____    ______ ____
ROOT
ATOM      1  C   UNL     1       2.348   6.974  19.506  0.00  0.00    +0.000 A 
ATOM      2  C   UNL     1       2.383   7.562  18.236  0.00  0.00    +0.000 A 
ATOM      3  C   UNL     1       1.834   8.828  18.025  0.00  0.00    +0.000 A 
ATOM      4  C   UNL     1       1.211   9.510  19.073  0.00  0.00    +0.000 A 
ATOM      5  C   UNL     1       1.122   8.930  20.346  0.00  0.00    +0.000 A 
ATOM      6  C   UNL     1       1.718   7.671  20.555  0.00  0.00    +0.000 A 
ENDROOT
BRANCH   5   7
ATOM      7  C   UNL     1       0.372   9.598  21.409  0.00  0.00    +0.000 A 
ATOM      8  N   UNL     1      -0.387   8.946  22.308  0.00  0.00    +0.000 NA
ATOM      9  O   UNL     1      -1.001   9.964  23.028  0.00  0.00    +0.000 OA
ATOM     10  C   UNL     1      -0.558  11.144  22.502  0.00  0.00    +0.000 A 
ATOM     11  N   UNL     1       0.302  10.973  21.520  0.00  0.00    +0.000 NA
BRANCH  10  12
ATOM     12  C   UNL     1      -1.180  12.385  23.068  0.00  0.00    +0.000 C 
ATOM     13  C   UNL     1      -2.711  12.382  23.051  0.00  0.00    +0.000 C 
ATOM     14  C   UNL     1      -3.284  12.642  21.653  0.00  0.00    +0.000 C 
ATOM     15  C   UNL     1      -4.806  12.770  21.698  0.00  0.00    +0.000 C 
ATOM     16  C   UNL     1      -2.642  13.898  21.066  0.00  0.00    +0.000 C 
ATOM     17  C   UNL     1      -1.123  13.808  21.117  0.00  0.00    +0.000 C 
ATOM     18  O   UNL     1      -0.640  13.557  22.435  0.00  0.00    +0.000 OA
ENDBRANCH  10  12
ENDBRANCH   5   7
BRANCH   1  19
ATOM     19  C   UNL     1       2.990   5.627  19.743  0.00  0.00    +0.000 C 
BRANCH  19  25
ATOM     20  C   UNL     1       3.440   3.939  17.152  0.00  0.00    +0.000 C 
ATOM     21  C   UNL     1       2.376   3.725  18.164  0.00  0.00    +0.000 A 
ATOM     22  N   UNL     1       1.494   2.745  18.124  0.00  0.00    +0.000 NA
ATOM     23  C   UNL     1       0.713   2.893  19.237  0.00  0.00    +0.000 A 
ATOM     24  C   UNL     1       1.120   3.978  19.973  0.00  0.00    +0.000 A 
ATOM     25  N   UNL     1       2.173   4.516  19.275  0.00  0.00    +0.000 N 
ENDBRANCH  19  25
ENDBRANCH   1  19
TORSDOF 4
ENDMDL
MODEL 6
REMARK VINA RESULT:      -7.7      2.751      3.991
REMARK  Name = 
REMARK  6 active torsions:
REMARK  status: ('A' for Active; 'I' for Inactive)
REMARK    1  A    between atoms: C_1  and  C_2
REMARK    2  A    between atoms: N_6  and  C_7
REMARK    3  A    between atoms: C_7  and  C_8
REMARK    4  A    between atoms: C_12  and  C_13
REMARK    5  A    between atoms: C_16  and  C_17
REMARK    6  A    between atoms: C_19  and  C_20
REMARK                            x       y       z     vdW  Elec       q    Type
REMARK                         _______ _______ _______ _____ _____    ______ ____
ROOT
ATOM      1  C   UNL     1       2.453   6.693  19.439  0.00  0.00    +0.000 A 
ATOM      2  C   UNL     1       2.634   7.117  18.116  0.00  0.00    +0.000 A 
ATOM      3  C   UNL     1       2.239   8.396  17.721  0.00  0.00    +0.000 A 
ATOM      4  C   UNL     1       1.625   9.258  18.633  0.00  0.00    +0.000 A 
ATOM      5  C   UNL     1       1.391   8.848  19.952  0.00  0.00    +0.000 A 
ATOM      6  C   UNL     1       1.833   7.571  20.349  0.00  0.00    +0.000 A 
ENDROOT
BRANCH   5   7
ATOM      7  C   UNL     1       0.647   9.710  20.871  0.00  0.00    +0.000 A 
ATOM      8  N   UNL     1      -0.227   9.249  21.782  0.00  0.00    +0.000 NA
ATOM      9  O   UNL     1      -0.778  10.401  22.331  0.00  0.00    +0.000 OA
ATOM     10  C   UNL     1      -0.186  11.460  21.703  0.00  0.00    +0.000 A 
ATOM     11  N   UNL     1       0.711  11.089  20.813  0.00  0.00    +0.000 NA
BRANCH  10  12
ATOM     12  C   UNL     1      -0.713  12.815  22.071  0.00  0.00    +0.000 C 
ATOM     13  C   UNL     1      -1.619  12.820  23.304  0.00  0.00    +0.000 C 
ATOM     14  C   UNL     1      -3.021  12.275  23.007  0.00  0.00    +0.000 C 
ATOM     15  C   UNL     1      -3.938  12.424  24.220  0.00  0.00    +0.000 C 
ATOM     16  C   UNL     1      -3.598  12.992  21.788  0.00  0.00    +0.000 C 
ATOM     17  C   UNL     1      -2.634  12.926  20.611  0.00  0.00    +0.000 C 
ATOM     18  O   UNL     1      -1.344  13.438  20.940  0.00  0.00    +0.000 OA
ENDBRANCH  10  12
ENDBRANCH   5   7
BRANCH   1  19
ATOM     19  C   UNL     1       2.929   5.328  19.876  0.00  0.00    +0.000 C 
BRANCH  19  25
ATOM     20  C   UNL     1       3.777   3.746  17.317  0.00  0.00    +0.000 C 
ATOM     21  C   UNL     1       2.571   3.494  18.145  0.00  0.00    +0.000 A 
ATOM     22  N   UNL     1       1.709   2.519  17.932  0.00  0.00    +0.000 NA
ATOM     23  C   UNL     1       0.767   2.622  18.917  0.00  0.00    +0.000 A 
ATOM     24  C   UNL     1       1.053   3.676  19.750  0.00  0.00    +0.000 A 
ATOM     25  N   UNL     1       2.198   4.239  19.244  0.00  0.00    +0.000 N 
ENDBRANCH  19  25
ENDBRANCH   1  19
TORSDOF 4
ENDMDL
MODEL 7
REMARK VINA RESULT:      -7.7      2.158      3.710
REMARK  Name = 
REMARK  6 active torsions:
REMARK  status: ('A' for Active; 'I' for Inactive)
REMARK    1  A    between atoms: C_1  and  C_2
REMARK    2  A    between atoms: N_6  and  C_7
REMARK    3  A    between atoms: C_7  and  C_8
REMARK    4  A    between atoms: C_12  and  C_13
REMARK    5  A    between atoms: C_16  and  C_17
REMARK    6  A    between atoms: C_19  and  C_20
REMARK                            x       y       z     vdW  Elec       q    Type
REMARK                         _______ _______ _______ _____ _____    ______ ____
ROOT
ATOM      1  C   UNL     1       3.918   4.282  17.769  0.00  0.00    +0.000 A 
ATOM      2  C   UNL     1       5.105   4.492  17.055  0.00  0.00    +0.000 A 
ATOM      3  C   UNL     1       5.520   5.786  16.737  0.00  0.00    +0.000 A 
ATOM      4  C   UNL     1       4.739   6.887  17.097  0.00  0.00    +0.000 A 
ATOM      5  C   UNL     1       3.526   6.707  17.775  0.00  0.00    +0.000 A 
ATOM      6  C   UNL     1       3.139   5.398  18.127  0.00  0.00    +0.000 A 
ENDROOT
BRANCH   5   7
ATOM      7  C   UNL     1       2.657   7.851  18.049  0.00  0.00    +0.000 A 
ATOM      8  N   UNL     1       2.531   8.906  17.224  0.00  0.00    +0.000 NA
ATOM      9  O   UNL     1       1.723   9.788  17.931  0.00  0.00    +0.000 OA
ATOM     10  C   UNL     1       1.429   9.189  19.122  0.00  0.00    +0.000 A 
ATOM     11  N   UNL     1       1.962   7.990  19.235  0.00  0.00    +0.000 NA
BRANCH  10  12
ATOM     12  C   UNL     1       0.645  10.018  20.094  0.00  0.00    +0.000 C 
ATOM     13  C   UNL     1      -0.835  10.172  19.736  0.00  0.00    +0.000 C 
ATOM     14  C   UNL     1      -1.063  11.166  18.591  0.00  0.00    +0.000 C 
ATOM     15  C   UNL     1      -2.555  11.399  18.354  0.00  0.00    +0.000 C 
ATOM     16  C   UNL     1      -0.343  12.477  18.905  0.00  0.00    +0.000 C 
ATOM     17  C   UNL     1       1.121  12.227  19.240  0.00  0.00    +0.000 C 
ATOM     18  O   UNL     1       1.280  11.290  20.304  0.00  0.00    +0.000 OA
ENDBRANCH  10  12
ENDBRANCH   5   7
BRANCH   1  19
ATOM     19  C   UNL     1       3.498   2.883  18.158  0.00  0.00    +0.000 C 
BRANCH  19  25
ATOM     20  C   UNL     1       0.440   2.645  18.760  0.00  0.00    +0.000 C 
ATOM     21  C   UNL     1       1.533   2.667  19.764  0.00  0.00    +0.000 A 
ATOM     22  N   UNL     1       1.355   2.538  21.065  0.00  0.00    +0.000 NA
ATOM     23  C   UNL     1       2.601   2.593  21.626  0.00  0.00    +0.000 A 
ATOM     24  C   UNL     1       3.560   2.758  20.657  0.00  0.00    +0.000 A 
ATOM     25  N   UNL     1       2.872   2.820  19.471  0.00  0.00    +0.000 N 
ENDBRANCH  19  25
ENDBRANCH   1  19
TORSDOF 4
ENDMDL
MODEL 8
REMARK VINA RESULT:      -7.7      2.333      3.597
REMARK  Name = 
REMARK  6 active torsions:
REMARK  status: ('A' for Active; 'I' for Inactive)
REMARK    1  A    between atoms: C_1  and  C_2
REMARK    2  A    between atoms: N_6  and  C_7
REMARK    3  A    between atoms: C_7  and  C_8
REMARK    4  A    between atoms: C_12  and  C_13
REMARK    5  A    between atoms: C_16  and  C_17
REMARK    6  A    between atoms: C_19  and  C_20
REMARK                            x       y       z     vdW  Elec       q    Type
REMARK                         _______ _______ _______ _____ _____    ______ ____
ROOT
ATOM      1  C   UNL     1       2.172   6.943  19.625  0.00  0.00    +0.000 A 
ATOM      2  C   UNL     1       2.257   7.301  18.274  0.00  0.00    +0.000 A 
ATOM      3  C   UNL     1       1.937   8.596  17.863  0.00  0.00    +0.000 A 
ATOM      4  C   UNL     1       1.494   9.542  18.791  0.00  0.00    +0.000 A 
ATOM      5  C   UNL     1       1.358   9.202  20.143  0.00  0.00    +0.000 A 
ATOM      6  C   UNL     1       1.725   7.904  20.551  0.00  0.00    +0.000 A 
ENDROOT
BRANCH   5   7
ATOM      7  C   UNL     1       0.787  10.159  21.090  0.00  0.00    +0.000 A 
ATOM      8  N   UNL     1       0.516   9.866  22.374  0.00  0.00    +0.000 NA
ATOM      9  O   UNL     1      -0.119  11.007  22.851  0.00  0.00    +0.000 OA
ATOM     10  C   UNL     1      -0.175  11.892  21.813  0.00  0.00    +0.000 A 
ATOM     11  N   UNL     1       0.386  11.427  20.716  0.00  0.00    +0.000 NA
BRANCH  10  12
ATOM     12  C   UNL     1      -0.921  13.165  22.079  0.00  0.00    +0.000 C 
ATOM     13  C   UNL     1      -1.799  13.125  23.332  0.00  0.00    +0.000 C 
ATOM     14  C   UNL     1      -3.090  12.326  23.122  0.00  0.00    +0.000 C 
ATOM     15  C   UNL     1      -4.004  12.423  24.343  0.00  0.00    +0.000 C 
ATOM     16  C   UNL     1      -3.798  12.824  21.863  0.00  0.00    +0.000 C 
ATOM     17  C   UNL     1      -2.852  12.820  20.669  0.00  0.00    +0.000 C 
ATOM     18  O   UNL     1      -1.664  13.570  20.918  0.00  0.00    +0.000 OA
ENDBRANCH  10  12
ENDBRANCH   5   7
BRANCH   1  19
ATOM     19  C   UNL     1       2.570   5.556  20.075  0.00  0.00    +0.000 C 
BRANCH  19  25
ATOM     20  C   UNL     1       2.050   3.624  17.673  0.00  0.00    +0.000 C 
ATOM     21  C   UNL     1       3.371   4.129  18.123  0.00  0.00    +0.000 A 
ATOM     22  N   UNL     1       4.517   3.860  17.526  0.00  0.00    +0.000 NA
ATOM     23  C   UNL     1       5.479   4.524  18.235  0.00  0.00    +0.000 A 
ATOM     24  C   UNL     1       4.919   5.213  19.282  0.00  0.00    +0.000 A 
ATOM     25  N   UNL     1       3.575   4.944  19.216  0.00  0.00    +0.000 N 
ENDBRANCH  19  25
ENDBRANCH   1  19
TORSDOF 4
ENDMDL
MODEL 9
REMARK VINA RESULT:      -7.6      1.118      1.365
REMARK  Name = 
REMARK  6 active torsions:
REMARK  status: ('A' for Active; 'I' for Inactive)
REMARK    1  A    between atoms: C_1  and  C_2
REMARK    2  A    between atoms: N_6  and  C_7
REMARK    3  A    between atoms: C_7  and  C_8
REMARK    4  A    between atoms: C_12  and  C_13
REMARK    5  A    between atoms: C_16  and  C_17
REMARK    6  A    between atoms: C_19  and  C_20
REMARK                            x       y       z     vdW  Elec       q    Type
REMARK                         _______ _______ _______ _____ _____    ______ ____
ROOT
ATOM      1  C   UNL     1       3.452   4.417  18.011  0.00  0.00    +0.000 A 
ATOM      2  C   UNL     1       3.112   3.385  18.895  0.00  0.00    +0.000 A 
ATOM      3  C   UNL     1       2.339   3.647  20.027  0.00  0.00    +0.000 A 
ATOM      4  C   UNL     1       1.924   4.950  20.312  0.00  0.00    +0.000 A 
ATOM      5  C   UNL     1       2.283   6.011  19.471  0.00  0.00    +0.000 A 
ATOM      6  C   UNL     1       3.027   5.726  18.309  0.00  0.00    +0.000 A 
ENDROOT
BRANCH   5   7
ATOM      7  C   UNL     1       1.943   7.387  19.832  0.00  0.00    +0.000 A 
ATOM      8  N   UNL     1       1.517   7.752  21.054  0.00  0.00    +0.000 NA
ATOM      9  O   UNL     1       1.198   9.097  20.908  0.00  0.00    +0.000 OA
ATOM     10  C   UNL     1       1.460   9.428  19.609  0.00  0.00    +0.000 A 
ATOM     11  N   UNL     1       1.939   8.418  18.913  0.00  0.00    +0.000 NA
BRANCH  10  12
ATOM     12  C   UNL     1       1.085  10.821  19.201  0.00  0.00    +0.000 C 
ATOM     13  C   UNL     1       0.913  11.792  20.372  0.00  0.00    +0.000 C 
ATOM     14  C   UNL     1      -0.405  11.578  21.125  0.00  0.00    +0.000 C 
ATOM     15  C   UNL     1      -0.607  12.650  22.196  0.00  0.00    +0.000 C 
ATOM     16  C   UNL     1      -1.564  11.568  20.129  0.00  0.00    +0.000 C 
ATOM     17  C   UNL     1      -1.310  10.569  19.008  0.00  0.00    +0.000 C 
ATOM     18  O   UNL     1      -0.069  10.805  18.345  0.00  0.00    +0.000 OA
ENDBRANCH  10  12
ENDBRANCH   5   7
BRANCH   1  19
ATOM     19  C   UNL     1       4.244   4.121  16.759  0.00  0.00    +0.000 C 
BRANCH  19  25
ATOM     20  C   UNL     1       6.417   4.098  14.513  0.00  0.00    +0.000 C 
ATOM     21  C   UNL     1       6.650   4.353  15.956  0.00  0.00    +0.000 A 
ATOM     22  N   UNL     1       7.820   4.658  16.481  0.00  0.00    +0.000 NA
ATOM     23  C   UNL     1       7.603   4.831  17.820  0.00  0.00    +0.000 A 
ATOM     24  C   UNL     1       6.279   4.631  18.124  0.00  0.00    +0.000 A 
ATOM     25  N   UNL     1       5.677   4.311  16.933  0.00  0.00    +0.000 N 
ENDBRANCH  19  25
ENDBRANCH   1  19
TORSDOF 4
ENDMDL
