MODEL 1
REMARK VINA RESULT:      -7.3      0.000      0.000
REMARK  Name = 
REMARK  4 active torsions:
REMARK  status: ('A' for Active; 'I' for Inactive)
REMARK    1  A    between atoms: C_2  and  C_3
REMARK    2  A    between atoms: C_5  and  C_6
REMARK    3  A    between atoms: N_14  and  C_15
REMARK    4  A    between atoms: C_15  and  C_16
REMARK                            x       y       z     vdW  Elec       q    Type
REMARK                         _______ _______ _______ _____ _____    ______ ____
ROOT
ATOM      1  O   UNL     1      -1.754  11.167  23.381  0.00  0.00    +0.000 OA
ATOM      2  C   UNL     1      -1.059  11.300  22.370  0.00  0.00    +0.000 C 
ATOM      3  N   UNL     1      -1.256  12.377  21.478  0.00  0.00    +0.000 N 
ATOM      4  C   UNL     1      -0.146  12.928  20.783  0.00  0.00    +0.000 A 
ATOM      5  C   UNL     1      -0.327  13.583  19.570  0.00  0.00    +0.000 A 
ATOM      6  C   UNL     1       0.795  14.069  18.895  0.00  0.00    +0.000 A 
ATOM      7  C   UNL     1       2.055  13.922  19.461  0.00  0.00    +0.000 A 
ATOM      8  C   UNL     1       2.144  13.286  20.682  0.00  0.00    +0.000 A 
ATOM      9  N   UNL     1       1.077  12.782  21.337  0.00  0.00    +0.000 NA
ENDROOT
BRANCH   2  10
ATOM     10  C   UNL     1      -0.082  10.255  21.994  0.00  0.00    +0.000 A 
ATOM     11  C   UNL     1       0.009   9.497  20.789  0.00  0.00    +0.000 A 
ATOM     12  C   UNL     1       1.064   8.635  20.979  0.00  0.00    +0.000 A 
ATOM     13  O   UNL     1       1.576   8.857  22.222  0.00  0.00    +0.000 OA
ATOM     14  N   UNL     1       0.855   9.842  22.865  0.00  0.00    +0.000 NA
BRANCH  12  15
ATOM     15  C   UNL     1       1.699   7.583  20.192  0.00  0.00    +0.000 A 
ATOM     16  C   UNL     1       2.232   7.859  18.923  0.00  0.00    +0.000 A 
ATOM     17  C   UNL     1       2.818   6.850  18.151  0.00  0.00    +0.000 A 
ATOM     18  C   UNL     1       2.886   5.546  18.641  0.00  0.00    +0.000 A 
ATOM     19  C   UNL     1       2.370   5.255  19.899  0.00  0.00    +0.000 A 
ATOM     20  C   UNL     1       1.783   6.264  20.667  0.00  0.00    +0.000 A 
ENDBRANCH  12  15
ENDBRANCH   2  10
BRANCH   3  21
ATOM     21  C   UNL     1      -2.356  13.300  21.769  0.00  0.00    +0.000 C 
BRANCH  21  22
ATOM     22  C   UNL     1      -3.701  12.976  21.145  0.00  0.00    +0.000 A 
ATOM     23  C   UNL     1      -3.843  12.522  19.829  0.00  0.00    +0.000 A 
ATOM     24  C   UNL     1      -5.084  12.066  19.367  0.00  0.00    +0.000 A 
ATOM     25  C   UNL     1      -6.190  12.052  20.215  0.00  0.00    +0.000 A 
ATOM     26  C   UNL     1      -6.070  12.521  21.518  0.00  0.00    +0.000 A 
ATOM     27  C   UNL     1      -4.834  12.982  21.979  0.00  0.00    +0.000 A 
ENDBRANCH  21  22
ENDBRANCH   3  21
TORSDOF 4
ENDMDL
MODEL 2
REMARK VINA RESULT:      -7.1      4.906     10.240
REMARK  Name = 
REMARK  4 active torsions:
REMARK  status: ('A' for Active; 'I' for Inactive)
REMARK    1  A    between atoms: C_2  and  C_3
REMARK    2  A    between atoms: C_5  and  C_6
REMARK    3  A    between atoms: N_14  and  C_15
REMARK    4  A    between atoms: C_15  and  C_16
REMARK                            x       y       z     vdW  Elec       q    Type
REMARK                         _______ _______ _______ _____ _____    ______ ____
ROOT
ATOM      1  O   UNL     1       3.331   3.887  16.530  0.00  0.00    +0.000 OA
ATOM      2  C   UNL     1       4.015   4.636  17.233  0.00  0.00    +0.000 C 
ATOM      3  N   UNL     1       5.426   4.599  17.191  0.00  0.00    +0.000 N 
ATOM      4  C   UNL     1       6.169   5.792  17.400  0.00  0.00    +0.000 A 
ATOM      5  C   UNL     1       7.473   5.739  17.877  0.00  0.00    +0.000 A 
ATOM      6  C   UNL     1       8.152   6.936  18.114  0.00  0.00    +0.000 A 
ATOM      7  C   UNL     1       7.529   8.146  17.837  0.00  0.00    +0.000 A 
ATOM      8  C   UNL     1       6.244   8.111  17.337  0.00  0.00    +0.000 A 
ATOM      9  N   UNL     1       5.558   6.967  17.129  0.00  0.00    +0.000 NA
ENDROOT
BRANCH   2  10
ATOM     10  C   UNL     1       3.372   5.504  18.243  0.00  0.00    +0.000 A 
ATOM     11  C   UNL     1       2.607   6.694  18.054  0.00  0.00    +0.000 A 
ATOM     12  C   UNL     1       2.289   7.128  19.320  0.00  0.00    +0.000 A 
ATOM     13  O   UNL     1       2.832   6.257  20.217  0.00  0.00    +0.000 OA
ATOM     14  N   UNL     1       3.525   5.263  19.557  0.00  0.00    +0.000 NA
BRANCH  12  15
ATOM     15  C   UNL     1       1.560   8.263  19.875  0.00  0.00    +0.000 A 
ATOM     16  C   UNL     1       1.246   9.374  19.076  0.00  0.00    +0.000 A 
ATOM     17  C   UNL     1       0.570  10.478  19.608  0.00  0.00    +0.000 A 
ATOM     18  C   UNL     1       0.192  10.485  20.950  0.00  0.00    +0.000 A 
ATOM     19  C   UNL     1       0.488   9.391  21.755  0.00  0.00    +0.000 A 
ATOM     20  C   UNL     1       1.165   8.291  21.222  0.00  0.00    +0.000 A 
ENDBRANCH  12  15
ENDBRANCH   2  10
BRANCH   3  21
ATOM     21  C   UNL     1       6.048   3.598  16.321  0.00  0.00    +0.000 C 
BRANCH  21  22
ATOM     22  C   UNL     1       6.308   4.010  14.884  0.00  0.00    +0.000 A 
ATOM     23  C   UNL     1       7.349   4.868  14.512  0.00  0.00    +0.000 A 
ATOM     24  C   UNL     1       7.654   5.068  13.159  0.00  0.00    +0.000 A 
ATOM     25  C   UNL     1       6.929   4.407  12.169  0.00  0.00    +0.000 A 
ATOM     26  C   UNL     1       5.878   3.569  12.522  0.00  0.00    +0.000 A 
ATOM     27  C   UNL     1       5.569   3.374  13.870  0.00  0.00    +0.000 A 
ENDBRANCH  21  22
ENDBRANCH   3  21
TORSDOF 4
ENDMDL
MODEL 3
REMARK VINA RESULT:      -7.1      4.749     10.542
REMARK  Name = 
REMARK  4 active torsions:
REMARK  status: ('A' for Active; 'I' for Inactive)
REMARK    1  A    between atoms: C_2  and  C_3
REMARK    2  A    between atoms: C_5  and  C_6
REMARK    3  A    between atoms: N_14  and  C_15
REMARK    4  A    between atoms: C_15  and  C_16
REMARK                            x       y       z     vdW  Elec       q    Type
REMARK                         _______ _______ _______ _____ _____    ______ ____
ROOT
ATOM      1  O   UNL     1       6.376   6.831  16.963  0.00  0.00    +0.000 OA
ATOM      2  C   UNL     1       5.260   6.321  17.090  0.00  0.00    +0.000 C 
ATOM      3  N   UNL     1       5.025   4.972  16.744  0.00  0.00    +0.000 N 
ATOM      4  C   UNL     1       4.067   4.215  17.472  0.00  0.00    +0.000 A 
ATOM      5  C   UNL     1       3.435   3.124  16.885  0.00  0.00    +0.000 A 
ATOM      6  C   UNL     1       2.465   2.436  17.617  0.00  0.00    +0.000 A 
ATOM      7  C   UNL     1       2.177   2.829  18.918  0.00  0.00    +0.000 A 
ATOM      8  C   UNL     1       2.870   3.904  19.435  0.00  0.00    +0.000 A 
ATOM      9  N   UNL     1       3.789   4.602  18.736  0.00  0.00    +0.000 NA
ENDROOT
BRANCH   2  10
ATOM     10  C   UNL     1       4.100   7.150  17.483  0.00  0.00    +0.000 A 
ATOM     11  C   UNL     1       3.541   7.364  18.778  0.00  0.00    +0.000 A 
ATOM     12  C   UNL     1       2.450   8.177  18.575  0.00  0.00    +0.000 A 
ATOM     13  O   UNL     1       2.354   8.434  17.240  0.00  0.00    +0.000 OA
ATOM     14  N   UNL     1       3.359   7.781  16.556  0.00  0.00    +0.000 NA
BRANCH  12  15
ATOM     15  C   UNL     1       1.424   8.767  19.427  0.00  0.00    +0.000 A 
ATOM     16  C   UNL     1       0.601   9.800  18.949  0.00  0.00    +0.000 A 
ATOM     17  C   UNL     1      -0.367  10.389  19.769  0.00  0.00    +0.000 A 
ATOM     18  C   UNL     1      -0.532   9.949  21.082  0.00  0.00    +0.000 A 
ATOM     19  C   UNL     1       0.268   8.923  21.571  0.00  0.00    +0.000 A 
ATOM     20  C   UNL     1       1.236   8.338  20.751  0.00  0.00    +0.000 A 
ENDBRANCH  12  15
ENDBRANCH   2  10
BRANCH   3  21
ATOM     21  C   UNL     1       6.144   4.216  16.177  0.00  0.00    +0.000 C 
BRANCH  21  22
ATOM     22  C   UNL     1       6.368   4.347  14.683  0.00  0.00    +0.000 A 
ATOM     23  C   UNL     1       7.390   5.128  14.129  0.00  0.00    +0.000 A 
ATOM     24  C   UNL     1       7.664   5.066  12.756  0.00  0.00    +0.000 A 
ATOM     25  C   UNL     1       6.928   4.221  11.928  0.00  0.00    +0.000 A 
ATOM     26  C   UNL     1       5.896   3.456  12.459  0.00  0.00    +0.000 A 
ATOM     27  C   UNL     1       5.618   3.520  13.827  0.00  0.00    +0.000 A 
ENDBRANCH  21  22
ENDBRANCH   3  21
TORSDOF 4
ENDMDL
MODEL 4
REMARK VINA RESULT:      -7.1      1.414      2.158
REMARK  Name = 
REMARK  4 active torsions:
REMARK  status: ('A' for Active; 'I' for Inactive)
REMARK    1  A    between atoms: C_2  and  C_3
REMARK    2  A    between atoms: C_5  and  C_6
REMARK    3  A    between atoms: N_14  and  C_15
REMARK    4  A    between atoms: C_15  and  C_16
REMARK                            x       y       z     vdW  Elec       q    Type
REMARK                         _______ _______ _______ _____ _____    ______ ____
ROOT
ATOM      1  O   UNL     1      -0.799  10.211  23.437  0.00  0.00    +0.000 OA
ATOM      2  C   UNL     1      -0.498  10.774  22.381  0.00  0.00    +0.000 C 
ATOM      3  N   UNL     1      -0.805  12.134  22.159  0.00  0.00    +0.000 N 
ATOM      4  C   UNL     1       0.063  12.932  21.366  0.00  0.00    +0.000 A 
ATOM      5  C   UNL     1      -0.418  14.055  20.702  0.00  0.00    +0.000 A 
ATOM      6  C   UNL     1       0.456  14.785  19.895  0.00  0.00    +0.000 A 
ATOM      7  C   UNL     1       1.788  14.400  19.800  0.00  0.00    +0.000 A 
ATOM      8  C   UNL     1       2.191  13.290  20.514  0.00  0.00    +0.000 A 
ATOM      9  N   UNL     1       1.357  12.553  21.275  0.00  0.00    +0.000 NA
ENDROOT
BRANCH   2  10
ATOM     10  C   UNL     1       0.077   9.999  21.260  0.00  0.00    +0.000 A 
ATOM     11  C   UNL     1       1.129   9.036  21.276  0.00  0.00    +0.000 A 
ATOM     12  C   UNL     1       1.299   8.660  19.964  0.00  0.00    +0.000 A 
ATOM     13  O   UNL     1       0.408   9.355  19.203  0.00  0.00    +0.000 OA
ATOM     14  N   UNL     1      -0.335  10.204  19.998  0.00  0.00    +0.000 NA
BRANCH  12  15
ATOM     15  C   UNL     1       2.190   7.749  19.253  0.00  0.00    +0.000 A 
ATOM     16  C   UNL     1       2.488   6.481  19.777  0.00  0.00    +0.000 A 
ATOM     17  C   UNL     1       3.362   5.613  19.115  0.00  0.00    +0.000 A 
ATOM     18  C   UNL     1       3.948   5.997  17.909  0.00  0.00    +0.000 A 
ATOM     19  C   UNL     1       3.659   7.246  17.370  0.00  0.00    +0.000 A 
ATOM     20  C   UNL     1       2.788   8.112  18.036  0.00  0.00    +0.000 A 
ENDBRANCH  12  15
ENDBRANCH   2  10
BRANCH   3  21
ATOM     21  C   UNL     1      -1.546  12.838  23.209  0.00  0.00    +0.000 C 
BRANCH  21  22
ATOM     22  C   UNL     1      -3.058  12.729  23.168  0.00  0.00    +0.000 A 
ATOM     23  C   UNL     1      -3.855  12.720  24.318  0.00  0.00    +0.000 A 
ATOM     24  C   UNL     1      -5.250  12.802  24.215  0.00  0.00    +0.000 A 
ATOM     25  C   UNL     1      -5.860  12.903  22.966  0.00  0.00    +0.000 A 
ATOM     26  C   UNL     1      -5.083  12.892  21.813  0.00  0.00    +0.000 A 
ATOM     27  C   UNL     1      -3.692  12.803  21.914  0.00  0.00    +0.000 A 
ENDBRANCH  21  22
ENDBRANCH   3  21
TORSDOF 4
ENDMDL
MODEL 5
REMARK VINA RESULT:      -7.0      3.821      9.858
REMARK  Name = 
REMARK  4 active torsions:
REMARK  status: ('A' for Active; 'I' for Inactive)
REMARK    1  A    between atoms: C_2  and  C_3
REMARK    2  A    between atoms: C_5  and  C_6
REMARK    3  A    between atoms: N_14  and  C_15
REMARK    4  A    between atoms: C_15  and  C_16
REMARK                            x       y       z     vdW  Elec       q    Type
REMARK                         _______ _______ _______ _____ _____    ______ ____
ROOT
ATOM      1  O   UNL     1       5.266   6.602  18.509  0.00  0.00    +0.000 OA
ATOM      2  C   UNL     1       4.096   6.208  18.511  0.00  0.00    +0.000 C 
ATOM      3  N   UNL     1       3.766   4.884  18.150  0.00  0.00    +0.000 N 
ATOM      4  C   UNL     1       2.661   4.239  18.768  0.00  0.00    +0.000 A 
ATOM      5  C   UNL     1       1.991   3.206  18.120  0.00  0.00    +0.000 A 
ATOM      6  C   UNL     1       0.881   2.632  18.741  0.00  0.00    +0.000 A 
ATOM      7  C   UNL     1       0.490   3.075  19.999  0.00  0.00    +0.000 A 
ATOM      8  C   UNL     1       1.226   4.084  20.585  0.00  0.00    +0.000 A 
ATOM      9  N   UNL     1       2.284   4.674  19.991  0.00  0.00    +0.000 NA
ENDROOT
BRANCH   2  10
ATOM     10  C   UNL     1       2.990   7.156  18.766  0.00  0.00    +0.000 A 
ATOM     11  C   UNL     1       2.334   8.042  17.860  0.00  0.00    +0.000 A 
ATOM     12  C   UNL     1       1.417   8.729  18.620  0.00  0.00    +0.000 A 
ATOM     13  O   UNL     1       1.515   8.288  19.906  0.00  0.00    +0.000 OA
ATOM     14  N   UNL     1       2.505   7.331  20.007  0.00  0.00    +0.000 NA
BRANCH  12  15
ATOM     15  C   UNL     1       0.437   9.779  18.366  0.00  0.00    +0.000 A 
ATOM     16  C   UNL     1       0.630  11.077  18.868  0.00  0.00    +0.000 A 
ATOM     17  C   UNL     1      -0.318  12.083  18.651  0.00  0.00    +0.000 A 
ATOM     18  C   UNL     1      -1.474  11.807  17.921  0.00  0.00    +0.000 A 
ATOM     19  C   UNL     1      -1.679  10.530  17.410  0.00  0.00    +0.000 A 
ATOM     20  C   UNL     1      -0.731   9.527  17.630  0.00  0.00    +0.000 A 
ENDBRANCH  12  15
ENDBRANCH   2  10
BRANCH   3  21
ATOM     21  C   UNL     1       4.860   4.010  17.717  0.00  0.00    +0.000 C 
BRANCH  21  22
ATOM     22  C   UNL     1       5.528   4.354  16.400  0.00  0.00    +0.000 A 
ATOM     23  C   UNL     1       6.858   4.780  16.306  0.00  0.00    +0.000 A 
ATOM     24  C   UNL     1       7.475   4.907  15.055  0.00  0.00    +0.000 A 
ATOM     25  C   UNL     1       6.775   4.603  13.889  0.00  0.00    +0.000 A 
ATOM     26  C   UNL     1       5.447   4.200  13.965  0.00  0.00    +0.000 A 
ATOM     27  C   UNL     1       4.827   4.078  15.211  0.00  0.00    +0.000 A 
ENDBRANCH  21  22
ENDBRANCH   3  21
TORSDOF 4
ENDMDL
MODEL 6
REMARK VINA RESULT:      -7.0      3.331      9.270
REMARK  Name = 
REMARK  4 active torsions:
REMARK  status: ('A' for Active; 'I' for Inactive)
REMARK    1  A    between atoms: C_2  and  C_3
REMARK    2  A    between atoms: C_5  and  C_6
REMARK    3  A    between atoms: N_14  and  C_15
REMARK    4  A    between atoms: C_15  and  C_16
REMARK                            x       y       z     vdW  Elec       q    Type
REMARK                         _______ _______ _______ _____ _____    ______ ____
ROOT
ATOM      1  O   UNL     1       4.294   8.208  17.508  0.00  0.00    +0.000 OA
ATOM      2  C   UNL     1       3.273   7.594  17.831  0.00  0.00    +0.000 C 
ATOM      3  N   UNL     1       3.159   6.201  17.632  0.00  0.00    +0.000 N 
ATOM      4  C   UNL     1       2.402   5.418  18.545  0.00  0.00    +0.000 A 
ATOM      5  C   UNL     1       1.835   4.214  18.143  0.00  0.00    +0.000 A 
ATOM      6  C   UNL     1       1.059   3.498  19.057  0.00  0.00    +0.000 A 
ATOM      7  C   UNL     1       0.899   3.981  20.350  0.00  0.00    +0.000 A 
ATOM      8  C   UNL     1       1.519   5.169  20.676  0.00  0.00    +0.000 A 
ATOM      9  N   UNL     1       2.248   5.892  19.801  0.00  0.00    +0.000 NA
ENDROOT
BRANCH   2  10
ATOM     10  C   UNL     1       2.083   8.327  18.317  0.00  0.00    +0.000 A 
ATOM     11  C   UNL     1       0.981   8.848  17.576  0.00  0.00    +0.000 A 
ATOM     12  C   UNL     1       0.183   9.477  18.504  0.00  0.00    +0.000 A 
ATOM     13  O   UNL     1       0.770   9.347  19.727  0.00  0.00    +0.000 OA
ATOM     14  N   UNL     1       1.959   8.657  19.614  0.00  0.00    +0.000 NA
BRANCH  12  15
ATOM     15  C   UNL     1      -1.067  10.227  18.458  0.00  0.00    +0.000 A 
ATOM     16  C   UNL     1      -1.325  11.251  19.385  0.00  0.00    +0.000 A 
ATOM     17  C   UNL     1      -2.532  11.956  19.364  0.00  0.00    +0.000 A 
ATOM     18  C   UNL     1      -3.503  11.652  18.410  0.00  0.00    +0.000 A 
ATOM     19  C   UNL     1      -3.263  10.646  17.480  0.00  0.00    +0.000 A 
ATOM     20  C   UNL     1      -2.057   9.942  17.504  0.00  0.00    +0.000 A 
ENDBRANCH  12  15
ENDBRANCH   2  10
BRANCH   3  21
ATOM     21  C   UNL     1       4.277   5.520  16.975  0.00  0.00    +0.000 C 
BRANCH  21  22
ATOM     22  C   UNL     1       5.647   5.695  17.603  0.00  0.00    +0.000 A 
ATOM     23  C   UNL     1       6.644   6.506  17.048  0.00  0.00    +0.000 A 
ATOM     24  C   UNL     1       7.818   6.775  17.763  0.00  0.00    +0.000 A 
ATOM     25  C   UNL     1       8.004   6.245  19.038  0.00  0.00    +0.000 A 
ATOM     26  C   UNL     1       7.033   5.420  19.594  0.00  0.00    +0.000 A 
ATOM     27  C   UNL     1       5.863   5.146  18.880  0.00  0.00    +0.000 A 
ENDBRANCH  21  22
ENDBRANCH   3  21
TORSDOF 4
ENDMDL
MODEL 7
REMARK VINA RESULT:      -7.0      3.901      9.951
REMARK  Name = 
REMARK  4 active torsions:
REMARK  status: ('A' for Active; 'I' for Inactive)
REMARK    1  A    between atoms: C_2  and  C_3
REMARK    2  A    between atoms: C_5  and  C_6
REMARK    3  A    between atoms: N_14  and  C_15
REMARK    4  A    between atoms: C_15  and  C_16
REMARK                            x       y       z     vdW  Elec       q    Type
REMARK                         _______ _______ _______ _____ _____    ______ ____
ROOT
ATOM      1  O   UNL     1       5.431   6.306  18.199  0.00  0.00    +0.000 OA
ATOM      2  C   UNL     1       4.248   5.966  18.277  0.00  0.00    +0.000 C 
ATOM      3  N   UNL     1       3.829   4.669  17.907  0.00  0.00    +0.000 N 
ATOM      4  C   UNL     1       2.742   4.059  18.589  0.00  0.00    +0.000 A 
ATOM      5  C   UNL     1       1.978   3.077  17.967  0.00  0.00    +0.000 A 
ATOM      6  C   UNL     1       0.889   2.536  18.653  0.00  0.00    +0.000 A 
ATOM      7  C   UNL     1       0.613   2.960  19.947  0.00  0.00    +0.000 A 
ATOM      8  C   UNL     1       1.437   3.916  20.503  0.00  0.00    +0.000 A 
ATOM      9  N   UNL     1       2.476   4.474  19.847  0.00  0.00    +0.000 NA
ENDROOT
BRANCH   2  10
ATOM     10  C   UNL     1       3.209   6.956  18.637  0.00  0.00    +0.000 A 
ATOM     11  C   UNL     1       2.769   7.373  19.928  0.00  0.00    +0.000 A 
ATOM     12  C   UNL     1       1.755   8.272  19.696  0.00  0.00    +0.000 A 
ATOM     13  O   UNL     1       1.591   8.388  18.348  0.00  0.00    +0.000 OA
ATOM     14  N   UNL     1       2.472   7.557  17.687  0.00  0.00    +0.000 NA
BRANCH  12  15
ATOM     15  C   UNL     1       0.858   9.063  20.531  0.00  0.00    +0.000 A 
ATOM     16  C   UNL     1       0.073  10.086  19.973  0.00  0.00    +0.000 A 
ATOM     17  C   UNL     1      -0.770  10.866  20.772  0.00  0.00    +0.000 A 
ATOM     18  C   UNL     1      -0.846  10.631  22.144  0.00  0.00    +0.000 A 
ATOM     19  C   UNL     1      -0.082   9.618  22.714  0.00  0.00    +0.000 A 
ATOM     20  C   UNL     1       0.760   8.842  21.914  0.00  0.00    +0.000 A 
ENDBRANCH  12  15
ENDBRANCH   2  10
BRANCH   3  21
ATOM     21  C   UNL     1       4.845   3.759  17.373  0.00  0.00    +0.000 C 
BRANCH  21  22
ATOM     22  C   UNL     1       5.504   4.163  16.068  0.00  0.00    +0.000 A 
ATOM     23  C   UNL     1       6.828   4.611  15.987  0.00  0.00    +0.000 A 
ATOM     24  C   UNL     1       7.439   4.794  14.739  0.00  0.00    +0.000 A 
ATOM     25  C   UNL     1       6.739   4.525  13.565  0.00  0.00    +0.000 A 
ATOM     26  C   UNL     1       5.417   4.100  13.629  0.00  0.00    +0.000 A 
ATOM     27  C   UNL     1       4.803   3.923  14.871  0.00  0.00    +0.000 A 
ENDBRANCH  21  22
ENDBRANCH   3  21
TORSDOF 4
ENDMDL
MODEL 8
REMARK VINA RESULT:      -7.0      2.524      7.624
REMARK  Name = 
REMARK  4 active torsions:
REMARK  status: ('A' for Active; 'I' for Inactive)
REMARK    1  A    between atoms: C_2  and  C_3
REMARK    2  A    between atoms: C_5  and  C_6
REMARK    3  A    between atoms: N_14  and  C_15
REMARK    4  A    between atoms: C_15  and  C_16
REMARK                            x       y       z     vdW  Elec       q    Type
REMARK                         _______ _______ _______ _____ _____    ______ ____
ROOT
ATOM      1  O   UNL     1       1.195  11.107  21.845  0.00  0.00    +0.000 OA
ATOM      2  C   UNL     1       0.612  11.437  20.808  0.00  0.00    +0.000 C 
ATOM      3  N   UNL     1       0.110  10.471  19.908  0.00  0.00    +0.000 N 
ATOM      4  C   UNL     1      -1.071  10.746  19.167  0.00  0.00    +0.000 A 
ATOM      5  C   UNL     1      -1.306  10.113  17.951  0.00  0.00    +0.000 A 
ATOM      6  C   UNL     1      -2.454  10.446  17.230  0.00  0.00    +0.000 A 
ATOM      7  C   UNL     1      -3.350  11.370  17.753  0.00  0.00    +0.000 A 
ATOM      8  C   UNL     1      -3.057  11.931  18.979  0.00  0.00    +0.000 A 
ATOM      9  N   UNL     1      -1.939  11.646  19.678  0.00  0.00    +0.000 NA
ENDROOT
BRANCH   2  10
ATOM     10  C   UNL     1       0.540  12.860  20.412  0.00  0.00    +0.000 A 
ATOM     11  C   UNL     1       0.884  13.469  19.169  0.00  0.00    +0.000 A 
ATOM     12  C   UNL     1       0.675  14.816  19.352  0.00  0.00    +0.000 A 
ATOM     13  O   UNL     1       0.237  15.009  20.628  0.00  0.00    +0.000 OA
ATOM     14  N   UNL     1       0.175  13.804  21.297  0.00  0.00    +0.000 NA
BRANCH  12  15
ATOM     15  C   UNL     1       0.835  16.011  18.531  0.00  0.00    +0.000 A 
ATOM     16  C   UNL     1      -0.272  16.812  18.207  0.00  0.00    +0.000 A 
ATOM     17  C   UNL     1      -0.132  17.945  17.398  0.00  0.00    +0.000 A 
ATOM     18  C   UNL     1       1.123  18.299  16.904  0.00  0.00    +0.000 A 
ATOM     19  C   UNL     1       2.232  17.523  17.220  0.00  0.00    +0.000 A 
ATOM     20  C   UNL     1       2.089  16.390  18.026  0.00  0.00    +0.000 A 
ENDBRANCH  12  15
ENDBRANCH   2  10
BRANCH   3  21
ATOM     21  C   UNL     1       0.356   9.062  20.225  0.00  0.00    +0.000 C 
BRANCH  21  22
ATOM     22  C   UNL     1       1.516   8.395  19.509  0.00  0.00    +0.000 A 
ATOM     23  C   UNL     1       2.061   7.171  19.914  0.00  0.00    +0.000 A 
ATOM     24  C   UNL     1       3.005   6.515  19.113  0.00  0.00    +0.000 A 
ATOM     25  C   UNL     1       3.405   7.070  17.899  0.00  0.00    +0.000 A 
ATOM     26  C   UNL     1       2.889   8.296  17.493  0.00  0.00    +0.000 A 
ATOM     27  C   UNL     1       1.953   8.954  18.294  0.00  0.00    +0.000 A 
ENDBRANCH  21  22
ENDBRANCH   3  21
TORSDOF 4
ENDMDL
MODEL 9
REMARK VINA RESULT:      -6.9      1.429      1.729
REMARK  Name = 
REMARK  4 active torsions:
REMARK  status: ('A' for Active; 'I' for Inactive)
REMARK    1  A    between atoms: C_2  and  C_3
REMARK    2  A    between atoms: C_5  and  C_6
REMARK    3  A    between atoms: N_14  and  C_15
REMARK    4  A    between atoms: C_15  and  C_16
REMARK                            x       y       z     vdW  Elec       q    Type
REMARK                         _______ _______ _______ _____ _____    ______ ____
ROOT
ATOM      1  O   UNL     1      -0.866  10.471  23.457  0.00  0.00    +0.000 OA
ATOM      2  C   UNL     1      -0.520  11.013  22.403  0.00  0.00    +0.000 C 
ATOM      3  N   UNL     1      -0.751  12.387  22.172  0.00  0.00    +0.000 N 
ATOM      4  C   UNL     1       0.170  13.134  21.389  0.00  0.00    +0.000 A 
ATOM      5  C   UNL     1      -0.241  14.279  20.715  0.00  0.00    +0.000 A 
ATOM      6  C   UNL     1       0.683  14.958  19.918  0.00  0.00    +0.000 A 
ATOM      7  C   UNL     1       1.993  14.501  19.843  0.00  0.00    +0.000 A 
ATOM      8  C   UNL     1       2.326  13.375  20.567  0.00  0.00    +0.000 A 
ATOM      9  N   UNL     1       1.443  12.686  21.318  0.00  0.00    +0.000 NA
ENDROOT
BRANCH   2  10
ATOM     10  C   UNL     1       0.029  10.204  21.293  0.00  0.00    +0.000 A 
ATOM     11  C   UNL     1       1.087   9.248  21.311  0.00  0.00    +0.000 A 
ATOM     12  C   UNL     1       1.223   8.829  20.008  0.00  0.00    +0.000 A 
ATOM     13  O   UNL     1       0.305   9.493  19.250  0.00  0.00    +0.000 OA
ATOM     14  N   UNL     1      -0.421  10.364  20.036  0.00  0.00    +0.000 NA
BRANCH  12  15
ATOM     15  C   UNL     1       2.099   7.900  19.303  0.00  0.00    +0.000 A 
ATOM     16  C   UNL     1       2.666   8.246  18.066  0.00  0.00    +0.000 A 
ATOM     17  C   UNL     1       3.485   7.350  17.371  0.00  0.00    +0.000 A 
ATOM     18  C   UNL     1       3.757   6.092  17.908  0.00  0.00    +0.000 A 
ATOM     19  C   UNL     1       3.210   5.733  19.135  0.00  0.00    +0.000 A 
ATOM     20  C   UNL     1       2.390   6.629  19.826  0.00  0.00    +0.000 A 
ENDBRANCH  12  15
ENDBRANCH   2  10
BRANCH   3  21
ATOM     21  C   UNL     1      -1.467  13.134  23.209  0.00  0.00    +0.000 C 
BRANCH  21  22
ATOM     22  C   UNL     1      -2.979  13.188  23.090  0.00  0.00    +0.000 A 
ATOM     23  C   UNL     1      -3.645  13.296  21.863  0.00  0.00    +0.000 A 
ATOM     24  C   UNL     1      -5.037  13.157  21.798  0.00  0.00    +0.000 A 
ATOM     25  C   UNL     1      -5.775  12.903  22.953  0.00  0.00    +0.000 A 
ATOM     26  C   UNL     1      -5.130  12.815  24.181  0.00  0.00    +0.000 A 
ATOM     27  C   UNL     1      -3.742  12.959  24.249  0.00  0.00    +0.000 A 
ENDBRANCH  21  22
ENDBRANCH   3  21
TORSDOF 4
ENDMDL
