MODEL 1
REMARK VINA RESULT:      -8.4      0.000      0.000
REMARK  Name = 
REMARK  4 active torsions:
REMARK  status: ('A' for Active; 'I' for Inactive)
REMARK    1  A    between atoms: C_2  and  C_3
REMARK    2  A    between atoms: N_7  and  C_8
REMARK    3  A    between atoms: C_18  and  C_19
REMARK    4  A    between atoms: C_22  and  C_23
REMARK                            x       y       z     vdW  Elec       q    Type
REMARK                         _______ _______ _______ _____ _____    ______ ____
ROOT
ATOM      1  O   UNL     1      -1.462  10.783  23.263  0.00  0.00    +0.000 OA
ATOM      2  C   UNL     1      -1.100  11.763  22.622  0.00  0.00    +0.000 C 
ATOM      3  N   UNL     1      -0.095  11.645  21.652  0.00  0.00    +0.000 N 
ATOM      4  C   UNL     1       0.439  12.691  20.779  0.00  0.00    +0.000 C 
ATOM      5  C   UNL     1       0.302  12.259  19.321  0.00  0.00    +0.000 C 
ATOM      6  C   UNL     1       1.036  10.940  19.082  0.00  0.00    +0.000 C 
ATOM      7  C   UNL     1       0.580   9.848  20.072  0.00  0.00    +0.000 C 
ATOM      8  C   UNL     1       0.617  10.365  21.519  0.00  0.00    +0.000 C 
ENDROOT
BRANCH   7   9
ATOM      9  C   UNL     1       1.409   8.619  19.910  0.00  0.00    +0.000 A 
ATOM     10  N   UNL     1       1.486   7.675  20.853  0.00  0.00    +0.000 NA
ATOM     11  N   UNL     1       2.255   6.756  20.249  0.00  0.00    +0.000 N 
ATOM     12  C   UNL     1       2.597   7.127  18.974  0.00  0.00    +0.000 A 
ATOM     13  N   UNL     1       2.077   8.320  18.749  0.00  0.00    +0.000 NA
ATOM     14  H   UNL     1       2.477   5.902  20.742  0.00  0.00    +0.000 HD
BRANCH  12  15
ATOM     15  C   UNL     1       3.349   6.299  18.030  0.00  0.00    +0.000 A 
ATOM     16  C   UNL     1       4.370   6.822  17.220  0.00  0.00    +0.000 A 
ATOM     17  C   UNL     1       5.122   5.985  16.390  0.00  0.00    +0.000 A 
ATOM     18  C   UNL     1       4.860   4.619  16.350  0.00  0.00    +0.000 A 
ATOM     19  C   UNL     1       3.833   4.088  17.126  0.00  0.00    +0.000 A 
ATOM     20  C   UNL     1       3.083   4.923  17.958  0.00  0.00    +0.000 A 
ENDBRANCH  12  15
ENDBRANCH   7   9
BRANCH   2  21
ATOM     21  C   UNL     1      -1.684  13.071  22.866  0.00  0.00    +0.000 A 
ATOM     22  C   UNL     1      -1.248  14.105  23.683  0.00  0.00    +0.000 A 
ATOM     23  C   UNL     1      -2.145  15.156  23.486  0.00  0.00    +0.000 A 
ATOM     24  N   UNL     1      -3.005  14.898  22.508  0.00  0.00    +0.000 NA
ATOM     25  N   UNL     1      -2.771  13.594  22.170  0.00  0.00    +0.000 N 
BRANCH  25  26
ATOM     26  C   UNL     1      -3.696  12.958  21.294  0.00  0.00    +0.000 A 
ATOM     27  C   UNL     1      -3.288  12.639  19.989  0.00  0.00    +0.000 A 
ATOM     28  C   UNL     1      -4.190  12.059  19.094  0.00  0.00    +0.000 A 
ATOM     29  C   UNL     1      -5.507  11.826  19.486  0.00  0.00    +0.000 A 
ATOM     30  C   UNL     1      -5.920  12.155  20.776  0.00  0.00    +0.000 A 
ATOM     31  C   UNL     1      -5.018  12.714  21.684  0.00  0.00    +0.000 A 
ENDBRANCH  25  26
ENDBRANCH   2  21
TORSDOF 4
ENDMDL
MODEL 2
REMARK VINA RESULT:      -8.3      2.536      9.743
REMARK  Name = 
REMARK  4 active torsions:
REMARK  status: ('A' for Active; 'I' for Inactive)
REMARK    1  A    between atoms: C_2  and  C_3
REMARK    2  A    between atoms: N_7  and  C_8
REMARK    3  A    between atoms: C_18  and  C_19
REMARK    4  A    between atoms: C_22  and  C_23
REMARK                            x       y       z     vdW  Elec       q    Type
REMARK                         _______ _______ _______ _____ _____    ______ ____
ROOT
ATOM      1  O   UNL     1       3.047   6.345  20.169  0.00  0.00    +0.000 OA
ATOM      2  C   UNL     1       2.908   6.908  19.089  0.00  0.00    +0.000 C 
ATOM      3  N   UNL     1       1.996   7.965  18.952  0.00  0.00    +0.000 N 
ATOM      4  C   UNL     1       1.722   8.766  17.759  0.00  0.00    +0.000 C 
ATOM      5  C   UNL     1       1.930  10.245  18.078  0.00  0.00    +0.000 C 
ATOM      6  C   UNL     1       1.023  10.676  19.231  0.00  0.00    +0.000 C 
ATOM      7  C   UNL     1       1.202   9.770  20.466  0.00  0.00    +0.000 C 
ATOM      8  C   UNL     1       1.107   8.286  20.079  0.00  0.00    +0.000 C 
ENDROOT
BRANCH   7   9
ATOM      9  C   UNL     1       0.209  10.124  21.521  0.00  0.00    +0.000 A 
ATOM     10  N   UNL     1      -0.100   9.296  22.523  0.00  0.00    +0.000 NA
ATOM     11  N   UNL     1      -0.946  10.050  23.242  0.00  0.00    +0.000 N 
ATOM     12  C   UNL     1      -1.108  11.300  22.702  0.00  0.00    +0.000 A 
ATOM     13  N   UNL     1      -0.388  11.357  21.595  0.00  0.00    +0.000 NA
ATOM     14  H   UNL     1      -1.343   9.669  24.089  0.00  0.00    +0.000 HD
BRANCH  12  15
ATOM     15  C   UNL     1      -1.892  12.381  23.303  0.00  0.00    +0.000 A 
ATOM     16  C   UNL     1      -1.366  13.667  23.506  0.00  0.00    +0.000 A 
ATOM     17  C   UNL     1      -2.169  14.696  24.006  0.00  0.00    +0.000 A 
ATOM     18  C   UNL     1      -3.503  14.453  24.320  0.00  0.00    +0.000 A 
ATOM     19  C   UNL     1      -4.033  13.176  24.152  0.00  0.00    +0.000 A 
ATOM     20  C   UNL     1      -3.232  12.149  23.649  0.00  0.00    +0.000 A 
ENDBRANCH  12  15
ENDBRANCH   7   9
BRANCH   2  21
ATOM     21  C   UNL     1       3.665   6.485  17.924  0.00  0.00    +0.000 A 
ATOM     22  C   UNL     1       4.490   7.216  17.081  0.00  0.00    +0.000 A 
ATOM     23  C   UNL     1       5.018   6.302  16.169  0.00  0.00    +0.000 A 
ATOM     24  N   UNL     1       4.697   5.051  16.478  0.00  0.00    +0.000 NA
ATOM     25  N   UNL     1       3.811   5.162  17.513  0.00  0.00    +0.000 N 
BRANCH  25  26
ATOM     26  C   UNL     1       3.113   3.989  17.920  0.00  0.00    +0.000 A 
ATOM     27  C   UNL     1       1.710   4.015  17.975  0.00  0.00    +0.000 A 
ATOM     28  C   UNL     1       1.004   2.894  18.416  0.00  0.00    +0.000 A 
ATOM     29  C   UNL     1       1.693   1.758  18.835  0.00  0.00    +0.000 A 
ATOM     30  C   UNL     1       3.087   1.732  18.795  0.00  0.00    +0.000 A 
ATOM     31  C   UNL     1       3.799   2.841  18.333  0.00  0.00    +0.000 A 
ENDBRANCH  25  26
ENDBRANCH   2  21
TORSDOF 4
ENDMDL
MODEL 3
REMARK VINA RESULT:      -8.3      2.523      9.782
REMARK  Name = 
REMARK  4 active torsions:
REMARK  status: ('A' for Active; 'I' for Inactive)
REMARK    1  A    between atoms: C_2  and  C_3
REMARK    2  A    between atoms: N_7  and  C_8
REMARK    3  A    between atoms: C_18  and  C_19
REMARK    4  A    between atoms: C_22  and  C_23
REMARK                            x       y       z     vdW  Elec       q    Type
REMARK                         _______ _______ _______ _____ _____    ______ ____
ROOT
ATOM      1  O   UNL     1       3.027   6.368  20.219  0.00  0.00    +0.000 OA
ATOM      2  C   UNL     1       2.893   6.928  19.137  0.00  0.00    +0.000 C 
ATOM      3  N   UNL     1       1.981   7.983  18.992  0.00  0.00    +0.000 N 
ATOM      4  C   UNL     1       1.711   8.781  17.796  0.00  0.00    +0.000 C 
ATOM      5  C   UNL     1       1.918  10.261  18.110  0.00  0.00    +0.000 C 
ATOM      6  C   UNL     1       1.007  10.696  19.257  0.00  0.00    +0.000 C 
ATOM      7  C   UNL     1       1.181   9.795  20.497  0.00  0.00    +0.000 C 
ATOM      8  C   UNL     1       1.087   8.309  20.115  0.00  0.00    +0.000 C 
ENDROOT
BRANCH   7   9
ATOM      9  C   UNL     1       0.185  10.153  21.546  0.00  0.00    +0.000 A 
ATOM     10  N   UNL     1      -0.106   9.341  22.567  0.00  0.00    +0.000 NA
ATOM     11  N   UNL     1      -0.964  10.095  23.272  0.00  0.00    +0.000 N 
ATOM     12  C   UNL     1      -1.152  11.328  22.704  0.00  0.00    +0.000 A 
ATOM     13  N   UNL     1      -0.437  11.375  21.595  0.00  0.00    +0.000 NA
ATOM     14  H   UNL     1      -1.351   9.725  24.129  0.00  0.00    +0.000 HD
BRANCH  12  15
ATOM     15  C   UNL     1      -1.956  12.407  23.283  0.00  0.00    +0.000 A 
ATOM     16  C   UNL     1      -3.291  12.220  23.677  0.00  0.00    +0.000 A 
ATOM     17  C   UNL     1      -4.002  13.249  24.301  0.00  0.00    +0.000 A 
ATOM     18  C   UNL     1      -3.395  14.480  24.531  0.00  0.00    +0.000 A 
ATOM     19  C   UNL     1      -2.080  14.692  24.122  0.00  0.00    +0.000 A 
ATOM     20  C   UNL     1      -1.369  13.662  23.501  0.00  0.00    +0.000 A 
ENDBRANCH  12  15
ENDBRANCH   7   9
BRANCH   2  21
ATOM     21  C   UNL     1       3.654   6.500  17.976  0.00  0.00    +0.000 A 
ATOM     22  C   UNL     1       4.477   7.229  17.130  0.00  0.00    +0.000 A 
ATOM     23  C   UNL     1       5.011   6.311  16.225  0.00  0.00    +0.000 A 
ATOM     24  N   UNL     1       4.695   5.061  16.541  0.00  0.00    +0.000 NA
ATOM     25  N   UNL     1       3.806   5.175  17.573  0.00  0.00    +0.000 N 
BRANCH  25  26
ATOM     26  C   UNL     1       3.111   4.001  17.986  0.00  0.00    +0.000 A 
ATOM     27  C   UNL     1       3.845   2.834  18.252  0.00  0.00    +0.000 A 
ATOM     28  C   UNL     1       3.185   1.657  18.612  0.00  0.00    +0.000 A 
ATOM     29  C   UNL     1       1.793   1.632  18.674  0.00  0.00    +0.000 A 
ATOM     30  C   UNL     1       1.060   2.785  18.397  0.00  0.00    +0.000 A 
ATOM     31  C   UNL     1       1.714   3.971  18.060  0.00  0.00    +0.000 A 
ENDBRANCH  25  26
ENDBRANCH   2  21
TORSDOF 4
ENDMDL
MODEL 4
REMARK VINA RESULT:      -8.2      0.134      1.252
REMARK  Name = 
REMARK  4 active torsions:
REMARK  status: ('A' for Active; 'I' for Inactive)
REMARK    1  A    between atoms: C_2  and  C_3
REMARK    2  A    between atoms: N_7  and  C_8
REMARK    3  A    between atoms: C_18  and  C_19
REMARK    4  A    between atoms: C_22  and  C_23
REMARK                            x       y       z     vdW  Elec       q    Type
REMARK                         _______ _______ _______ _____ _____    ______ ____
ROOT
ATOM      1  O   UNL     1      -1.461  10.814  23.236  0.00  0.00    +0.000 OA
ATOM      2  C   UNL     1      -1.064  11.781  22.595  0.00  0.00    +0.000 C 
ATOM      3  N   UNL     1      -0.043  11.632  21.645  0.00  0.00    +0.000 N 
ATOM      4  C   UNL     1       0.532  12.658  20.775  0.00  0.00    +0.000 C 
ATOM      5  C   UNL     1       0.413  12.217  19.318  0.00  0.00    +0.000 C 
ATOM      6  C   UNL     1       1.121  10.879  19.104  0.00  0.00    +0.000 C 
ATOM      7  C   UNL     1       0.620   9.806  20.092  0.00  0.00    +0.000 C 
ATOM      8  C   UNL     1       0.641  10.334  21.536  0.00  0.00    +0.000 C 
ENDROOT
BRANCH   7   9
ATOM      9  C   UNL     1       1.423   8.557  19.956  0.00  0.00    +0.000 A 
ATOM     10  N   UNL     1       1.444   7.611  20.900  0.00  0.00    +0.000 NA
ATOM     11  N   UNL     1       2.210   6.673  20.321  0.00  0.00    +0.000 N 
ATOM     12  C   UNL     1       2.604   7.037  19.059  0.00  0.00    +0.000 A 
ATOM     13  N   UNL     1       2.122   8.243  18.818  0.00  0.00    +0.000 NA
ATOM     14  H   UNL     1       2.394   5.814  20.820  0.00  0.00    +0.000 HD
BRANCH  12  15
ATOM     15  C   UNL     1       3.367   6.191  18.140  0.00  0.00    +0.000 A 
ATOM     16  C   UNL     1       3.122   4.814  18.006  0.00  0.00    +0.000 A 
ATOM     17  C   UNL     1       3.815   4.054  17.060  0.00  0.00    +0.000 A 
ATOM     18  C   UNL     1       4.767   4.654  16.241  0.00  0.00    +0.000 A 
ATOM     19  C   UNL     1       5.043   6.012  16.379  0.00  0.00    +0.000 A 
ATOM     20  C   UNL     1       4.349   6.773  17.323  0.00  0.00    +0.000 A 
ENDBRANCH  12  15
ENDBRANCH   7   9
BRANCH   2  21
ATOM     21  C   UNL     1      -1.621  13.104  22.817  0.00  0.00    +0.000 A 
ATOM     22  C   UNL     1      -1.196  14.122  23.659  0.00  0.00    +0.000 A 
ATOM     23  C   UNL     1      -2.053  15.199  23.425  0.00  0.00    +0.000 A 
ATOM     24  N   UNL     1      -2.872  14.969  22.406  0.00  0.00    +0.000 NA
ATOM     25  N   UNL     1      -2.660  13.660  22.073  0.00  0.00    +0.000 N 
BRANCH  25  26
ATOM     26  C   UNL     1      -3.559  13.053  21.150  0.00  0.00    +0.000 A 
ATOM     27  C   UNL     1      -4.895  12.852  21.534  0.00  0.00    +0.000 A 
ATOM     28  C   UNL     1      -5.785  12.216  20.666  0.00  0.00    +0.000 A 
ATOM     29  C   UNL     1      -5.341  11.751  19.430  0.00  0.00    +0.000 A 
ATOM     30  C   UNL     1      -4.012  11.936  19.051  0.00  0.00    +0.000 A 
ATOM     31  C   UNL     1      -3.121  12.592  19.904  0.00  0.00    +0.000 A 
ENDBRANCH  25  26
ENDBRANCH   2  21
TORSDOF 4
ENDMDL
MODEL 5
REMARK VINA RESULT:      -8.0      3.777      9.521
REMARK  Name = 
REMARK  4 active torsions:
REMARK  status: ('A' for Active; 'I' for Inactive)
REMARK    1  A    between atoms: C_2  and  C_3
REMARK    2  A    between atoms: N_7  and  C_8
REMARK    3  A    between atoms: C_18  and  C_19
REMARK    4  A    between atoms: C_22  and  C_23
REMARK                            x       y       z     vdW  Elec       q    Type
REMARK                         _______ _______ _______ _____ _____    ______ ____
ROOT
ATOM      1  O   UNL     1       2.519   6.821  17.841  0.00  0.00    +0.000 OA
ATOM      2  C   UNL     1       2.302   6.681  19.040  0.00  0.00    +0.000 C 
ATOM      3  N   UNL     1       1.898   7.773  19.821  0.00  0.00    +0.000 N 
ATOM      4  C   UNL     1       1.569   7.785  21.247  0.00  0.00    +0.000 C 
ATOM      5  C   UNL     1       0.160   8.341  21.441  0.00  0.00    +0.000 C 
ATOM      6  C   UNL     1       0.055   9.750  20.858  0.00  0.00    +0.000 C 
ATOM      7  C   UNL     1       0.513   9.792  19.385  0.00  0.00    +0.000 C 
ATOM      8  C   UNL     1       1.882   9.113  19.214  0.00  0.00    +0.000 C 
ENDROOT
BRANCH   7   9
ATOM      9  C   UNL     1       0.534  11.196  18.885  0.00  0.00    +0.000 A 
ATOM     10  N   UNL     1      -0.571  11.836  18.492  0.00  0.00    +0.000 NA
ATOM     11  N   UNL     1      -0.089  13.056  18.213  0.00  0.00    +0.000 N 
ATOM     12  C   UNL     1       1.255  13.149  18.464  0.00  0.00    +0.000 A 
ATOM     13  N   UNL     1       1.670  11.966  18.879  0.00  0.00    +0.000 NA
ATOM     14  H   UNL     1      -0.725  13.773  17.892  0.00  0.00    +0.000 HD
BRANCH  12  15
ATOM     15  C   UNL     1       2.050  14.373  18.347  0.00  0.00    +0.000 A 
ATOM     16  C   UNL     1       3.422  14.352  18.045  0.00  0.00    +0.000 A 
ATOM     17  C   UNL     1       4.130  15.542  17.860  0.00  0.00    +0.000 A 
ATOM     18  C   UNL     1       3.484  16.768  17.985  0.00  0.00    +0.000 A 
ATOM     19  C   UNL     1       2.131  16.809  18.312  0.00  0.00    +0.000 A 
ATOM     20  C   UNL     1       1.421  15.619  18.493  0.00  0.00    +0.000 A 
ENDBRANCH  12  15
ENDBRANCH   7   9
BRANCH   2  21
ATOM     21  C   UNL     1       2.478   5.390  19.683  0.00  0.00    +0.000 A 
ATOM     22  C   UNL     1       1.644   4.706  20.555  0.00  0.00    +0.000 A 
ATOM     23  C   UNL     1       2.269   3.485  20.809  0.00  0.00    +0.000 A 
ATOM     24  N   UNL     1       3.343   3.309  20.049  0.00  0.00    +0.000 NA
ATOM     25  N   UNL     1       3.516   4.503  19.406  0.00  0.00    +0.000 N 
BRANCH  25  26
ATOM     26  C   UNL     1       4.727   4.699  18.681  0.00  0.00    +0.000 A 
ATOM     27  C   UNL     1       4.817   4.219  17.364  0.00  0.00    +0.000 A 
ATOM     28  C   UNL     1       6.008   4.355  16.648  0.00  0.00    +0.000 A 
ATOM     29  C   UNL     1       7.120   4.939  17.252  0.00  0.00    +0.000 A 
ATOM     30  C   UNL     1       7.039   5.405  18.564  0.00  0.00    +0.000 A 
ATOM     31  C   UNL     1       5.844   5.293  19.278  0.00  0.00    +0.000 A 
ENDBRANCH  25  26
ENDBRANCH   2  21
TORSDOF 4
ENDMDL
MODEL 6
REMARK VINA RESULT:      -8.0      1.709      2.700
REMARK  Name = 
REMARK  4 active torsions:
REMARK  status: ('A' for Active; 'I' for Inactive)
REMARK    1  A    between atoms: C_2  and  C_3
REMARK    2  A    between atoms: N_7  and  C_8
REMARK    3  A    between atoms: C_18  and  C_19
REMARK    4  A    between atoms: C_22  and  C_23
REMARK                            x       y       z     vdW  Elec       q    Type
REMARK                         _______ _______ _______ _____ _____    ______ ____
ROOT
ATOM      1  O   UNL     1      -3.481  11.678  24.009  0.00  0.00    +0.000 OA
ATOM      2  C   UNL     1      -3.157  12.703  23.420  0.00  0.00    +0.000 C 
ATOM      3  N   UNL     1      -1.974  12.746  22.668  0.00  0.00    +0.000 N 
ATOM      4  C   UNL     1      -1.449  13.863  21.882  0.00  0.00    +0.000 C 
ATOM      5  C   UNL     1      -1.228  13.414  20.439  0.00  0.00    +0.000 C 
ATOM      6  C   UNL     1      -0.264  12.228  20.391  0.00  0.00    +0.000 C 
ATOM      7  C   UNL     1      -0.730  11.078  21.307  0.00  0.00    +0.000 C 
ATOM      8  C   UNL     1      -1.059  11.595  22.717  0.00  0.00    +0.000 C 
ENDROOT
BRANCH   7   9
ATOM      9  C   UNL     1       0.296   9.996  21.349  0.00  0.00    +0.000 A 
ATOM     10  N   UNL     1       1.005   9.721  22.447  0.00  0.00    +0.000 NA
ATOM     11  N   UNL     1       1.717   8.657  22.045  0.00  0.00    +0.000 N 
ATOM     12  C   UNL     1       1.415   8.290  20.760  0.00  0.00    +0.000 A 
ATOM     13  N   UNL     1       0.521   9.145  20.296  0.00  0.00    +0.000 NA
ATOM     14  H   UNL     1       2.353   8.219  22.697  0.00  0.00    +0.000 HD
BRANCH  12  15
ATOM     15  C   UNL     1       1.955   7.116  20.071  0.00  0.00    +0.000 A 
ATOM     16  C   UNL     1       1.830   5.817  20.590  0.00  0.00    +0.000 A 
ATOM     17  C   UNL     1       2.285   4.712  19.866  0.00  0.00    +0.000 A 
ATOM     18  C   UNL     1       2.879   4.888  18.620  0.00  0.00    +0.000 A 
ATOM     19  C   UNL     1       3.037   6.171  18.102  0.00  0.00    +0.000 A 
ATOM     20  C   UNL     1       2.580   7.276  18.825  0.00  0.00    +0.000 A 
ENDBRANCH  12  15
ENDBRANCH   7   9
BRANCH   2  21
ATOM     21  C   UNL     1      -3.974  13.901  23.504  0.00  0.00    +0.000 A 
ATOM     22  C   UNL     1      -3.854  15.007  24.333  0.00  0.00    +0.000 A 
ATOM     23  C   UNL     1      -4.860  15.893  23.943  0.00  0.00    +0.000 A 
ATOM     24  N   UNL     1      -5.487  15.480  22.848  0.00  0.00    +0.000 NA
ATOM     25  N   UNL     1      -4.996  14.226  22.614  0.00  0.00    +0.000 N 
BRANCH  25  26
ATOM     26  C   UNL     1      -5.644  13.431  21.626  0.00  0.00    +0.000 A 
ATOM     27  C   UNL     1      -6.785  12.696  21.985  0.00  0.00    +0.000 A 
ATOM     28  C   UNL     1      -7.411  11.871  21.047  0.00  0.00    +0.000 A 
ATOM     29  C   UNL     1      -6.884  11.752  19.763  0.00  0.00    +0.000 A 
ATOM     30  C   UNL     1      -5.743  12.469  19.407  0.00  0.00    +0.000 A 
ATOM     31  C   UNL     1      -5.125  13.314  20.331  0.00  0.00    +0.000 A 
ENDBRANCH  25  26
ENDBRANCH   2  21
TORSDOF 4
ENDMDL
MODEL 7
REMARK VINA RESULT:      -7.9      3.497      9.580
REMARK  Name = 
REMARK  4 active torsions:
REMARK  status: ('A' for Active; 'I' for Inactive)
REMARK    1  A    between atoms: C_2  and  C_3
REMARK    2  A    between atoms: N_7  and  C_8
REMARK    3  A    between atoms: C_18  and  C_19
REMARK    4  A    between atoms: C_22  and  C_23
REMARK                            x       y       z     vdW  Elec       q    Type
REMARK                         _______ _______ _______ _____ _____    ______ ____
ROOT
ATOM      1  O   UNL     1       2.324   7.255  17.811  0.00  0.00    +0.000 OA
ATOM      2  C   UNL     1       2.169   7.125  19.020  0.00  0.00    +0.000 C 
ATOM      3  N   UNL     1       1.675   8.187  19.791  0.00  0.00    +0.000 N 
ATOM      4  C   UNL     1       1.400   8.204  21.227  0.00  0.00    +0.000 C 
ATOM      5  C   UNL     1      -0.054   8.606  21.465  0.00  0.00    +0.000 C 
ATOM      6  C   UNL     1      -0.336   9.978  20.852  0.00  0.00    +0.000 C 
ATOM      7  C   UNL     1       0.060  10.029  19.362  0.00  0.00    +0.000 C 
ATOM      8  C   UNL     1       1.488   9.500  19.153  0.00  0.00    +0.000 C 
ENDROOT
BRANCH   7   9
ATOM      9  C   UNL     1      -0.094  11.413  18.828  0.00  0.00    +0.000 A 
ATOM     10  N   UNL     1      -1.117  11.772  18.048  0.00  0.00    +0.000 NA
ATOM     11  N   UNL     1      -0.883  13.084  17.888  0.00  0.00    +0.000 N 
ATOM     12  C   UNL     1       0.226  13.497  18.580  0.00  0.00    +0.000 A 
ATOM     13  N   UNL     1       0.749  12.439  19.172  0.00  0.00    +0.000 NA
ATOM     14  H   UNL     1      -1.525  13.632  17.333  0.00  0.00    +0.000 HD
BRANCH  12  15
ATOM     15  C   UNL     1       0.687  14.884  18.680  0.00  0.00    +0.000 A 
ATOM     16  C   UNL     1       2.049  15.223  18.702  0.00  0.00    +0.000 A 
ATOM     17  C   UNL     1       2.451  16.561  18.715  0.00  0.00    +0.000 A 
ATOM     18  C   UNL     1       1.501  17.578  18.717  0.00  0.00    +0.000 A 
ATOM     19  C   UNL     1       0.146  17.260  18.724  0.00  0.00    +0.000 A 
ATOM     20  C   UNL     1      -0.257  15.922  18.708  0.00  0.00    +0.000 A 
ENDBRANCH  12  15
ENDBRANCH   7   9
BRANCH   2  21
ATOM     21  C   UNL     1       2.511   5.880  19.687  0.00  0.00    +0.000 A 
ATOM     22  C   UNL     1       1.833   5.181  20.675  0.00  0.00    +0.000 A 
ATOM     23  C   UNL     1       2.571   4.018  20.900  0.00  0.00    +0.000 A 
ATOM     24  N   UNL     1       3.562   3.882  20.027  0.00  0.00    +0.000 NA
ATOM     25  N   UNL     1       3.573   5.055  19.324  0.00  0.00    +0.000 N 
BRANCH  25  26
ATOM     26  C   UNL     1       4.676   5.300  18.457  0.00  0.00    +0.000 A 
ATOM     27  C   UNL     1       4.563   4.960  17.099  0.00  0.00    +0.000 A 
ATOM     28  C   UNL     1       5.647   5.145  16.238  0.00  0.00    +0.000 A 
ATOM     29  C   UNL     1       6.853   5.637  16.732  0.00  0.00    +0.000 A 
ATOM     30  C   UNL     1       6.973   5.963  18.082  0.00  0.00    +0.000 A 
ATOM     31  C   UNL     1       5.887   5.802  18.945  0.00  0.00    +0.000 A 
ENDBRANCH  25  26
ENDBRANCH   2  21
TORSDOF 4
ENDMDL
MODEL 8
REMARK VINA RESULT:      -7.8      2.739     10.080
REMARK  Name = 
REMARK  4 active torsions:
REMARK  status: ('A' for Active; 'I' for Inactive)
REMARK    1  A    between atoms: C_2  and  C_3
REMARK    2  A    between atoms: N_7  and  C_8
REMARK    3  A    between atoms: C_18  and  C_19
REMARK    4  A    between atoms: C_22  and  C_23
REMARK                            x       y       z     vdW  Elec       q    Type
REMARK                         _______ _______ _______ _____ _____    ______ ____
ROOT
ATOM      1  O   UNL     1       2.813   4.256  21.309  0.00  0.00    +0.000 OA
ATOM      2  C   UNL     1       2.696   4.417  20.100  0.00  0.00    +0.000 C 
ATOM      3  N   UNL     1       2.056   5.559  19.594  0.00  0.00    +0.000 N 
ATOM      4  C   UNL     1       1.854   5.929  18.193  0.00  0.00    +0.000 C 
ATOM      5  C   UNL     1       2.448   7.313  17.940  0.00  0.00    +0.000 C 
ATOM      6  C   UNL     1       1.805   8.348  18.863  0.00  0.00    +0.000 C 
ATOM      7  C   UNL     1       1.895   7.924  20.343  0.00  0.00    +0.000 C 
ATOM      8  C   UNL     1       1.402   6.481  20.535  0.00  0.00    +0.000 C 
ENDROOT
BRANCH   7   9
ATOM      9  C   UNL     1       1.140   8.878  21.206  0.00  0.00    +0.000 A 
ATOM     10  N   UNL     1       1.503   9.151  22.463  0.00  0.00    +0.000 NA
ATOM     11  N   UNL     1       0.606  10.091  22.801  0.00  0.00    +0.000 N 
ATOM     12  C   UNL     1      -0.241  10.390  21.766  0.00  0.00    +0.000 A 
ATOM     13  N   UNL     1       0.077   9.614  20.746  0.00  0.00    +0.000 NA
ATOM     14  H   UNL     1       0.650  10.499  23.724  0.00  0.00    +0.000 HD
BRANCH  12  15
ATOM     15  C   UNL     1      -1.265  11.437  21.794  0.00  0.00    +0.000 A 
ATOM     16  C   UNL     1      -1.715  12.079  20.629  0.00  0.00    +0.000 A 
ATOM     17  C   UNL     1      -2.752  13.014  20.684  0.00  0.00    +0.000 A 
ATOM     18  C   UNL     1      -3.346  13.330  21.902  0.00  0.00    +0.000 A 
ATOM     19  C   UNL     1      -2.893  12.724  23.072  0.00  0.00    +0.000 A 
ATOM     20  C   UNL     1      -1.859  11.786  23.017  0.00  0.00    +0.000 A 
ENDBRANCH  12  15
ENDBRANCH   7   9
BRANCH   2  21
ATOM     21  C   UNL     1       3.194   3.425  19.163  0.00  0.00    +0.000 A 
ATOM     22  C   UNL     1       2.678   2.184  18.819  0.00  0.00    +0.000 A 
ATOM     23  C   UNL     1       3.514   1.681  17.822  0.00  0.00    +0.000 A 
ATOM     24  N   UNL     1       4.411   2.577  17.428  0.00  0.00    +0.000 NA
ATOM     25  N   UNL     1       4.265   3.624  18.294  0.00  0.00    +0.000 N 
BRANCH  25  26
ATOM     26  C   UNL     1       5.247   4.655  18.264  0.00  0.00    +0.000 A 
ATOM     27  C   UNL     1       5.343   5.471  17.125  0.00  0.00    +0.000 A 
ATOM     28  C   UNL     1       6.328   6.458  17.050  0.00  0.00    +0.000 A 
ATOM     29  C   UNL     1       7.239   6.612  18.093  0.00  0.00    +0.000 A 
ATOM     30  C   UNL     1       7.156   5.795  19.220  0.00  0.00    +0.000 A 
ATOM     31  C   UNL     1       6.159   4.822  19.312  0.00  0.00    +0.000 A 
ENDBRANCH  25  26
ENDBRANCH   2  21
TORSDOF 4
ENDMDL
MODEL 9
REMARK VINA RESULT:      -7.8      3.593      9.792
REMARK  Name = 
REMARK  4 active torsions:
REMARK  status: ('A' for Active; 'I' for Inactive)
REMARK    1  A    between atoms: C_2  and  C_3
REMARK    2  A    between atoms: N_7  and  C_8
REMARK    3  A    between atoms: C_18  and  C_19
REMARK    4  A    between atoms: C_22  and  C_23
REMARK                            x       y       z     vdW  Elec       q    Type
REMARK                         _______ _______ _______ _____ _____    ______ ____
ROOT
ATOM      1  O   UNL     1       2.638   7.968  17.069  0.00  0.00    +0.000 OA
ATOM      2  C   UNL     1       2.483   7.269  18.065  0.00  0.00    +0.000 C 
ATOM      3  N   UNL     1       2.134   7.850  19.292  0.00  0.00    +0.000 N 
ATOM      4  C   UNL     1       1.881   7.177  20.566  0.00  0.00    +0.000 C 
ATOM      5  C   UNL     1       0.490   7.550  21.075  0.00  0.00    +0.000 C 
ATOM      6  C   UNL     1       0.370   9.065  21.240  0.00  0.00    +0.000 C 
ATOM      7  C   UNL     1       0.749   9.811  19.944  0.00  0.00    +0.000 C 
ATOM      8  C   UNL     1       2.100   9.317  19.399  0.00  0.00    +0.000 C 
ENDROOT
BRANCH   7   9
ATOM      9  C   UNL     1       0.759  11.284  20.174  0.00  0.00    +0.000 A 
ATOM     10  N   UNL     1       0.960  11.821  21.381  0.00  0.00    +0.000 NA
ATOM     11  N   UNL     1       0.964  13.132  21.093  0.00  0.00    +0.000 N 
ATOM     12  C   UNL     1       0.804  13.365  19.752  0.00  0.00    +0.000 A 
ATOM     13  N   UNL     1       0.657  12.196  19.154  0.00  0.00    +0.000 NA
ATOM     14  H   UNL     1       1.110  13.797  21.839  0.00  0.00    +0.000 HD
BRANCH  12  15
ATOM     15  C   UNL     1       0.857  14.682  19.114  0.00  0.00    +0.000 A 
ATOM     16  C   UNL     1      -0.294  15.450  18.879  0.00  0.00    +0.000 A 
ATOM     17  C   UNL     1      -0.197  16.737  18.344  0.00  0.00    +0.000 A 
ATOM     18  C   UNL     1       1.048  17.271  18.026  0.00  0.00    +0.000 A 
ATOM     19  C   UNL     1       2.199  16.513  18.226  0.00  0.00    +0.000 A 
ATOM     20  C   UNL     1       2.102  15.227  18.764  0.00  0.00    +0.000 A 
ENDBRANCH  12  15
ENDBRANCH   7   9
BRANCH   2  21
ATOM     21  C   UNL     1       2.680   5.831  18.005  0.00  0.00    +0.000 A 
ATOM     22  C   UNL     1       1.752   4.809  17.869  0.00  0.00    +0.000 A 
ATOM     23  C   UNL     1       2.490   3.626  17.798  0.00  0.00    +0.000 A 
ATOM     24  N   UNL     1       3.795   3.858  17.731  0.00  0.00    +0.000 NA
ATOM     25  N   UNL     1       3.922   5.205  17.928  0.00  0.00    +0.000 N 
BRANCH  25  26
ATOM     26  C   UNL     1       5.231   5.727  18.133  0.00  0.00    +0.000 A 
ATOM     27  C   UNL     1       5.759   6.630  17.197  0.00  0.00    +0.000 A 
ATOM     28  C   UNL     1       7.058   7.120  17.349  0.00  0.00    +0.000 A 
ATOM     29  C   UNL     1       7.845   6.686  18.414  0.00  0.00    +0.000 A 
ATOM     30  C   UNL     1       7.330   5.778  19.338  0.00  0.00    +0.000 A 
ATOM     31  C   UNL     1       6.024   5.302  19.205  0.00  0.00    +0.000 A 
ENDBRANCH  25  26
ENDBRANCH   2  21
TORSDOF 4
ENDMDL
