MODEL 1
REMARK VINA RESULT:      -9.8      0.000      0.000
REMARK  Name = 
REMARK  3 active torsions:
REMARK  status: ('A' for Active; 'I' for Inactive)
REMARK    1  A    between atoms: C_8  and  C_9
REMARK    2  A    between atoms: C_14  and  C_15
REMARK    3  A    between atoms: C_17  and  C_18
REMARK                            x       y       z     vdW  Elec       q    Type
REMARK                         _______ _______ _______ _____ _____    ______ ____
ROOT
ATOM      1  C   UNL     1       2.677   5.974  18.787  0.00  0.00    +0.000 C 
ATOM      2  O   UNL     1       1.976   5.082  19.263  0.00  0.00    +0.000 OA
ATOM      3  N   UNL     1       3.906   5.720  18.173  0.00  0.00    +0.000 N 
ATOM      4  C   UNL     1       4.221   4.329  17.830  0.00  0.00    +0.000 C 
ATOM      5  C   UNL     1       5.677   3.978  18.139  0.00  0.00    +0.000 C 
ATOM      6  C   UNL     1       6.671   4.981  17.542  0.00  0.00    +0.000 C 
ATOM      7  C   UNL     1       6.285   6.401  17.951  0.00  0.00    +0.000 C 
ATOM      8  C   UNL     1       4.830   6.724  17.642  0.00  0.00    +0.000 C 
ENDROOT
BRANCH   1  16
ATOM      9  O   UNL     1       0.342  12.141  18.987  0.00  0.00    +0.000 OA
ATOM     10  C   UNL     1       0.627  11.197  19.693  0.00  0.00    +0.000 C 
ATOM     11  N   UNL     1       0.503  11.083  21.043  0.00  0.00    +0.000 N 
ATOM     12  C   UNL     1       0.932   9.874  21.500  0.00  0.00    +0.000 C 
ATOM     13  O   UNL     1       0.940   9.472  22.649  0.00  0.00    +0.000 OA
ATOM     14  C   UNL     1       1.379   9.119  20.331  0.00  0.00    +0.000 A 
ATOM     15  C   UNL     1       1.881   7.840  20.216  0.00  0.00    +0.000 A 
ATOM     16  C   UNL     1       2.157   7.367  18.923  0.00  0.00    +0.000 A 
ATOM     17  C   UNL     1       1.865   8.177  17.798  0.00  0.00    +0.000 A 
ATOM     18  C   UNL     1       1.423   9.494  17.942  0.00  0.00    +0.000 A 
ATOM     19  C   UNL     1       1.178   9.931  19.225  0.00  0.00    +0.000 A 
ATOM     20  H   UNL     1       0.117  11.803  21.631  0.00  0.00    +0.000 HD
ENDBRANCH   1  16
BRANCH   6  21
ATOM     21  C   UNL     1       6.757   4.846  16.056  0.00  0.00    +0.000 A 
ATOM     22  N   UNL     1       6.091   4.010  15.294  0.00  0.00    +0.000 NA
ATOM     23  C   UNL     1       6.545   4.267  14.021  0.00  0.00    +0.000 A 
ATOM     24  N   UNL     1       7.458   5.253  13.973  0.00  0.00    +0.000 NA
ATOM     25  N   UNL     1       7.567   5.603  15.262  0.00  0.00    +0.000 N 
ATOM     26  H   UNL     1       8.200   6.352  15.522  0.00  0.00    +0.000 HD
BRANCH  23  27
ATOM     27  C   UNL     1       6.031   3.542  12.866  0.00  0.00    +0.000 A 
ATOM     28  C   UNL     1       6.833   2.584  12.224  0.00  0.00    +0.000 A 
ATOM     29  C   UNL     1       6.338   1.848  11.145  0.00  0.00    +0.000 A 
ATOM     30  C   UNL     1       5.040   2.068  10.691  0.00  0.00    +0.000 A 
ATOM     31  C   UNL     1       4.241   3.032  11.306  0.00  0.00    +0.000 A 
ATOM     32  C   UNL     1       4.735   3.766  12.388  0.00  0.00    +0.000 A 
ENDBRANCH  23  27
ENDBRANCH   6  21
TORSDOF 3
ENDMDL
MODEL 2
REMARK VINA RESULT:      -9.3      3.168      9.409
REMARK  Name = 
REMARK  3 active torsions:
REMARK  status: ('A' for Active; 'I' for Inactive)
REMARK    1  A    between atoms: C_8  and  C_9
REMARK    2  A    between atoms: C_14  and  C_15
REMARK    3  A    between atoms: C_17  and  C_18
REMARK                            x       y       z     vdW  Elec       q    Type
REMARK                         _______ _______ _______ _____ _____    ______ ____
ROOT
ATOM      1  C   UNL     1       2.610   6.463  19.547  0.00  0.00    +0.000 C 
ATOM      2  O   UNL     1       2.371   5.722  20.499  0.00  0.00    +0.000 OA
ATOM      3  N   UNL     1       2.054   7.739  19.427  0.00  0.00    +0.000 N 
ATOM      4  C   UNL     1       1.407   8.314  20.610  0.00  0.00    +0.000 C 
ATOM      5  C   UNL     1       0.106   9.037  20.259  0.00  0.00    +0.000 C 
ATOM      6  C   UNL     1       0.277  10.050  19.120  0.00  0.00    +0.000 C 
ATOM      7  C   UNL     1       0.946   9.377  17.923  0.00  0.00    +0.000 C 
ATOM      8  C   UNL     1       2.233   8.656  18.299  0.00  0.00    +0.000 C 
ENDROOT
BRANCH   1  16
ATOM      9  O   UNL     1       6.317   3.801  14.784  0.00  0.00    +0.000 OA
ATOM     10  C   UNL     1       6.289   4.711  15.584  0.00  0.00    +0.000 C 
ATOM     11  N   UNL     1       7.202   5.700  15.773  0.00  0.00    +0.000 N 
ATOM     12  C   UNL     1       6.842   6.552  16.772  0.00  0.00    +0.000 C 
ATOM     13  O   UNL     1       7.444   7.533  17.169  0.00  0.00    +0.000 OA
ATOM     14  C   UNL     1       5.560   6.074  17.287  0.00  0.00    +0.000 A 
ATOM     15  C   UNL     1       4.740   6.571  18.278  0.00  0.00    +0.000 A 
ATOM     16  C   UNL     1       3.517   5.916  18.494  0.00  0.00    +0.000 A 
ATOM     17  C   UNL     1       3.146   4.824  17.671  0.00  0.00    +0.000 A 
ATOM     18  C   UNL     1       4.023   4.294  16.722  0.00  0.00    +0.000 A 
ATOM     19  C   UNL     1       5.220   4.952  16.546  0.00  0.00    +0.000 A 
ATOM     20  H   UNL     1       8.039   5.801  15.221  0.00  0.00    +0.000 HD
ENDBRANCH   1  16
BRANCH   6  21
ATOM     21  C   UNL     1       1.045  11.251  19.569  0.00  0.00    +0.000 A 
ATOM     22  N   UNL     1       1.725  12.087  18.818  0.00  0.00    +0.000 NA
ATOM     23  C   UNL     1       2.259  12.991  19.705  0.00  0.00    +0.000 A 
ATOM     24  N   UNL     1       1.911  12.751  20.982  0.00  0.00    +0.000 NA
ATOM     25  N   UNL     1       1.144  11.658  20.866  0.00  0.00    +0.000 N 
ATOM     26  H   UNL     1       0.727  11.253  21.698  0.00  0.00    +0.000 HD
BRANCH  23  27
ATOM     27  C   UNL     1       3.084  14.105  19.256  0.00  0.00    +0.000 A 
ATOM     28  C   UNL     1       2.948  14.598  17.948  0.00  0.00    +0.000 A 
ATOM     29  C   UNL     1       3.699  15.695  17.518  0.00  0.00    +0.000 A 
ATOM     30  C   UNL     1       4.599  16.304  18.388  0.00  0.00    +0.000 A 
ATOM     31  C   UNL     1       4.759  15.812  19.683  0.00  0.00    +0.000 A 
ATOM     32  C   UNL     1       4.006  14.717  20.115  0.00  0.00    +0.000 A 
ENDBRANCH  23  27
ENDBRANCH   6  21
TORSDOF 3
ENDMDL
MODEL 3
REMARK VINA RESULT:      -9.1      5.003     10.135
REMARK  Name = 
REMARK  3 active torsions:
REMARK  status: ('A' for Active; 'I' for Inactive)
REMARK    1  A    between atoms: C_8  and  C_9
REMARK    2  A    between atoms: C_14  and  C_15
REMARK    3  A    between atoms: C_17  and  C_18
REMARK                            x       y       z     vdW  Elec       q    Type
REMARK                         _______ _______ _______ _____ _____    ______ ____
ROOT
ATOM      1  C   UNL     1       2.486   7.761  18.390  0.00  0.00    +0.000 C 
ATOM      2  O   UNL     1       3.374   7.812  17.540  0.00  0.00    +0.000 OA
ATOM      3  N   UNL     1       1.676   8.856  18.701  0.00  0.00    +0.000 N 
ATOM      4  C   UNL     1       1.695   9.999  17.783  0.00  0.00    +0.000 C 
ATOM      5  C   UNL     1       1.702  11.335  18.528  0.00  0.00    +0.000 C 
ATOM      6  C   UNL     1       0.593  11.433  19.583  0.00  0.00    +0.000 C 
ATOM      7  C   UNL     1       0.644  10.217  20.506  0.00  0.00    +0.000 C 
ATOM      8  C   UNL     1       0.646   8.901  19.740  0.00  0.00    +0.000 C 
ENDROOT
BRANCH   1  16
ATOM      9  O   UNL     1       1.715   2.220  21.885  0.00  0.00    +0.000 OA
ATOM     10  C   UNL     1       1.849   2.631  20.753  0.00  0.00    +0.000 C 
ATOM     11  N   UNL     1       1.857   1.924  19.591  0.00  0.00    +0.000 N 
ATOM     12  C   UNL     1       2.038   2.721  18.503  0.00  0.00    +0.000 C 
ATOM     13  O   UNL     1       2.084   2.386  17.333  0.00  0.00    +0.000 OA
ATOM     14  C   UNL     1       2.156   4.090  19.002  0.00  0.00    +0.000 A 
ATOM     15  C   UNL     1       2.325   5.286  18.335  0.00  0.00    +0.000 A 
ATOM     16  C   UNL     1       2.330   6.460  19.105  0.00  0.00    +0.000 A 
ATOM     17  C   UNL     1       2.110   6.388  20.503  0.00  0.00    +0.000 A 
ATOM     18  C   UNL     1       2.012   5.162  21.165  0.00  0.00    +0.000 A 
ATOM     19  C   UNL     1       2.026   4.030  20.381  0.00  0.00    +0.000 A 
ATOM     20  H   UNL     1       1.724   0.927  19.543  0.00  0.00    +0.000 HD
ENDBRANCH   1  16
BRANCH   6  21
ATOM     21  C   UNL     1      -0.752  11.579  18.948  0.00  0.00    +0.000 A 
ATOM     22  N   UNL     1      -1.920  11.579  19.550  0.00  0.00    +0.000 NA
ATOM     23  C   UNL     1      -2.833  11.717  18.530  0.00  0.00    +0.000 A 
ATOM     24  N   UNL     1      -2.262  11.823  17.318  0.00  0.00    +0.000 NA
ATOM     25  N   UNL     1      -0.956  11.741  17.610  0.00  0.00    +0.000 N 
ATOM     26  H   UNL     1      -0.275  11.802  16.861  0.00  0.00    +0.000 HD
BRANCH  23  27
ATOM     27  C   UNL     1      -4.265  11.774  18.791  0.00  0.00    +0.000 A 
ATOM     28  C   UNL     1      -5.162  11.113  17.935  0.00  0.00    +0.000 A 
ATOM     29  C   UNL     1      -6.534  11.121  18.199  0.00  0.00    +0.000 A 
ATOM     30  C   UNL     1      -7.024  11.795  19.314  0.00  0.00    +0.000 A 
ATOM     31  C   UNL     1      -6.146  12.473  20.159  0.00  0.00    +0.000 A 
ATOM     32  C   UNL     1      -4.774  12.464  19.899  0.00  0.00    +0.000 A 
ENDBRANCH  23  27
ENDBRANCH   6  21
TORSDOF 3
ENDMDL
MODEL 4
REMARK VINA RESULT:      -8.7      3.170      9.933
REMARK  Name = 
REMARK  3 active torsions:
REMARK  status: ('A' for Active; 'I' for Inactive)
REMARK    1  A    between atoms: C_8  and  C_9
REMARK    2  A    between atoms: C_14  and  C_15
REMARK    3  A    between atoms: C_17  and  C_18
REMARK                            x       y       z     vdW  Elec       q    Type
REMARK                         _______ _______ _______ _____ _____    ______ ____
ROOT
ATOM      1  C   UNL     1       2.688   6.614  19.440  0.00  0.00    +0.000 C 
ATOM      2  O   UNL     1       2.484   5.978  20.473  0.00  0.00    +0.000 OA
ATOM      3  N   UNL     1       2.143   7.881  19.215  0.00  0.00    +0.000 N 
ATOM      4  C   UNL     1       1.560   8.585  20.361  0.00  0.00    +0.000 C 
ATOM      5  C   UNL     1       0.253   9.291  19.996  0.00  0.00    +0.000 C 
ATOM      6  C   UNL     1       0.384  10.179  18.752  0.00  0.00    +0.000 C 
ATOM      7  C   UNL     1       0.986   9.375  17.602  0.00  0.00    +0.000 C 
ATOM      8  C   UNL     1       2.280   8.674  17.992  0.00  0.00    +0.000 C 
ENDROOT
BRANCH   1  16
ATOM      9  O   UNL     1       6.121   3.431  14.792  0.00  0.00    +0.000 OA
ATOM     10  C   UNL     1       6.168   4.387  15.537  0.00  0.00    +0.000 C 
ATOM     11  N   UNL     1       7.150   5.321  15.654  0.00  0.00    +0.000 N 
ATOM     12  C   UNL     1       6.865   6.252  16.606  0.00  0.00    +0.000 C 
ATOM     13  O   UNL     1       7.539   7.211  16.935  0.00  0.00    +0.000 OA
ATOM     14  C   UNL     1       5.564   5.893  17.166  0.00  0.00    +0.000 A 
ATOM     15  C   UNL     1       4.796   6.502  18.137  0.00  0.00    +0.000 A 
ATOM     16  C   UNL     1       3.536   5.945  18.409  0.00  0.00    +0.000 A 
ATOM     17  C   UNL     1       3.078   4.835  17.658  0.00  0.00    +0.000 A 
ATOM     18  C   UNL     1       3.901   4.192  16.729  0.00  0.00    +0.000 A 
ATOM     19  C   UNL     1       5.136   4.756  16.498  0.00  0.00    +0.000 A 
ATOM     20  H   UNL     1       7.981   5.332  15.086  0.00  0.00    +0.000 HD
ENDBRANCH   1  16
BRANCH   6  21
ATOM     21  C   UNL     1       1.187  11.406  19.039  0.00  0.00    +0.000 A 
ATOM     22  N   UNL     1       1.236  12.080  20.165  0.00  0.00    +0.000 NA
ATOM     23  C   UNL     1       2.091  13.125  19.905  0.00  0.00    +0.000 A 
ATOM     24  N   UNL     1       2.589  13.105  18.657  0.00  0.00    +0.000 NA
ATOM     25  N   UNL     1       2.012  12.012  18.138  0.00  0.00    +0.000 N 
ATOM     26  H   UNL     1       2.222  11.745  17.182  0.00  0.00    +0.000 HD
BRANCH  23  27
ATOM     27  C   UNL     1       2.423  14.112  20.925  0.00  0.00    +0.000 A 
ATOM     28  C   UNL     1       3.731  14.186  21.431  0.00  0.00    +0.000 A 
ATOM     29  C   UNL     1       4.076  15.157  22.375  0.00  0.00    +0.000 A 
ATOM     30  C   UNL     1       3.115  16.057  22.827  0.00  0.00    +0.000 A 
ATOM     31  C   UNL     1       1.807  15.980  22.349  0.00  0.00    +0.000 A 
ATOM     32  C   UNL     1       1.463  15.012  21.403  0.00  0.00    +0.000 A 
ENDBRANCH  23  27
ENDBRANCH   6  21
TORSDOF 3
ENDMDL
MODEL 5
REMARK VINA RESULT:      -8.5      3.106      9.690
REMARK  Name = 
REMARK  3 active torsions:
REMARK  status: ('A' for Active; 'I' for Inactive)
REMARK    1  A    between atoms: C_8  and  C_9
REMARK    2  A    between atoms: C_14  and  C_15
REMARK    3  A    between atoms: C_17  and  C_18
REMARK                            x       y       z     vdW  Elec       q    Type
REMARK                         _______ _______ _______ _____ _____    ______ ____
ROOT
ATOM      1  C   UNL     1       2.150   7.188  19.800  0.00  0.00    +0.000 C 
ATOM      2  O   UNL     1       2.060   6.540  20.842  0.00  0.00    +0.000 OA
ATOM      3  N   UNL     1       1.480   8.398  19.603  0.00  0.00    +0.000 N 
ATOM      4  C   UNL     1       0.894   9.050  20.779  0.00  0.00    +0.000 C 
ATOM      5  C   UNL     1      -0.489   9.631  20.483  0.00  0.00    +0.000 C 
ATOM      6  C   UNL     1      -0.506  10.522  19.235  0.00  0.00    +0.000 C 
ATOM      7  C   UNL     1       0.108   9.772  18.054  0.00  0.00    +0.000 C 
ATOM      8  C   UNL     1       1.479   9.195  18.375  0.00  0.00    +0.000 C 
ENDROOT
BRANCH   1  16
ATOM      9  O   UNL     1       6.051   4.944  14.975  0.00  0.00    +0.000 OA
ATOM     10  C   UNL     1       5.342   4.576  15.887  0.00  0.00    +0.000 C 
ATOM     11  N   UNL     1       5.094   3.307  16.308  0.00  0.00    +0.000 N 
ATOM     12  C   UNL     1       4.235   3.271  17.364  0.00  0.00    +0.000 C 
ATOM     13  O   UNL     1       3.830   2.292  17.963  0.00  0.00    +0.000 OA
ATOM     14  C   UNL     1       3.888   4.658  17.667  0.00  0.00    +0.000 A 
ATOM     15  C   UNL     1       3.079   5.196  18.647  0.00  0.00    +0.000 A 
ATOM     16  C   UNL     1       3.002   6.596  18.726  0.00  0.00    +0.000 A 
ATOM     17  C   UNL     1       3.782   7.396  17.854  0.00  0.00    +0.000 A 
ATOM     18  C   UNL     1       4.538   6.830  16.824  0.00  0.00    +0.000 A 
ATOM     19  C   UNL     1       4.579   5.454  16.767  0.00  0.00    +0.000 A 
ATOM     20  H   UNL     1       5.516   2.490  15.898  0.00  0.00    +0.000 HD
ENDBRANCH   1  16
BRANCH   6  21
ATOM     21  C   UNL     1       0.195  11.819  19.480  0.00  0.00    +0.000 A 
ATOM     22  N   UNL     1       0.646  12.662  18.580  0.00  0.00    +0.000 NA
ATOM     23  C   UNL     1       1.223  13.672  19.313  0.00  0.00    +0.000 A 
ATOM     24  N   UNL     1       1.122  13.489  20.641  0.00  0.00    +0.000 NA
ATOM     25  N   UNL     1       0.467  12.322  20.718  0.00  0.00    +0.000 N 
ATOM     26  H   UNL     1       0.242  11.937  21.630  0.00  0.00    +0.000 HD
BRANCH  23  27
ATOM     27  C   UNL     1       1.838  14.827  18.670  0.00  0.00    +0.000 A 
ATOM     28  C   UNL     1       3.054  14.683  17.982  0.00  0.00    +0.000 A 
ATOM     29  C   UNL     1       3.632  15.770  17.321  0.00  0.00    +0.000 A 
ATOM     30  C   UNL     1       3.005  17.012  17.349  0.00  0.00    +0.000 A 
ATOM     31  C   UNL     1       1.808  17.174  18.047  0.00  0.00    +0.000 A 
ATOM     32  C   UNL     1       1.228  16.087  18.705  0.00  0.00    +0.000 A 
ENDBRANCH  23  27
ENDBRANCH   6  21
TORSDOF 3
ENDMDL
MODEL 6
REMARK VINA RESULT:      -8.4      1.047      1.738
REMARK  Name = 
REMARK  3 active torsions:
REMARK  status: ('A' for Active; 'I' for Inactive)
REMARK    1  A    between atoms: C_8  and  C_9
REMARK    2  A    between atoms: C_14  and  C_15
REMARK    3  A    between atoms: C_17  and  C_18
REMARK                            x       y       z     vdW  Elec       q    Type
REMARK                         _______ _______ _______ _____ _____    ______ ____
ROOT
ATOM      1  C   UNL     1       2.638   5.344  19.382  0.00  0.00    +0.000 C 
ATOM      2  O   UNL     1       1.974   4.378  19.756  0.00  0.00    +0.000 OA
ATOM      3  N   UNL     1       3.860   5.209  18.719  0.00  0.00    +0.000 N 
ATOM      4  C   UNL     1       4.209   3.883  18.200  0.00  0.00    +0.000 C 
ATOM      5  C   UNL     1       5.682   3.543  18.437  0.00  0.00    +0.000 C 
ATOM      6  C   UNL     1       6.632   4.644  17.952  0.00  0.00    +0.000 C 
ATOM      7  C   UNL     1       6.212   5.989  18.542  0.00  0.00    +0.000 C 
ATOM      8  C   UNL     1       4.741   6.301  18.302  0.00  0.00    +0.000 C 
ENDROOT
BRANCH   1  16
ATOM      9  O   UNL     1       0.112  11.173  21.163  0.00  0.00    +0.000 OA
ATOM     10  C   UNL     1       0.693  10.613  20.258  0.00  0.00    +0.000 C 
ATOM     11  N   UNL     1       1.123  11.135  19.077  0.00  0.00    +0.000 N 
ATOM     12  C   UNL     1       1.735  10.204  18.294  0.00  0.00    +0.000 C 
ATOM     13  O   UNL     1       2.227  10.364  17.193  0.00  0.00    +0.000 OA
ATOM     14  C   UNL     1       1.707   8.947  19.039  0.00  0.00    +0.000 A 
ATOM     15  C   UNL     1       2.203   7.698  18.728  0.00  0.00    +0.000 A 
ATOM     16  C   UNL     1       2.079   6.692  19.700  0.00  0.00    +0.000 A 
ATOM     17  C   UNL     1       1.513   6.996  20.963  0.00  0.00    +0.000 A 
ATOM     18  C   UNL     1       0.953   8.249  21.229  0.00  0.00    +0.000 A 
ATOM     19  C   UNL     1       1.078   9.207  20.248  0.00  0.00    +0.000 A 
ATOM     20  H   UNL     1       1.018  12.103  18.823  0.00  0.00    +0.000 HD
ENDBRANCH   1  16
BRANCH   6  21
ATOM     21  C   UNL     1       6.689   4.698  16.460  0.00  0.00    +0.000 A 
ATOM     22  N   UNL     1       6.118   3.875  15.611  0.00  0.00    +0.000 NA
ATOM     23  C   UNL     1       6.495   4.339  14.373  0.00  0.00    +0.000 A 
ATOM     24  N   UNL     1       7.265   5.439  14.431  0.00  0.00    +0.000 NA
ATOM     25  N   UNL     1       7.366   5.646  15.751  0.00  0.00    +0.000 N 
ATOM     26  H   UNL     1       7.901   6.439  16.090  0.00  0.00    +0.000 HD
BRANCH  23  27
ATOM     27  C   UNL     1       6.047   3.692  13.146  0.00  0.00    +0.000 A 
ATOM     28  C   UNL     1       6.934   2.887  12.413  0.00  0.00    +0.000 A 
ATOM     29  C   UNL     1       6.506   2.223  11.260  0.00  0.00    +0.000 A 
ATOM     30  C   UNL     1       5.191   2.363  10.826  0.00  0.00    +0.000 A 
ATOM     31  C   UNL     1       4.306   3.177  11.533  0.00  0.00    +0.000 A 
ATOM     32  C   UNL     1       4.732   3.839  12.687  0.00  0.00    +0.000 A 
ENDBRANCH  23  27
ENDBRANCH   6  21
TORSDOF 3
ENDMDL
MODEL 7
REMARK VINA RESULT:      -8.4      5.011     10.145
REMARK  Name = 
REMARK  3 active torsions:
REMARK  status: ('A' for Active; 'I' for Inactive)
REMARK    1  A    between atoms: C_8  and  C_9
REMARK    2  A    between atoms: C_14  and  C_15
REMARK    3  A    between atoms: C_17  and  C_18
REMARK                            x       y       z     vdW  Elec       q    Type
REMARK                         _______ _______ _______ _____ _____    ______ ____
ROOT
ATOM      1  C   UNL     1       2.617   7.938  18.543  0.00  0.00    +0.000 C 
ATOM      2  O   UNL     1       3.497   8.004  17.686  0.00  0.00    +0.000 OA
ATOM      3  N   UNL     1       1.748   8.998  18.814  0.00  0.00    +0.000 N 
ATOM      4  C   UNL     1       1.699  10.102  17.849  0.00  0.00    +0.000 C 
ATOM      5  C   UNL     1       1.634  11.465  18.539  0.00  0.00    +0.000 C 
ATOM      6  C   UNL     1       0.525  11.545  19.596  0.00  0.00    +0.000 C 
ATOM      7  C   UNL     1       0.649  10.373  20.568  0.00  0.00    +0.000 C 
ATOM      8  C   UNL     1       0.722   9.028  19.858  0.00  0.00    +0.000 C 
ENDROOT
BRANCH   1  16
ATOM      9  O   UNL     1       1.902   2.411  22.073  0.00  0.00    +0.000 OA
ATOM     10  C   UNL     1       2.608   2.933  21.238  0.00  0.00    +0.000 C 
ATOM     11  N   UNL     1       3.699   2.418  20.610  0.00  0.00    +0.000 N 
ATOM     12  C   UNL     1       4.252   3.297  19.730  0.00  0.00    +0.000 C 
ATOM     13  O   UNL     1       5.224   3.128  19.018  0.00  0.00    +0.000 OA
ATOM     14  C   UNL     1       3.437   4.510  19.783  0.00  0.00    +0.000 A 
ATOM     15  C   UNL     1       3.532   5.696  19.086  0.00  0.00    +0.000 A 
ATOM     16  C   UNL     1       2.537   6.661  19.313  0.00  0.00    +0.000 A 
ATOM     17  C   UNL     1       1.461   6.373  20.188  0.00  0.00    +0.000 A 
ATOM     18  C   UNL     1       1.424   5.194  20.936  0.00  0.00    +0.000 A 
ATOM     19  C   UNL     1       2.423   4.276  20.699  0.00  0.00    +0.000 A 
ATOM     20  H   UNL     1       4.044   1.485  20.766  0.00  0.00    +0.000 HD
ENDBRANCH   1  16
BRANCH   6  21
ATOM     21  C   UNL     1      -0.828  11.589  18.965  0.00  0.00    +0.000 A 
ATOM     22  N   UNL     1      -1.987  11.695  19.574  0.00  0.00    +0.000 NA
ATOM     23  C   UNL     1      -2.914  11.665  18.559  0.00  0.00    +0.000 A 
ATOM     24  N   UNL     1      -2.361  11.564  17.338  0.00  0.00    +0.000 NA
ATOM     25  N   UNL     1      -1.052  11.526  17.621  0.00  0.00    +0.000 N 
ATOM     26  H   UNL     1      -0.380  11.458  16.863  0.00  0.00    +0.000 HD
BRANCH  23  27
ATOM     27  C   UNL     1      -4.343  11.771  18.826  0.00  0.00    +0.000 A 
ATOM     28  C   UNL     1      -5.269  11.200  17.937  0.00  0.00    +0.000 A 
ATOM     29  C   UNL     1      -6.639  11.254  18.204  0.00  0.00    +0.000 A 
ATOM     30  C   UNL     1      -7.098  11.886  19.357  0.00  0.00    +0.000 A 
ATOM     31  C   UNL     1      -6.190  12.476  20.237  0.00  0.00    +0.000 A 
ATOM     32  C   UNL     1      -4.820  12.419  19.972  0.00  0.00    +0.000 A 
ENDBRANCH  23  27
ENDBRANCH   6  21
TORSDOF 3
ENDMDL
MODEL 8
REMARK VINA RESULT:      -8.2      3.190      9.530
REMARK  Name = 
REMARK  3 active torsions:
REMARK  status: ('A' for Active; 'I' for Inactive)
REMARK    1  A    between atoms: C_8  and  C_9
REMARK    2  A    between atoms: C_14  and  C_15
REMARK    3  A    between atoms: C_17  and  C_18
REMARK                            x       y       z     vdW  Elec       q    Type
REMARK                         _______ _______ _______ _____ _____    ______ ____
ROOT
ATOM      1  C   UNL     1       1.803   7.869  19.920  0.00  0.00    +0.000 C 
ATOM      2  O   UNL     1       1.793   7.463  21.081  0.00  0.00    +0.000 OA
ATOM      3  N   UNL     1       1.067   8.982  19.504  0.00  0.00    +0.000 N 
ATOM      4  C   UNL     1       0.507   9.854  20.541  0.00  0.00    +0.000 C 
ATOM      5  C   UNL     1      -0.915  10.306  20.204  0.00  0.00    +0.000 C 
ATOM      6  C   UNL     1      -1.033  10.900  18.795  0.00  0.00    +0.000 C 
ATOM      7  C   UNL     1      -0.440   9.932  17.773  0.00  0.00    +0.000 C 
ATOM      8  C   UNL     1       0.971   9.490  18.134  0.00  0.00    +0.000 C 
ENDROOT
BRANCH   1  16
ATOM      9  O   UNL     1       5.605   4.766  15.511  0.00  0.00    +0.000 OA
ATOM     10  C   UNL     1       4.897   4.572  16.475  0.00  0.00    +0.000 C 
ATOM     11  N   UNL     1       4.626   3.396  17.103  0.00  0.00    +0.000 N 
ATOM     12  C   UNL     1       3.777   3.556  18.155  0.00  0.00    +0.000 C 
ATOM     13  O   UNL     1       3.356   2.699  18.911  0.00  0.00    +0.000 OA
ATOM     14  C   UNL     1       3.463   4.982  18.226  0.00  0.00    +0.000 A 
ATOM     15  C   UNL     1       2.677   5.693  19.108  0.00  0.00    +0.000 A 
ATOM     16  C   UNL     1       2.631   7.088  18.954  0.00  0.00    +0.000 A 
ATOM     17  C   UNL     1       3.419   7.714  17.956  0.00  0.00    +0.000 A 
ATOM     18  C   UNL     1       4.152   6.967  17.030  0.00  0.00    +0.000 A 
ATOM     19  C   UNL     1       4.163   5.601  17.202  0.00  0.00    +0.000 A 
ATOM     20  H   UNL     1       5.026   2.513  16.831  0.00  0.00    +0.000 HD
ENDBRANCH   1  16
BRANCH   6  21
ATOM     21  C   UNL     1      -0.385  12.244  18.714  0.00  0.00    +0.000 A 
ATOM     22  N   UNL     1       0.898  12.503  18.608  0.00  0.00    +0.000 NA
ATOM     23  C   UNL     1       0.972  13.876  18.596  0.00  0.00    +0.000 A 
ATOM     24  N   UNL     1      -0.230  14.473  18.670  0.00  0.00    +0.000 NA
ATOM     25  N   UNL     1      -1.064  13.426  18.736  0.00  0.00    +0.000 N 
ATOM     26  H   UNL     1      -2.064  13.590  18.791  0.00  0.00    +0.000 HD
BRANCH  23  27
ATOM     27  C   UNL     1       2.248  14.571  18.477  0.00  0.00    +0.000 A 
ATOM     28  C   UNL     1       3.436  13.837  18.323  0.00  0.00    +0.000 A 
ATOM     29  C   UNL     1       4.660  14.490  18.160  0.00  0.00    +0.000 A 
ATOM     30  C   UNL     1       4.711  15.881  18.158  0.00  0.00    +0.000 A 
ATOM     31  C   UNL     1       3.541  16.621  18.331  0.00  0.00    +0.000 A 
ATOM     32  C   UNL     1       2.316  15.969  18.490  0.00  0.00    +0.000 A 
ENDBRANCH  23  27
ENDBRANCH   6  21
TORSDOF 3
ENDMDL
MODEL 9
REMARK VINA RESULT:      -8.1      4.541      7.560
REMARK  Name = 
REMARK  3 active torsions:
REMARK  status: ('A' for Active; 'I' for Inactive)
REMARK    1  A    between atoms: C_8  and  C_9
REMARK    2  A    between atoms: C_14  and  C_15
REMARK    3  A    between atoms: C_17  and  C_18
REMARK                            x       y       z     vdW  Elec       q    Type
REMARK                         _______ _______ _______ _____ _____    ______ ____
ROOT
ATOM      1  C   UNL     1      -0.789  12.779  20.976  0.00  0.00    +0.000 C 
ATOM      2  O   UNL     1      -0.143  13.726  21.423  0.00  0.00    +0.000 OA
ATOM      3  N   UNL     1      -0.212  11.776  20.192  0.00  0.00    +0.000 N 
ATOM      4  C   UNL     1       1.252  11.701  20.153  0.00  0.00    +0.000 C 
ATOM      5  C   UNL     1       1.775  11.419  18.743  0.00  0.00    +0.000 C 
ATOM      6  C   UNL     1       1.095  10.210  18.088  0.00  0.00    +0.000 C 
ATOM      7  C   UNL     1      -0.422  10.366  18.157  0.00  0.00    +0.000 C 
ATOM      8  C   UNL     1      -0.917  10.655  19.568  0.00  0.00    +0.000 C 
ENDROOT
BRANCH   1  16
ATOM      9  O   UNL     1      -7.308  12.685  21.982  0.00  0.00    +0.000 OA
ATOM     10  C   UNL     1      -6.245  12.631  22.562  0.00  0.00    +0.000 C 
ATOM     11  N   UNL     1      -6.015  12.474  23.893  0.00  0.00    +0.000 N 
ATOM     12  C   UNL     1      -4.686  12.466  24.190  0.00  0.00    +0.000 C 
ATOM     13  O   UNL     1      -4.167  12.336  25.283  0.00  0.00    +0.000 OA
ATOM     14  C   UNL     1      -3.974  12.629  22.924  0.00  0.00    +0.000 A 
ATOM     15  C   UNL     1      -2.624  12.666  22.642  0.00  0.00    +0.000 A 
ATOM     16  C   UNL     1      -2.248  12.765  21.293  0.00  0.00    +0.000 A 
ATOM     17  C   UNL     1      -3.240  12.767  20.281  0.00  0.00    +0.000 A 
ATOM     18  C   UNL     1      -4.601  12.801  20.595  0.00  0.00    +0.000 A 
ATOM     19  C   UNL     1      -4.935  12.718  21.928  0.00  0.00    +0.000 A 
ATOM     20  H   UNL     1      -6.745  12.357  24.576  0.00  0.00    +0.000 HD
ENDBRANCH   1  16
BRANCH   6  21
ATOM     21  C   UNL     1       1.541   8.928  18.713  0.00  0.00    +0.000 A 
ATOM     22  N   UNL     1       2.088   7.897  18.111  0.00  0.00    +0.000 NA
ATOM     23  C   UNL     1       2.284   6.977  19.113  0.00  0.00    +0.000 A 
ATOM     24  N   UNL     1       1.893   7.417  20.322  0.00  0.00    +0.000 NA
ATOM     25  N   UNL     1       1.437   8.646  20.043  0.00  0.00    +0.000 N 
ATOM     26  H   UNL     1       1.078   9.226  20.795  0.00  0.00    +0.000 HD
BRANCH  23  27
ATOM     27  C   UNL     1       2.893   5.679  18.850  0.00  0.00    +0.000 A 
ATOM     28  C   UNL     1       4.186   5.401  19.325  0.00  0.00    +0.000 A 
ATOM     29  C   UNL     1       4.765   4.145  19.120  0.00  0.00    +0.000 A 
ATOM     30  C   UNL     1       4.061   3.160  18.433  0.00  0.00    +0.000 A 
ATOM     31  C   UNL     1       2.786   3.431  17.938  0.00  0.00    +0.000 A 
ATOM     32  C   UNL     1       2.205   4.685  18.144  0.00  0.00    +0.000 A 
ENDBRANCH  23  27
ENDBRANCH   6  21
TORSDOF 3
ENDMDL
