MODEL 1
REMARK VINA RESULT:      -9.0      0.000      0.000
REMARK  Name = 
REMARK  3 active torsions:
REMARK  status: ('A' for Active; 'I' for Inactive)
REMARK    1  A    between atoms: N_6  and  C_7
REMARK    2  A    between atoms: C_7  and  C_8
REMARK    3  A    between atoms: C_12  and  N_13
REMARK                            x       y       z     vdW  Elec       q    Type
REMARK                         _______ _______ _______ _____ _____    ______ ____
ROOT
ATOM      1  N   UNL     1       2.432   7.796  18.866  0.00  0.00    +0.000 N 
ATOM      2  C   UNL     1       1.953   8.972  18.323  0.00  0.00    +0.000 C 
ATOM      3  O   UNL     1       2.329   9.444  17.251  0.00  0.00    +0.000 OA
ATOM      4  N   UNL     1       0.958   9.601  19.068  0.00  0.00    +0.000 N 
ATOM      5  C   UNL     1       0.399  10.851  18.516  0.00  0.00    +0.000 C 
ATOM      6  C   UNL     1      -1.053  11.101  18.930  0.00  0.00    +0.000 C 
ATOM      7  C   UNL     1      -1.092  11.092  20.433  0.00  0.00    +0.000 A 
ATOM      8  C   UNL     1      -1.658  12.121  21.183  0.00  0.00    +0.000 A 
ATOM      9  C   UNL     1      -1.573  12.083  22.574  0.00  0.00    +0.000 A 
ATOM     10  C   UNL     1      -0.965  11.001  23.215  0.00  0.00    +0.000 A 
ATOM     11  C   UNL     1      -0.407   9.963  22.466  0.00  0.00    +0.000 A 
ATOM     12  C   UNL     1      -0.436  10.023  21.072  0.00  0.00    +0.000 A 
ATOM     13  C   UNL     1       0.254   8.992  20.210  0.00  0.00    +0.000 C 
ATOM     14  H   UNL     1       2.463   7.754  19.872  0.00  0.00    +0.000 HD
ENDROOT
BRANCH   1  19
ATOM     15  C   UNL     1       3.396   4.403  17.687  0.00  0.00    +0.000 A 
ATOM     16  C   UNL     1       4.438   4.711  16.806  0.00  0.00    +0.000 A 
ATOM     17  C   UNL     1       4.828   6.035  16.607  0.00  0.00    +0.000 A 
ATOM     18  C   UNL     1       4.186   7.064  17.295  0.00  0.00    +0.000 A 
ATOM     19  C   UNL     1       3.152   6.786  18.187  0.00  0.00    +0.000 A 
ATOM     20  C   UNL     1       2.756   5.451  18.374  0.00  0.00    +0.000 A 
BRANCH  15  21
ATOM     21  C   UNL     1       2.976   2.964  17.884  0.00  0.00    +0.000 C 
BRANCH  21  27
ATOM     22  O   UNL     1       0.289   2.554  18.882  0.00  0.00    +0.000 OA
ATOM     23  C   UNL     1       1.252   2.582  19.622  0.00  0.00    +0.000 C 
ATOM     24  C   UNL     1       1.187   2.651  21.135  0.00  0.00    +0.000 C 
ATOM     25  C   UNL     1       2.629   2.404  21.552  0.00  0.00    +0.000 C 
ATOM     26  C   UNL     1       3.428   2.950  20.386  0.00  0.00    +0.000 C 
ATOM     27  N   UNL     1       2.593   2.644  19.247  0.00  0.00    +0.000 N 
ENDBRANCH  21  27
ENDBRANCH  15  21
ENDBRANCH   1  19
TORSDOF 3
ENDMDL
MODEL 2
REMARK VINA RESULT:      -9.0      2.263      3.758
REMARK  Name = 
REMARK  3 active torsions:
REMARK  status: ('A' for Active; 'I' for Inactive)
REMARK    1  A    between atoms: N_6  and  C_7
REMARK    2  A    between atoms: C_7  and  C_8
REMARK    3  A    between atoms: C_12  and  N_13
REMARK                            x       y       z     vdW  Elec       q    Type
REMARK                         _______ _______ _______ _____ _____    ______ ____
ROOT
ATOM      1  N   UNL     1       1.898   7.258  20.279  0.00  0.00    +0.000 N 
ATOM      2  C   UNL     1       1.799   8.304  19.383  0.00  0.00    +0.000 C 
ATOM      3  O   UNL     1       2.416   8.366  18.320  0.00  0.00    +0.000 OA
ATOM      4  N   UNL     1       0.903   9.306  19.746  0.00  0.00    +0.000 N 
ATOM      5  C   UNL     1       0.748  10.436  18.808  0.00  0.00    +0.000 C 
ATOM      6  C   UNL     1      -0.638  11.083  18.862  0.00  0.00    +0.000 C 
ATOM      7  C   UNL     1      -0.872  11.507  20.286  0.00  0.00    +0.000 A 
ATOM      8  C   UNL     1      -1.258  12.800  20.637  0.00  0.00    +0.000 A 
ATOM      9  C   UNL     1      -1.366  13.140  21.985  0.00  0.00    +0.000 A 
ATOM     10  C   UNL     1      -1.133  12.183  22.975  0.00  0.00    +0.000 A 
ATOM     11  C   UNL     1      -0.758  10.885  22.626  0.00  0.00    +0.000 A 
ATOM     12  C   UNL     1      -0.590  10.553  21.280  0.00  0.00    +0.000 A 
ATOM     13  C   UNL     1      -0.071   9.203  20.846  0.00  0.00    +0.000 C 
ATOM     14  H   UNL     1       1.787   7.496  21.251  0.00  0.00    +0.000 HD
ENDROOT
BRANCH   1  19
ATOM     15  C   UNL     1       4.351   4.630  19.322  0.00  0.00    +0.000 A 
ATOM     16  C   UNL     1       3.613   3.469  19.576  0.00  0.00    +0.000 A 
ATOM     17  C   UNL     1       2.304   3.553  20.054  0.00  0.00    +0.000 A 
ATOM     18  C   UNL     1       1.719   4.799  20.274  0.00  0.00    +0.000 A 
ATOM     19  C   UNL     1       2.427   5.972  20.019  0.00  0.00    +0.000 A 
ATOM     20  C   UNL     1       3.748   5.881  19.550  0.00  0.00    +0.000 A 
BRANCH  15  21
ATOM     21  C   UNL     1       5.771   4.524  18.815  0.00  0.00    +0.000 C 
BRANCH  21  27
ATOM     22  O   UNL     1       8.198   4.235  17.262  0.00  0.00    +0.000 OA
ATOM     23  C   UNL     1       7.114   4.393  16.737  0.00  0.00    +0.000 C 
ATOM     24  C   UNL     1       6.892   4.697  15.268  0.00  0.00    +0.000 C 
ATOM     25  C   UNL     1       5.388   4.540  15.107  0.00  0.00    +0.000 C 
ATOM     26  C   UNL     1       4.851   4.908  16.476  0.00  0.00    +0.000 C 
ATOM     27  N   UNL     1       5.873   4.416  17.371  0.00  0.00    +0.000 N 
ENDBRANCH  21  27
ENDBRANCH  15  21
ENDBRANCH   1  19
TORSDOF 3
ENDMDL
MODEL 3
REMARK VINA RESULT:      -8.8      2.305      3.781
REMARK  Name = 
REMARK  3 active torsions:
REMARK  status: ('A' for Active; 'I' for Inactive)
REMARK    1  A    between atoms: N_6  and  C_7
REMARK    2  A    between atoms: C_7  and  C_8
REMARK    3  A    between atoms: C_12  and  N_13
REMARK                            x       y       z     vdW  Elec       q    Type
REMARK                         _______ _______ _______ _____ _____    ______ ____
ROOT
ATOM      1  N   UNL     1       2.156   7.375  18.881  0.00  0.00    +0.000 N 
ATOM      2  C   UNL     1       1.912   8.637  18.375  0.00  0.00    +0.000 C 
ATOM      3  O   UNL     1       2.416   9.079  17.344  0.00  0.00    +0.000 OA
ATOM      4  N   UNL     1       1.002   9.397  19.107  0.00  0.00    +0.000 N 
ATOM      5  C   UNL     1       0.692  10.746  18.593  0.00  0.00    +0.000 C 
ATOM      6  C   UNL     1      -0.715  11.225  18.956  0.00  0.00    +0.000 C 
ATOM      7  C   UNL     1      -0.830  11.162  20.454  0.00  0.00    +0.000 A 
ATOM      8  C   UNL     1      -1.249  12.243  21.228  0.00  0.00    +0.000 A 
ATOM      9  C   UNL     1      -1.242  12.135  22.618  0.00  0.00    +0.000 A 
ATOM     10  C   UNL     1      -0.860  10.939  23.231  0.00  0.00    +0.000 A 
ATOM     11  C   UNL     1      -0.450   9.852  22.458  0.00  0.00    +0.000 A 
ATOM     12  C   UNL     1      -0.398   9.972  21.068  0.00  0.00    +0.000 A 
ATOM     13  C   UNL     1       0.149   8.873  20.188  0.00  0.00    +0.000 C 
ATOM     14  H   UNL     1       2.129   7.288  19.884  0.00  0.00    +0.000 HD
ENDROOT
BRANCH   1  19
ATOM     15  C   UNL     1       4.617   5.414  16.897  0.00  0.00    +0.000 A 
ATOM     16  C   UNL     1       4.000   4.158  16.871  0.00  0.00    +0.000 A 
ATOM     17  C   UNL     1       2.771   3.960  17.500  0.00  0.00    +0.000 A 
ATOM     18  C   UNL     1       2.141   5.019  18.153  0.00  0.00    +0.000 A 
ATOM     19  C   UNL     1       2.727   6.284  18.185  0.00  0.00    +0.000 A 
ATOM     20  C   UNL     1       3.971   6.473  17.560  0.00  0.00    +0.000 A 
BRANCH  15  21
ATOM     21  C   UNL     1       5.954   5.610  16.220  0.00  0.00    +0.000 C 
BRANCH  21  27
ATOM     22  O   UNL     1       7.443   4.336  18.353  0.00  0.00    +0.000 OA
ATOM     23  C   UNL     1       7.523   5.529  18.136  0.00  0.00    +0.000 C 
ATOM     24  C   UNL     1       8.187   6.538  19.052  0.00  0.00    +0.000 C 
ATOM     25  C   UNL     1       8.230   7.799  18.201  0.00  0.00    +0.000 C 
ATOM     26  C   UNL     1       7.022   7.650  17.298  0.00  0.00    +0.000 C 
ATOM     27  N   UNL     1       6.958   6.225  17.069  0.00  0.00    +0.000 N 
ENDBRANCH  21  27
ENDBRANCH  15  21
ENDBRANCH   1  19
TORSDOF 3
ENDMDL
MODEL 4
REMARK VINA RESULT:      -8.7      2.072      3.799
REMARK  Name = 
REMARK  3 active torsions:
REMARK  status: ('A' for Active; 'I' for Inactive)
REMARK    1  A    between atoms: N_6  and  C_7
REMARK    2  A    between atoms: C_7  and  C_8
REMARK    3  A    between atoms: C_12  and  N_13
REMARK                            x       y       z     vdW  Elec       q    Type
REMARK                         _______ _______ _______ _____ _____    ______ ____
ROOT
ATOM      1  N   UNL     1       1.960   7.117  20.455  0.00  0.00    +0.000 N 
ATOM      2  C   UNL     1       1.856   8.141  19.535  0.00  0.00    +0.000 C 
ATOM      3  O   UNL     1       2.480   8.186  18.475  0.00  0.00    +0.000 OA
ATOM      4  N   UNL     1       0.947   9.142  19.869  0.00  0.00    +0.000 N 
ATOM      5  C   UNL     1       0.786  10.248  18.904  0.00  0.00    +0.000 C 
ATOM      6  C   UNL     1      -0.608  10.881  18.934  0.00  0.00    +0.000 C 
ATOM      7  C   UNL     1      -0.856  11.335  20.346  0.00  0.00    +0.000 A 
ATOM      8  C   UNL     1      -1.259  12.631  20.665  0.00  0.00    +0.000 A 
ATOM      9  C   UNL     1      -1.380  13.001  22.003  0.00  0.00    +0.000 A 
ATOM     10  C   UNL     1      -1.144  12.069  23.017  0.00  0.00    +0.000 A 
ATOM     11  C   UNL     1      -0.752  10.768  22.700  0.00  0.00    +0.000 A 
ATOM     12  C   UNL     1      -0.571  10.407  21.364  0.00  0.00    +0.000 A 
ATOM     13  C   UNL     1      -0.034   9.053  20.964  0.00  0.00    +0.000 C 
ATOM     14  H   UNL     1       1.840   7.377  21.421  0.00  0.00    +0.000 HD
ENDROOT
BRANCH   1  19
ATOM     15  C   UNL     1       4.251   4.484  19.170  0.00  0.00    +0.000 A 
ATOM     16  C   UNL     1       3.731   3.347  19.798  0.00  0.00    +0.000 A 
ATOM     17  C   UNL     1       2.622   3.447  20.638  0.00  0.00    +0.000 A 
ATOM     18  C   UNL     1       2.015   4.684  20.851  0.00  0.00    +0.000 A 
ATOM     19  C   UNL     1       2.505   5.832  20.229  0.00  0.00    +0.000 A 
ATOM     20  C   UNL     1       3.630   5.726  19.394  0.00  0.00    +0.000 A 
BRANCH  15  21
ATOM     21  C   UNL     1       5.461   4.362  18.272  0.00  0.00    +0.000 C 
BRANCH  21  27
ATOM     22  O   UNL     1       5.390   6.523  16.346  0.00  0.00    +0.000 OA
ATOM     23  C   UNL     1       6.244   6.457  17.207  0.00  0.00    +0.000 C 
ATOM     24  C   UNL     1       7.494   7.313  17.262  0.00  0.00    +0.000 C 
ATOM     25  C   UNL     1       8.060   7.007  18.641  0.00  0.00    +0.000 C 
ATOM     26  C   UNL     1       7.597   5.587  18.899  0.00  0.00    +0.000 C 
ATOM     27  N   UNL     1       6.304   5.542  18.257  0.00  0.00    +0.000 N 
ENDBRANCH  21  27
ENDBRANCH  15  21
ENDBRANCH   1  19
TORSDOF 3
ENDMDL
MODEL 5
REMARK VINA RESULT:      -8.6      2.078      3.690
REMARK  Name = 
REMARK  3 active torsions:
REMARK  status: ('A' for Active; 'I' for Inactive)
REMARK    1  A    between atoms: N_6  and  C_7
REMARK    2  A    between atoms: C_7  and  C_8
REMARK    3  A    between atoms: C_12  and  N_13
REMARK                            x       y       z     vdW  Elec       q    Type
REMARK                         _______ _______ _______ _____ _____    ______ ____
ROOT
ATOM      1  N   UNL     1       1.639   6.672  20.671  0.00  0.00    +0.000 N 
ATOM      2  C   UNL     1       1.846   7.732  19.810  0.00  0.00    +0.000 C 
ATOM      3  O   UNL     1       2.626   7.708  18.858  0.00  0.00    +0.000 OA
ATOM      4  N   UNL     1       1.070   8.859  20.067  0.00  0.00    +0.000 N 
ATOM      5  C   UNL     1       1.242  10.010  19.158  0.00  0.00    +0.000 C 
ATOM      6  C   UNL     1      -0.018  10.868  19.021  0.00  0.00    +0.000 C 
ATOM      7  C   UNL     1      -0.407  11.307  20.406  0.00  0.00    +0.000 A 
ATOM      8  C   UNL     1      -0.639  12.640  20.741  0.00  0.00    +0.000 A 
ATOM      9  C   UNL     1      -0.905  12.977  22.068  0.00  0.00    +0.000 A 
ATOM     10  C   UNL     1      -0.983  11.984  23.046  0.00  0.00    +0.000 A 
ATOM     11  C   UNL     1      -0.762  10.647  22.711  0.00  0.00    +0.000 A 
ATOM     12  C   UNL     1      -0.437  10.308  21.397  0.00  0.00    +0.000 A 
ATOM     13  C   UNL     1      -0.071   8.898  20.998  0.00  0.00    +0.000 C 
ATOM     14  H   UNL     1       1.413   6.914  21.623  0.00  0.00    +0.000 HD
ENDROOT
BRANCH   1  19
ATOM     15  C   UNL     1       3.723   3.726  19.772  0.00  0.00    +0.000 A 
ATOM     16  C   UNL     1       2.850   2.677  20.077  0.00  0.00    +0.000 A 
ATOM     17  C   UNL     1       1.572   2.940  20.571  0.00  0.00    +0.000 A 
ATOM     18  C   UNL     1       1.152   4.257  20.756  0.00  0.00    +0.000 A 
ATOM     19  C   UNL     1       1.997   5.322  20.449  0.00  0.00    +0.000 A 
ATOM     20  C   UNL     1       3.286   5.050  19.964  0.00  0.00    +0.000 A 
BRANCH  15  21
ATOM     21  C   UNL     1       5.109   3.425  19.247  0.00  0.00    +0.000 C 
BRANCH  21  27
ATOM     22  O   UNL     1       7.065   5.480  19.826  0.00  0.00    +0.000 OA
ATOM     23  C   UNL     1       6.480   5.430  18.763  0.00  0.00    +0.000 C 
ATOM     24  C   UNL     1       6.491   6.522  17.710  0.00  0.00    +0.000 C 
ATOM     25  C   UNL     1       5.833   5.852  16.514  0.00  0.00    +0.000 C 
ATOM     26  C   UNL     1       4.897   4.845  17.149  0.00  0.00    +0.000 C 
ATOM     27  N   UNL     1       5.620   4.424  18.327  0.00  0.00    +0.000 N 
ENDBRANCH  21  27
ENDBRANCH  15  21
ENDBRANCH   1  19
TORSDOF 3
ENDMDL
MODEL 6
REMARK VINA RESULT:      -8.6      2.125      8.392
REMARK  Name = 
REMARK  3 active torsions:
REMARK  status: ('A' for Active; 'I' for Inactive)
REMARK    1  A    between atoms: N_6  and  C_7
REMARK    2  A    between atoms: C_7  and  C_8
REMARK    3  A    between atoms: C_12  and  N_13
REMARK                            x       y       z     vdW  Elec       q    Type
REMARK                         _______ _______ _______ _____ _____    ______ ____
ROOT
ATOM      1  N   UNL     1       2.086   7.956  20.276  0.00  0.00    +0.000 N 
ATOM      2  C   UNL     1       2.002   6.581  20.172  0.00  0.00    +0.000 C 
ATOM      3  O   UNL     1       1.334   5.870  20.922  0.00  0.00    +0.000 OA
ATOM      4  N   UNL     1       2.713   6.027  19.111  0.00  0.00    +0.000 N 
ATOM      5  C   UNL     1       2.636   4.562  18.947  0.00  0.00    +0.000 C 
ATOM      6  C   UNL     1       2.799   4.105  17.495  0.00  0.00    +0.000 C 
ATOM      7  C   UNL     1       4.113   4.650  17.006  0.00  0.00    +0.000 A 
ATOM      8  C   UNL     1       5.088   3.853  16.409  0.00  0.00    +0.000 A 
ATOM      9  C   UNL     1       6.317   4.415  16.065  0.00  0.00    +0.000 A 
ATOM     10  C   UNL     1       6.554   5.775  16.275  0.00  0.00    +0.000 A 
ATOM     11  C   UNL     1       5.574   6.578  16.863  0.00  0.00    +0.000 A 
ATOM     12  C   UNL     1       4.364   6.010  17.264  0.00  0.00    +0.000 A 
ATOM     13  C   UNL     1       3.315   6.800  18.010  0.00  0.00    +0.000 C 
ATOM     14  H   UNL     1       2.962   8.368  19.997  0.00  0.00    +0.000 HD
ENDROOT
BRANCH   1  19
ATOM     15  C   UNL     1      -0.564  10.483  20.930  0.00  0.00    +0.000 A 
ATOM     16  C   UNL     1      -0.634  10.443  22.326  0.00  0.00    +0.000 A 
ATOM     17  C   UNL     1       0.198   9.590  23.053  0.00  0.00    +0.000 A 
ATOM     18  C   UNL     1       1.114   8.775  22.389  0.00  0.00    +0.000 A 
ATOM     19  C   UNL     1       1.213   8.802  20.999  0.00  0.00    +0.000 A 
ATOM     20  C   UNL     1       0.365   9.655  20.273  0.00  0.00    +0.000 A 
BRANCH  15  21
ATOM     21  C   UNL     1      -1.479  11.405  20.155  0.00  0.00    +0.000 C 
BRANCH  21  27
ATOM     22  O   UNL     1      -0.910  12.905  17.745  0.00  0.00    +0.000 OA
ATOM     23  C   UNL     1      -1.504  11.845  17.718  0.00  0.00    +0.000 C 
ATOM     24  C   UNL     1      -2.228  11.282  16.510  0.00  0.00    +0.000 C 
ATOM     25  C   UNL     1      -2.560   9.862  16.940  0.00  0.00    +0.000 C 
ATOM     26  C   UNL     1      -2.702   9.977  18.444  0.00  0.00    +0.000 C 
ATOM     27  N   UNL     1      -1.721  10.981  18.789  0.00  0.00    +0.000 N 
ENDBRANCH  21  27
ENDBRANCH  15  21
ENDBRANCH   1  19
TORSDOF 3
ENDMDL
MODEL 7
REMARK VINA RESULT:      -8.5      2.361      3.921
REMARK  Name = 
REMARK  3 active torsions:
REMARK  status: ('A' for Active; 'I' for Inactive)
REMARK    1  A    between atoms: N_6  and  C_7
REMARK    2  A    between atoms: C_7  and  C_8
REMARK    3  A    between atoms: C_12  and  N_13
REMARK                            x       y       z     vdW  Elec       q    Type
REMARK                         _______ _______ _______ _____ _____    ______ ____
ROOT
ATOM      1  N   UNL     1       2.244   7.056  20.100  0.00  0.00    +0.000 N 
ATOM      2  C   UNL     1       2.020   8.118  19.246  0.00  0.00    +0.000 C 
ATOM      3  O   UNL     1       2.589   8.270  18.165  0.00  0.00    +0.000 OA
ATOM      4  N   UNL     1       1.055   9.026  19.676  0.00  0.00    +0.000 N 
ATOM      5  C   UNL     1       0.766  10.167  18.786  0.00  0.00    +0.000 C 
ATOM      6  C   UNL     1      -0.668  10.688  18.912  0.00  0.00    +0.000 C 
ATOM      7  C   UNL     1      -0.883  11.042  20.357  0.00  0.00    +0.000 A 
ATOM      8  C   UNL     1      -1.366  12.283  20.769  0.00  0.00    +0.000 A 
ATOM      9  C   UNL     1      -1.452  12.569  22.131  0.00  0.00    +0.000 A 
ATOM     10  C   UNL     1      -1.099  11.604  23.077  0.00  0.00    +0.000 A 
ATOM     11  C   UNL     1      -0.626  10.356  22.668  0.00  0.00    +0.000 A 
ATOM     12  C   UNL     1      -0.481  10.084  21.306  0.00  0.00    +0.000 A 
ATOM     13  C   UNL     1       0.136   8.800  20.806  0.00  0.00    +0.000 C 
ATOM     14  H   UNL     1       2.150   7.252  21.083  0.00  0.00    +0.000 HD
ENDROOT
BRANCH   1  19
ATOM     15  C   UNL     1       4.558   4.662  18.442  0.00  0.00    +0.000 A 
ATOM     16  C   UNL     1       4.259   3.481  19.128  0.00  0.00    +0.000 A 
ATOM     17  C   UNL     1       3.289   3.471  20.131  0.00  0.00    +0.000 A 
ATOM     18  C   UNL     1       2.602   4.642  20.451  0.00  0.00    +0.000 A 
ATOM     19  C   UNL     1       2.872   5.831  19.775  0.00  0.00    +0.000 A 
ATOM     20  C   UNL     1       3.858   5.837  18.775  0.00  0.00    +0.000 A 
BRANCH  15  21
ATOM     21  C   UNL     1       5.619   4.660  17.365  0.00  0.00    +0.000 C 
BRANCH  21  27
ATOM     22  O   UNL     1       7.975   4.768  19.046  0.00  0.00    +0.000 OA
ATOM     23  C   UNL     1       7.600   5.727  18.401  0.00  0.00    +0.000 C 
ATOM     24  C   UNL     1       8.130   7.139  18.552  0.00  0.00    +0.000 C 
ATOM     25  C   UNL     1       7.522   7.864  17.361  0.00  0.00    +0.000 C 
ATOM     26  C   UNL     1       6.225   7.117  17.124  0.00  0.00    +0.000 C 
ATOM     27  N   UNL     1       6.565   5.755  17.468  0.00  0.00    +0.000 N 
ENDBRANCH  21  27
ENDBRANCH  15  21
ENDBRANCH   1  19
TORSDOF 3
ENDMDL
MODEL 8
REMARK VINA RESULT:      -8.5      1.261      2.020
REMARK  Name = 
REMARK  3 active torsions:
REMARK  status: ('A' for Active; 'I' for Inactive)
REMARK    1  A    between atoms: N_6  and  C_7
REMARK    2  A    between atoms: C_7  and  C_8
REMARK    3  A    between atoms: C_12  and  N_13
REMARK                            x       y       z     vdW  Elec       q    Type
REMARK                         _______ _______ _______ _____ _____    ______ ____
ROOT
ATOM      1  N   UNL     1       2.050   7.555  18.266  0.00  0.00    +0.000 N 
ATOM      2  C   UNL     1       1.847   7.996  19.559  0.00  0.00    +0.000 C 
ATOM      3  O   UNL     1       2.318   7.452  20.558  0.00  0.00    +0.000 OA
ATOM      4  N   UNL     1       1.079   9.152  19.673  0.00  0.00    +0.000 N 
ATOM      5  C   UNL     1       0.853   9.673  21.035  0.00  0.00    +0.000 C 
ATOM      6  C   UNL     1       0.656  11.191  21.080  0.00  0.00    +0.000 C 
ATOM      7  C   UNL     1      -0.492  11.514  20.164  0.00  0.00    +0.000 A 
ATOM      8  C   UNL     1      -1.588  12.277  20.564  0.00  0.00    +0.000 A 
ATOM      9  C   UNL     1      -2.655  12.457  19.685  0.00  0.00    +0.000 A 
ATOM     10  C   UNL     1      -2.608  11.915  18.398  0.00  0.00    +0.000 A 
ATOM     11  C   UNL     1      -1.507  11.160  17.992  0.00  0.00    +0.000 A 
ATOM     12  C   UNL     1      -0.461  10.926  18.886  0.00  0.00    +0.000 A 
ATOM     13  C   UNL     1       0.699  10.021  18.545  0.00  0.00    +0.000 C 
ATOM     14  H   UNL     1       1.293   7.714  17.621  0.00  0.00    +0.000 HD
ENDROOT
BRANCH   1  19
ATOM     15  C   UNL     1       3.806   4.338  17.638  0.00  0.00    +0.000 A 
ATOM     16  C   UNL     1       4.918   4.777  16.911  0.00  0.00    +0.000 A 
ATOM     17  C   UNL     1       5.093   6.133  16.635  0.00  0.00    +0.000 A 
ATOM     18  C   UNL     1       4.162   7.065  17.092  0.00  0.00    +0.000 A 
ATOM     19  C   UNL     1       3.051   6.657  17.828  0.00  0.00    +0.000 A 
ATOM     20  C   UNL     1       2.874   5.289  18.092  0.00  0.00    +0.000 A 
BRANCH  15  21
ATOM     21  C   UNL     1       3.625   2.863  17.919  0.00  0.00    +0.000 C 
BRANCH  21  27
ATOM     22  O   UNL     1       0.793   2.462  18.377  0.00  0.00    +0.000 OA
ATOM     23  C   UNL     1       1.591   2.520  19.291  0.00  0.00    +0.000 C 
ATOM     24  C   UNL     1       1.227   2.635  20.759  0.00  0.00    +0.000 C 
ATOM     25  C   UNL     1       2.557   2.413  21.461  0.00  0.00    +0.000 C 
ATOM     26  C   UNL     1       3.571   2.929  20.460  0.00  0.00    +0.000 C 
ATOM     27  N   UNL     1       2.979   2.582  19.188  0.00  0.00    +0.000 N 
ENDBRANCH  21  27
ENDBRANCH  15  21
ENDBRANCH   1  19
TORSDOF 3
ENDMDL
MODEL 9
REMARK VINA RESULT:      -8.5      1.012      1.262
REMARK  Name = 
REMARK  3 active torsions:
REMARK  status: ('A' for Active; 'I' for Inactive)
REMARK    1  A    between atoms: N_6  and  C_7
REMARK    2  A    between atoms: C_7  and  C_8
REMARK    3  A    between atoms: C_12  and  N_13
REMARK                            x       y       z     vdW  Elec       q    Type
REMARK                         _______ _______ _______ _____ _____    ______ ____
ROOT
ATOM      1  N   UNL     1       2.262   8.229  18.920  0.00  0.00    +0.000 N 
ATOM      2  C   UNL     1       1.774   9.396  18.364  0.00  0.00    +0.000 C 
ATOM      3  O   UNL     1       2.150   9.861  17.289  0.00  0.00    +0.000 OA
ATOM      4  N   UNL     1       0.770  10.022  19.099  0.00  0.00    +0.000 N 
ATOM      5  C   UNL     1       0.201  11.261  18.533  0.00  0.00    +0.000 C 
ATOM      6  C   UNL     1      -1.255  11.501  18.939  0.00  0.00    +0.000 C 
ATOM      7  C   UNL     1      -1.300  11.505  20.442  0.00  0.00    +0.000 A 
ATOM      8  C   UNL     1      -1.879  12.536  21.180  0.00  0.00    +0.000 A 
ATOM      9  C   UNL     1      -1.800  12.511  22.572  0.00  0.00    +0.000 A 
ATOM     10  C   UNL     1      -1.185  11.440  23.224  0.00  0.00    +0.000 A 
ATOM     11  C   UNL     1      -0.614  10.401  22.488  0.00  0.00    +0.000 A 
ATOM     12  C   UNL     1      -0.637  10.448  21.093  0.00  0.00    +0.000 A 
ATOM     13  C   UNL     1       0.067   9.417  20.244  0.00  0.00    +0.000 C 
ATOM     14  H   UNL     1       2.289   8.197  19.926  0.00  0.00    +0.000 HD
ENDROOT
BRANCH   1  19
ATOM     15  C   UNL     1       3.321   4.829  17.848  0.00  0.00    +0.000 A 
ATOM     16  C   UNL     1       4.307   5.139  16.906  0.00  0.00    +0.000 A 
ATOM     17  C   UNL     1       4.629   6.468  16.630  0.00  0.00    +0.000 A 
ATOM     18  C   UNL     1       3.973   7.500  17.301  0.00  0.00    +0.000 A 
ATOM     19  C   UNL     1       2.994   7.220  18.253  0.00  0.00    +0.000 A 
ATOM     20  C   UNL     1       2.667   5.879  18.517  0.00  0.00    +0.000 A 
BRANCH  15  21
ATOM     21  C   UNL     1       2.976   3.384  18.129  0.00  0.00    +0.000 C 
BRANCH  21  27
ATOM     22  O   UNL     1       4.702   2.436  20.252  0.00  0.00    +0.000 OA
ATOM     23  C   UNL     1       3.503   2.564  20.406  0.00  0.00    +0.000 C 
ATOM     24  C   UNL     1       2.716   2.041  21.592  0.00  0.00    +0.000 C 
ATOM     25  C   UNL     1       1.350   2.685  21.409  0.00  0.00    +0.000 C 
ATOM     26  C   UNL     1       1.240   2.846  19.907  0.00  0.00    +0.000 C 
ATOM     27  N   UNL     1       2.600   3.126  19.507  0.00  0.00    +0.000 N 
ENDBRANCH  21  27
ENDBRANCH  15  21
ENDBRANCH   1  19
TORSDOF 3
ENDMDL
