MODEL 1
REMARK VINA RESULT:      -8.4      0.000      0.000
REMARK  Name = 
REMARK  7 active torsions:
REMARK  status: ('A' for Active; 'I' for Inactive)
REMARK    1  A    between atoms: C_1  and  C_2
REMARK    2  A    between atoms: N_4  and  C_5
REMARK    3  A    between atoms: C_9  and  C_10
REMARK    4  A    between atoms: N_12  and  C_13
REMARK    5  A    between atoms: C_17  and  C_18
REMARK    6  A    between atoms: C_18  and  O_19
REMARK    7  A    between atoms: O_19  and  C_20
REMARK                            x       y       z     vdW  Elec       q    Type
REMARK                         _______ _______ _______ _____ _____    ______ ____
ROOT
ATOM      1  C   UNL     1       3.246   5.996  18.515  0.00  0.00    +0.000 C 
ATOM      2  O   UNL     1       2.256   5.329  18.244  0.00  0.00    +0.000 OA
ATOM      3  N   UNL     1       3.267   7.210  19.186  0.00  0.00    +0.000 N 
ATOM      4  H   UNL     1       4.130   7.737  19.174  0.00  0.00    +0.000 HD
ENDROOT
BRANCH   1   9
ATOM      5  C   UNL     1       5.816   4.432  16.216  0.00  0.00    +0.000 A 
ATOM      6  C   UNL     1       6.951   4.448  17.028  0.00  0.00    +0.000 A 
ATOM      7  C   UNL     1       6.896   4.963  18.327  0.00  0.00    +0.000 A 
ATOM      8  C   UNL     1       5.702   5.477  18.832  0.00  0.00    +0.000 A 
ATOM      9  C   UNL     1       4.565   5.501  18.020  0.00  0.00    +0.000 A 
ATOM     10  C   UNL     1       4.628   4.983  16.713  0.00  0.00    +0.000 A 
BRANCH   5  14
ATOM     11  C   UNL     1       6.237   3.545  12.570  0.00  0.00    +0.000 C 
ATOM     12  C   UNL     1       6.522   4.332  13.823  0.00  0.00    +0.000 C 
ATOM     13  O   UNL     1       7.321   5.263  13.806  0.00  0.00    +0.000 OA
ATOM     14  N   UNL     1       5.797   3.883  14.915  0.00  0.00    +0.000 N 
ATOM     15  H   UNL     1       5.289   3.014  14.801  0.00  0.00    +0.000 HD
ENDBRANCH   5  14
ENDBRANCH   1   9
BRANCH   3  16
ATOM     16  C   UNL     1       2.141   7.879  19.726  0.00  0.00    +0.000 A 
ATOM     17  C   UNL     1       1.526   7.499  20.920  0.00  0.00    +0.000 A 
ATOM     18  C   UNL     1       0.392   8.169  21.384  0.00  0.00    +0.000 A 
ATOM     19  C   UNL     1      -0.143   9.228  20.655  0.00  0.00    +0.000 A 
ATOM     20  C   UNL     1       0.459   9.637  19.460  0.00  0.00    +0.000 A 
ATOM     21  C   UNL     1       1.619   8.972  19.017  0.00  0.00    +0.000 A 
BRANCH  20  22
ATOM     22  C   UNL     1      -0.130  10.784  18.672  0.00  0.00    +0.000 C 
BRANCH  22  23
ATOM     23  O   UNL     1      -1.482  10.969  19.083  0.00  0.00    +0.000 OA
BRANCH  23  24
ATOM     24  C   UNL     1      -2.432  11.034  18.101  0.00  0.00    +0.000 A 
ATOM     25  C   UNL     1      -3.728  11.543  18.237  0.00  0.00    +0.000 A 
ATOM     26  C   UNL     1      -4.605  11.544  17.146  0.00  0.00    +0.000 A 
ATOM     27  C   UNL     1      -4.193  11.037  15.917  0.00  0.00    +0.000 A 
ATOM     28  C   UNL     1      -2.905  10.532  15.787  0.00  0.00    +0.000 A 
ATOM     29  F   UNL     1      -2.503  10.045  14.607  0.00  0.00    +0.000 F 
ATOM     30  C   UNL     1      -2.026  10.527  16.865  0.00  0.00    +0.000 A 
ENDBRANCH  23  24
ENDBRANCH  22  23
ENDBRANCH  20  22
ENDBRANCH   3  16
TORSDOF 6
ENDMDL
MODEL 2
REMARK VINA RESULT:      -8.3      2.183      2.826
REMARK  Name = 
REMARK  7 active torsions:
REMARK  status: ('A' for Active; 'I' for Inactive)
REMARK    1  A    between atoms: C_1  and  C_2
REMARK    2  A    between atoms: N_4  and  C_5
REMARK    3  A    between atoms: C_9  and  C_10
REMARK    4  A    between atoms: N_12  and  C_13
REMARK    5  A    between atoms: C_17  and  C_18
REMARK    6  A    between atoms: C_18  and  O_19
REMARK    7  A    between atoms: O_19  and  C_20
REMARK                            x       y       z     vdW  Elec       q    Type
REMARK                         _______ _______ _______ _____ _____    ______ ____
ROOT
ATOM      1  C   UNL     1       1.775   5.718  20.535  0.00  0.00    +0.000 C 
ATOM      2  O   UNL     1       0.591   5.416  20.617  0.00  0.00    +0.000 OA
ATOM      3  N   UNL     1       2.303   7.001  20.553  0.00  0.00    +0.000 N 
ATOM      4  H   UNL     1       3.273   7.111  20.289  0.00  0.00    +0.000 HD
ENDROOT
BRANCH   1   9
ATOM      5  C   UNL     1       4.812   3.860  19.249  0.00  0.00    +0.000 A 
ATOM      6  C   UNL     1       4.596   2.588  19.779  0.00  0.00    +0.000 A 
ATOM      7  C   UNL     1       3.465   2.318  20.558  0.00  0.00    +0.000 A 
ATOM      8  C   UNL     1       2.535   3.322  20.821  0.00  0.00    +0.000 A 
ATOM      9  C   UNL     1       2.753   4.611  20.326  0.00  0.00    +0.000 A 
ATOM     10  C   UNL     1       3.894   4.876  19.546  0.00  0.00    +0.000 A 
BRANCH   5  14
ATOM     11  C   UNL     1       7.248   4.590  16.458  0.00  0.00    +0.000 C 
ATOM     12  C   UNL     1       5.894   4.265  17.035  0.00  0.00    +0.000 C 
ATOM     13  O   UNL     1       4.926   4.102  16.300  0.00  0.00    +0.000 OA
ATOM     14  N   UNL     1       5.908   4.182  18.418  0.00  0.00    +0.000 N 
ATOM     15  H   UNL     1       6.753   4.486  18.886  0.00  0.00    +0.000 HD
ENDBRANCH   5  14
ENDBRANCH   1   9
BRANCH   3  16
ATOM     16  C   UNL     1       1.568   8.199  20.719  0.00  0.00    +0.000 A 
ATOM     17  C   UNL     1       1.194   8.701  21.967  0.00  0.00    +0.000 A 
ATOM     18  C   UNL     1       0.432   9.867  22.068  0.00  0.00    +0.000 A 
ATOM     19  C   UNL     1       0.032  10.545  20.920  0.00  0.00    +0.000 A 
ATOM     20  C   UNL     1       0.400  10.070  19.656  0.00  0.00    +0.000 A 
ATOM     21  C   UNL     1       1.193   8.909  19.567  0.00  0.00    +0.000 A 
BRANCH  20  22
ATOM     22  C   UNL     1      -0.042  10.808  18.414  0.00  0.00    +0.000 C 
BRANCH  22  23
ATOM     23  O   UNL     1      -0.846   9.932  17.629  0.00  0.00    +0.000 OA
BRANCH  23  24
ATOM     24  C   UNL     1      -2.066  10.398  17.220  0.00  0.00    +0.000 A 
ATOM     25  C   UNL     1      -2.587  10.324  15.924  0.00  0.00    +0.000 A 
ATOM     26  C   UNL     1      -3.854  10.849  15.641  0.00  0.00    +0.000 A 
ATOM     27  C   UNL     1      -4.603  11.450  16.649  0.00  0.00    +0.000 A 
ATOM     28  C   UNL     1      -4.079  11.522  17.934  0.00  0.00    +0.000 A 
ATOM     29  F   UNL     1      -4.797  12.098  18.906  0.00  0.00    +0.000 F 
ATOM     30  C   UNL     1      -2.823  11.003  18.225  0.00  0.00    +0.000 A 
ENDBRANCH  23  24
ENDBRANCH  22  23
ENDBRANCH  20  22
ENDBRANCH   3  16
TORSDOF 6
ENDMDL
MODEL 3
REMARK VINA RESULT:      -8.3      6.537      9.353
REMARK  Name = 
REMARK  7 active torsions:
REMARK  status: ('A' for Active; 'I' for Inactive)
REMARK    1  A    between atoms: C_1  and  C_2
REMARK    2  A    between atoms: N_4  and  C_5
REMARK    3  A    between atoms: C_9  and  C_10
REMARK    4  A    between atoms: N_12  and  C_13
REMARK    5  A    between atoms: C_17  and  C_18
REMARK    6  A    between atoms: C_18  and  O_19
REMARK    7  A    between atoms: O_19  and  C_20
REMARK                            x       y       z     vdW  Elec       q    Type
REMARK                         _______ _______ _______ _____ _____    ______ ____
ROOT
ATOM      1  C   UNL     1       8.979  10.153  18.750  0.00  0.00    +0.000 C 
ATOM      2  O   UNL     1       8.989   9.954  19.958  0.00  0.00    +0.000 OA
ATOM      3  N   UNL     1       8.478   9.301  17.776  0.00  0.00    +0.000 N 
ATOM      4  H   UNL     1       8.704   9.507  16.812  0.00  0.00    +0.000 HD
ENDROOT
BRANCH   1   9
ATOM      5  C   UNL     1       9.396  13.781  17.754  0.00  0.00    +0.000 A 
ATOM      6  C   UNL     1      10.698  13.776  17.252  0.00  0.00    +0.000 A 
ATOM      7  C   UNL     1      11.453  12.599  17.230  0.00  0.00    +0.000 A 
ATOM      8  C   UNL     1      10.916  11.408  17.716  0.00  0.00    +0.000 A 
ATOM      9  C   UNL     1       9.627  11.402  18.254  0.00  0.00    +0.000 A 
ATOM     10  C   UNL     1       8.873  12.590  18.276  0.00  0.00    +0.000 A 
BRANCH   5  14
ATOM     11  C   UNL     1       7.483  16.957  18.465  0.00  0.00    +0.000 C 
ATOM     12  C   UNL     1       8.504  15.888  18.754  0.00  0.00    +0.000 C 
ATOM     13  O   UNL     1       9.172  15.926  19.782  0.00  0.00    +0.000 OA
ATOM     14  N   UNL     1       8.568  14.925  17.760  0.00  0.00    +0.000 N 
ATOM     15  H   UNL     1       8.055  15.114  16.907  0.00  0.00    +0.000 HD
ENDBRANCH   5  14
ENDBRANCH   1   9
BRANCH   3  16
ATOM     16  C   UNL     1       7.840   8.058  18.009  0.00  0.00    +0.000 A 
ATOM     17  C   UNL     1       8.402   7.043  18.785  0.00  0.00    +0.000 A 
ATOM     18  C   UNL     1       7.745   5.821  18.946  0.00  0.00    +0.000 A 
ATOM     19  C   UNL     1       6.518   5.598  18.329  0.00  0.00    +0.000 A 
ATOM     20  C   UNL     1       5.926   6.602  17.553  0.00  0.00    +0.000 A 
ATOM     21  C   UNL     1       6.584   7.840  17.421  0.00  0.00    +0.000 A 
BRANCH  20  22
ATOM     22  C   UNL     1       4.596   6.352  16.883  0.00  0.00    +0.000 C 
BRANCH  22  23
ATOM     23  O   UNL     1       4.503   4.966  16.563  0.00  0.00    +0.000 OA
BRANCH  23  24
ATOM     24  C   UNL     1       3.586   4.222  17.254  0.00  0.00    +0.000 A 
ATOM     25  C   UNL     1       2.328   4.654  17.686  0.00  0.00    +0.000 A 
ATOM     26  C   UNL     1       1.487   3.787  18.393  0.00  0.00    +0.000 A 
ATOM     27  C   UNL     1       1.900   2.487  18.674  0.00  0.00    +0.000 A 
ATOM     28  C   UNL     1       3.151   2.064  18.244  0.00  0.00    +0.000 A 
ATOM     29  F   UNL     1       3.552   0.815  18.510  0.00  0.00    +0.000 F 
ATOM     30  C   UNL     1       3.993   2.918  17.540  0.00  0.00    +0.000 A 
ENDBRANCH  23  24
ENDBRANCH  22  23
ENDBRANCH  20  22
ENDBRANCH   3  16
TORSDOF 6
ENDMDL
MODEL 4
REMARK VINA RESULT:      -8.3      3.277      8.592
REMARK  Name = 
REMARK  7 active torsions:
REMARK  status: ('A' for Active; 'I' for Inactive)
REMARK    1  A    between atoms: C_1  and  C_2
REMARK    2  A    between atoms: N_4  and  C_5
REMARK    3  A    between atoms: C_9  and  C_10
REMARK    4  A    between atoms: N_12  and  C_13
REMARK    5  A    between atoms: C_17  and  C_18
REMARK    6  A    between atoms: C_18  and  O_19
REMARK    7  A    between atoms: O_19  and  C_20
REMARK                            x       y       z     vdW  Elec       q    Type
REMARK                         _______ _______ _______ _____ _____    ______ ____
ROOT
ATOM      1  C   UNL     1       2.151   7.963  19.183  0.00  0.00    +0.000 C 
ATOM      2  O   UNL     1       2.398   7.268  20.160  0.00  0.00    +0.000 OA
ATOM      3  N   UNL     1       2.799   7.927  17.957  0.00  0.00    +0.000 N 
ATOM      4  H   UNL     1       2.616   8.681  17.308  0.00  0.00    +0.000 HD
ENDROOT
BRANCH   1   9
ATOM      5  C   UNL     1      -0.621  10.366  18.249  0.00  0.00    +0.000 A 
ATOM      6  C   UNL     1      -0.839  11.015  19.465  0.00  0.00    +0.000 A 
ATOM      7  C   UNL     1      -0.090  10.682  20.599  0.00  0.00    +0.000 A 
ATOM      8  C   UNL     1       0.886   9.688  20.533  0.00  0.00    +0.000 A 
ATOM      9  C   UNL     1       1.093   9.005  19.332  0.00  0.00    +0.000 A 
ATOM     10  C   UNL     1       0.335   9.343  18.196  0.00  0.00    +0.000 A 
BRANCH   5  14
ATOM     11  C   UNL     1      -3.007  10.769  15.350  0.00  0.00    +0.000 C 
ATOM     12  C   UNL     1      -2.586  10.276  16.711  0.00  0.00    +0.000 C 
ATOM     13  O   UNL     1      -3.341   9.582  17.383  0.00  0.00    +0.000 OA
ATOM     14  N   UNL     1      -1.310  10.690  17.060  0.00  0.00    +0.000 N 
ATOM     15  H   UNL     1      -0.873  11.379  16.459  0.00  0.00    +0.000 HD
ENDBRANCH   5  14
ENDBRANCH   1   9
BRANCH   3  16
ATOM     16  C   UNL     1       3.841   7.039  17.595  0.00  0.00    +0.000 A 
ATOM     17  C   UNL     1       5.157   7.452  17.381  0.00  0.00    +0.000 A 
ATOM     18  C   UNL     1       6.137   6.537  16.985  0.00  0.00    +0.000 A 
ATOM     19  C   UNL     1       5.809   5.198  16.795  0.00  0.00    +0.000 A 
ATOM     20  C   UNL     1       4.499   4.755  17.012  0.00  0.00    +0.000 A 
ATOM     21  C   UNL     1       3.527   5.680  17.439  0.00  0.00    +0.000 A 
BRANCH  20  22
ATOM     22  C   UNL     1       4.150   3.300  16.799  0.00  0.00    +0.000 C 
BRANCH  22  23
ATOM     23  O   UNL     1       4.136   2.647  18.065  0.00  0.00    +0.000 OA
BRANCH  23  24
ATOM     24  C   UNL     1       3.009   2.780  18.828  0.00  0.00    +0.000 A 
ATOM     25  C   UNL     1       1.693   2.572  18.401  0.00  0.00    +0.000 A 
ATOM     26  C   UNL     1       0.625   2.749  19.289  0.00  0.00    +0.000 A 
ATOM     27  C   UNL     1       0.867   3.137  20.604  0.00  0.00    +0.000 A 
ATOM     28  C   UNL     1       2.176   3.343  21.022  0.00  0.00    +0.000 A 
ATOM     29  F   UNL     1       2.413   3.715  22.286  0.00  0.00    +0.000 F 
ATOM     30  C   UNL     1       3.243   3.169  20.148  0.00  0.00    +0.000 A 
ENDBRANCH  23  24
ENDBRANCH  22  23
ENDBRANCH  20  22
ENDBRANCH   3  16
TORSDOF 6
ENDMDL
MODEL 5
REMARK VINA RESULT:      -8.2      2.556      3.430
REMARK  Name = 
REMARK  7 active torsions:
REMARK  status: ('A' for Active; 'I' for Inactive)
REMARK    1  A    between atoms: C_1  and  C_2
REMARK    2  A    between atoms: N_4  and  C_5
REMARK    3  A    between atoms: C_9  and  C_10
REMARK    4  A    between atoms: N_12  and  C_13
REMARK    5  A    between atoms: C_17  and  C_18
REMARK    6  A    between atoms: C_18  and  O_19
REMARK    7  A    between atoms: O_19  and  C_20
REMARK                            x       y       z     vdW  Elec       q    Type
REMARK                         _______ _______ _______ _____ _____    ______ ____
ROOT
ATOM      1  C   UNL     1       1.870   7.242  20.192  0.00  0.00    +0.000 C 
ATOM      2  O   UNL     1       1.909   7.905  19.163  0.00  0.00    +0.000 OA
ATOM      3  N   UNL     1       1.365   7.648  21.418  0.00  0.00    +0.000 N 
ATOM      4  H   UNL     1       1.568   7.070  22.223  0.00  0.00    +0.000 HD
ENDROOT
BRANCH   1   9
ATOM      5  C   UNL     1       4.248   4.446  19.267  0.00  0.00    +0.000 A 
ATOM      6  C   UNL     1       3.665   3.364  19.929  0.00  0.00    +0.000 A 
ATOM      7  C   UNL     1       2.496   3.529  20.680  0.00  0.00    +0.000 A 
ATOM      8  C   UNL     1       1.896   4.783  20.783  0.00  0.00    +0.000 A 
ATOM      9  C   UNL     1       2.486   5.883  20.156  0.00  0.00    +0.000 A 
ATOM     10  C   UNL     1       3.663   5.711  19.404  0.00  0.00    +0.000 A 
BRANCH   5  14
ATOM     11  C   UNL     1       7.658   4.565  17.650  0.00  0.00    +0.000 C 
ATOM     12  C   UNL     1       6.663   4.820  18.753  0.00  0.00    +0.000 C 
ATOM     13  O   UNL     1       7.003   5.404  19.776  0.00  0.00    +0.000 OA
ATOM     14  N   UNL     1       5.400   4.333  18.457  0.00  0.00    +0.000 N 
ATOM     15  H   UNL     1       5.316   3.747  17.635  0.00  0.00    +0.000 HD
ENDBRANCH   5  14
ENDBRANCH   1   9
BRANCH   3  16
ATOM     16  C   UNL     1       0.755   8.896  21.692  0.00  0.00    +0.000 A 
ATOM     17  C   UNL     1       0.087   9.175  22.886  0.00  0.00    +0.000 A 
ATOM     18  C   UNL     1      -0.534  10.411  23.085  0.00  0.00    +0.000 A 
ATOM     19  C   UNL     1      -0.496  11.382  22.088  0.00  0.00    +0.000 A 
ATOM     20  C   UNL     1       0.174  11.133  20.885  0.00  0.00    +0.000 A 
ATOM     21  C   UNL     1       0.821   9.895  20.708  0.00  0.00    +0.000 A 
BRANCH  20  22
ATOM     22  C   UNL     1       0.207  12.190  19.807  0.00  0.00    +0.000 C 
BRANCH  22  23
ATOM     23  O   UNL     1       0.002  11.558  18.546  0.00  0.00    +0.000 OA
BRANCH  23  24
ATOM     24  C   UNL     1      -1.267  11.142  18.251  0.00  0.00    +0.000 A 
ATOM     25  C   UNL     1      -1.614  10.009  17.509  0.00  0.00    +0.000 A 
ATOM     26  C   UNL     1      -2.960   9.701  17.276  0.00  0.00    +0.000 A 
ATOM     27  C   UNL     1      -3.963  10.523  17.782  0.00  0.00    +0.000 A 
ATOM     28  C   UNL     1      -3.612  11.648  18.518  0.00  0.00    +0.000 A 
ATOM     29  F   UNL     1      -4.573  12.441  19.008  0.00  0.00    +0.000 F 
ATOM     30  C   UNL     1      -2.278  11.962  18.755  0.00  0.00    +0.000 A 
ENDBRANCH  23  24
ENDBRANCH  22  23
ENDBRANCH  20  22
ENDBRANCH   3  16
TORSDOF 6
ENDMDL
MODEL 6
REMARK VINA RESULT:      -8.2      3.831      8.997
REMARK  Name = 
REMARK  7 active torsions:
REMARK  status: ('A' for Active; 'I' for Inactive)
REMARK    1  A    between atoms: C_1  and  C_2
REMARK    2  A    between atoms: N_4  and  C_5
REMARK    3  A    between atoms: C_9  and  C_10
REMARK    4  A    between atoms: N_12  and  C_13
REMARK    5  A    between atoms: C_17  and  C_18
REMARK    6  A    between atoms: C_18  and  O_19
REMARK    7  A    between atoms: O_19  and  C_20
REMARK                            x       y       z     vdW  Elec       q    Type
REMARK                         _______ _______ _______ _____ _____    ______ ____
ROOT
ATOM      1  C   UNL     1       1.699   7.421  20.413  0.00  0.00    +0.000 C 
ATOM      2  O   UNL     1       2.434   7.614  19.453  0.00  0.00    +0.000 OA
ATOM      3  N   UNL     1       1.423   6.200  21.011  0.00  0.00    +0.000 N 
ATOM      4  H   UNL     1       0.658   6.164  21.671  0.00  0.00    +0.000 HD
ENDROOT
BRANCH   1   9
ATOM      5  C   UNL     1       0.342  10.944  20.694  0.00  0.00    +0.000 A 
ATOM      6  C   UNL     1      -0.280  10.896  21.943  0.00  0.00    +0.000 A 
ATOM      7  C   UNL     1      -0.264   9.725  22.707  0.00  0.00    +0.000 A 
ATOM      8  C   UNL     1       0.370   8.579  22.228  0.00  0.00    +0.000 A 
ATOM      9  C   UNL     1       0.966   8.599  20.965  0.00  0.00    +0.000 A 
ATOM     10  C   UNL     1       0.946   9.780  20.200  0.00  0.00    +0.000 A 
BRANCH   5  14
ATOM     11  C   UNL     1      -0.206  13.855  18.352  0.00  0.00    +0.000 C 
ATOM     12  C   UNL     1      -0.616  12.615  19.105  0.00  0.00    +0.000 C 
ATOM     13  O   UNL     1      -1.746  12.155  18.980  0.00  0.00    +0.000 OA
ATOM     14  N   UNL     1       0.401  12.109  19.898  0.00  0.00    +0.000 N 
ATOM     15  H   UNL     1       1.228  12.686  20.005  0.00  0.00    +0.000 HD
ENDBRANCH   5  14
ENDBRANCH   1   9
BRANCH   3  16
ATOM     16  C   UNL     1       1.983   4.952  20.646  0.00  0.00    +0.000 A 
ATOM     17  C   UNL     1       2.149   3.896  21.544  0.00  0.00    +0.000 A 
ATOM     18  C   UNL     1       2.747   2.701  21.138  0.00  0.00    +0.000 A 
ATOM     19  C   UNL     1       3.190   2.549  19.827  0.00  0.00    +0.000 A 
ATOM     20  C   UNL     1       3.028   3.588  18.903  0.00  0.00    +0.000 A 
ATOM     21  C   UNL     1       2.398   4.777  19.316  0.00  0.00    +0.000 A 
BRANCH  20  22
ATOM     22  C   UNL     1       3.515   3.417  17.483  0.00  0.00    +0.000 C 
BRANCH  22  23
ATOM     23  O   UNL     1       3.681   4.709  16.902  0.00  0.00    +0.000 OA
BRANCH  23  24
ATOM     24  C   UNL     1       4.884   5.330  17.088  0.00  0.00    +0.000 A 
ATOM     25  C   UNL     1       5.107   6.711  17.113  0.00  0.00    +0.000 A 
ATOM     26  C   UNL     1       6.398   7.216  17.308  0.00  0.00    +0.000 A 
ATOM     27  C   UNL     1       7.471   6.345  17.476  0.00  0.00    +0.000 A 
ATOM     28  C   UNL     1       7.245   4.975  17.450  0.00  0.00    +0.000 A 
ATOM     29  F   UNL     1       8.273   4.133  17.613  0.00  0.00    +0.000 F 
ATOM     30  C   UNL     1       5.966   4.464  17.258  0.00  0.00    +0.000 A 
ENDBRANCH  23  24
ENDBRANCH  22  23
ENDBRANCH  20  22
ENDBRANCH   3  16
TORSDOF 6
ENDMDL
MODEL 7
REMARK VINA RESULT:      -8.2      4.318      8.977
REMARK  Name = 
REMARK  7 active torsions:
REMARK  status: ('A' for Active; 'I' for Inactive)
REMARK    1  A    between atoms: C_1  and  C_2
REMARK    2  A    between atoms: N_4  and  C_5
REMARK    3  A    between atoms: C_9  and  C_10
REMARK    4  A    between atoms: N_12  and  C_13
REMARK    5  A    between atoms: C_17  and  C_18
REMARK    6  A    between atoms: C_18  and  O_19
REMARK    7  A    between atoms: O_19  and  C_20
REMARK                            x       y       z     vdW  Elec       q    Type
REMARK                         _______ _______ _______ _____ _____    ______ ____
ROOT
ATOM      1  C   UNL     1       1.696   7.454  20.303  0.00  0.00    +0.000 C 
ATOM      2  O   UNL     1       2.357   7.598  19.282  0.00  0.00    +0.000 OA
ATOM      3  N   UNL     1       1.471   6.264  20.981  0.00  0.00    +0.000 N 
ATOM      4  H   UNL     1       0.757   6.261  21.697  0.00  0.00    +0.000 HD
ENDROOT
BRANCH   1   9
ATOM      5  C   UNL     1       0.593  11.057  20.659  0.00  0.00    +0.000 A 
ATOM      6  C   UNL     1      -0.159  10.996  21.833  0.00  0.00    +0.000 A 
ATOM      7  C   UNL     1      -0.315   9.788  22.522  0.00  0.00    +0.000 A 
ATOM      8  C   UNL     1       0.276   8.621  22.041  0.00  0.00    +0.000 A 
ATOM      9  C   UNL     1       1.002   8.658  20.848  0.00  0.00    +0.000 A 
ATOM     10  C   UNL     1       1.154   9.875  20.159  0.00  0.00    +0.000 A 
BRANCH   5  14
ATOM     11  C   UNL     1       1.642  14.444  19.360  0.00  0.00    +0.000 C 
ATOM     12  C   UNL     1       1.654  13.294  20.335  0.00  0.00    +0.000 C 
ATOM     13  O   UNL     1       2.345  13.343  21.347  0.00  0.00    +0.000 OA
ATOM     14  N   UNL     1       0.826  12.254  19.946  0.00  0.00    +0.000 N 
ATOM     15  H   UNL     1       0.435  12.304  19.013  0.00  0.00    +0.000 HD
ENDBRANCH   5  14
ENDBRANCH   1   9
BRANCH   3  16
ATOM     16  C   UNL     1       2.007   4.999  20.637  0.00  0.00    +0.000 A 
ATOM     17  C   UNL     1       2.135   3.950  21.549  0.00  0.00    +0.000 A 
ATOM     18  C   UNL     1       2.711   2.737  21.165  0.00  0.00    +0.000 A 
ATOM     19  C   UNL     1       3.169   2.560  19.862  0.00  0.00    +0.000 A 
ATOM     20  C   UNL     1       3.044   3.592  18.924  0.00  0.00    +0.000 A 
ATOM     21  C   UNL     1       2.436   4.800  19.316  0.00  0.00    +0.000 A 
BRANCH  20  22
ATOM     22  C   UNL     1       3.548   3.394  17.514  0.00  0.00    +0.000 C 
BRANCH  22  23
ATOM     23  O   UNL     1       3.712   4.674  16.907  0.00  0.00    +0.000 OA
BRANCH  23  24
ATOM     24  C   UNL     1       4.908   5.308  17.096  0.00  0.00    +0.000 A 
ATOM     25  C   UNL     1       5.118   6.691  17.104  0.00  0.00    +0.000 A 
ATOM     26  C   UNL     1       6.403   7.210  17.304  0.00  0.00    +0.000 A 
ATOM     27  C   UNL     1       7.482   6.351  17.496  0.00  0.00    +0.000 A 
ATOM     28  C   UNL     1       7.267   4.978  17.487  0.00  0.00    +0.000 A 
ATOM     29  F   UNL     1       8.301   4.149  17.673  0.00  0.00    +0.000 F 
ATOM     30  C   UNL     1       5.995   4.454  17.290  0.00  0.00    +0.000 A 
ENDBRANCH  23  24
ENDBRANCH  22  23
ENDBRANCH  20  22
ENDBRANCH   3  16
TORSDOF 6
ENDMDL
MODEL 8
REMARK VINA RESULT:      -8.1      1.741      2.262
REMARK  Name = 
REMARK  7 active torsions:
REMARK  status: ('A' for Active; 'I' for Inactive)
REMARK    1  A    between atoms: C_1  and  C_2
REMARK    2  A    between atoms: N_4  and  C_5
REMARK    3  A    between atoms: C_9  and  C_10
REMARK    4  A    between atoms: N_12  and  C_13
REMARK    5  A    between atoms: C_17  and  C_18
REMARK    6  A    between atoms: C_18  and  O_19
REMARK    7  A    between atoms: O_19  and  C_20
REMARK                            x       y       z     vdW  Elec       q    Type
REMARK                         _______ _______ _______ _____ _____    ______ ____
ROOT
ATOM      1  C   UNL     1       2.519   7.330  19.198  0.00  0.00    +0.000 C 
ATOM      2  O   UNL     1       2.549   8.190  18.326  0.00  0.00    +0.000 OA
ATOM      3  N   UNL     1       1.921   7.439  20.446  0.00  0.00    +0.000 N 
ATOM      4  H   UNL     1       2.134   6.726  21.131  0.00  0.00    +0.000 HD
ENDROOT
BRANCH   1   9
ATOM      5  C   UNL     1       4.548   4.720  17.355  0.00  0.00    +0.000 A 
ATOM      6  C   UNL     1       4.564   3.681  18.287  0.00  0.00    +0.000 A 
ATOM      7  C   UNL     1       3.917   3.814  19.520  0.00  0.00    +0.000 A 
ATOM      8  C   UNL     1       3.248   4.995  19.841  0.00  0.00    +0.000 A 
ATOM      9  C   UNL     1       3.253   6.058  18.934  0.00  0.00    +0.000 A 
ATOM     10  C   UNL     1       3.907   5.918  17.696  0.00  0.00    +0.000 A 
BRANCH   5  14
ATOM     11  C   UNL     1       6.788   4.596  14.318  0.00  0.00    +0.000 C 
ATOM     12  C   UNL     1       6.497   4.685  15.794  0.00  0.00    +0.000 C 
ATOM     13  O   UNL     1       7.411   4.798  16.604  0.00  0.00    +0.000 OA
ATOM     14  N   UNL     1       5.141   4.628  16.077  0.00  0.00    +0.000 N 
ATOM     15  H   UNL     1       4.524   4.387  15.310  0.00  0.00    +0.000 HD
ENDBRANCH   5  14
ENDBRANCH   1   9
BRANCH   3  16
ATOM     16  C   UNL     1       1.191   8.555  20.921  0.00  0.00    +0.000 A 
ATOM     17  C   UNL     1       0.905   8.763  22.271  0.00  0.00    +0.000 A 
ATOM     18  C   UNL     1       0.144   9.861  22.679  0.00  0.00    +0.000 A 
ATOM     19  C   UNL     1      -0.345  10.763  21.738  0.00  0.00    +0.000 A 
ATOM     20  C   UNL     1      -0.066  10.584  20.379  0.00  0.00    +0.000 A 
ATOM     21  C   UNL     1       0.727   9.490  19.982  0.00  0.00    +0.000 A 
BRANCH  20  22
ATOM     22  C   UNL     1      -0.603  11.565  19.363  0.00  0.00    +0.000 C 
BRANCH  22  23
ATOM     23  O   UNL     1      -0.839  10.869  18.141  0.00  0.00    +0.000 OA
BRANCH  23  24
ATOM     24  C   UNL     1      -2.085  10.976  17.589  0.00  0.00    +0.000 A 
ATOM     25  C   UNL     1      -2.448  10.608  16.289  0.00  0.00    +0.000 A 
ATOM     26  C   UNL     1      -3.766  10.778  15.848  0.00  0.00    +0.000 A 
ATOM     27  C   UNL     1      -4.725  11.317  16.702  0.00  0.00    +0.000 A 
ATOM     28  C   UNL     1      -4.359  11.682  17.991  0.00  0.00    +0.000 A 
ATOM     29  F   UNL     1      -5.278  12.200  18.815  0.00  0.00    +0.000 F 
ATOM     30  C   UNL     1      -3.052  11.517  18.438  0.00  0.00    +0.000 A 
ENDBRANCH  23  24
ENDBRANCH  22  23
ENDBRANCH  20  22
ENDBRANCH   3  16
TORSDOF 6
ENDMDL
MODEL 9
REMARK VINA RESULT:      -8.0      3.186      4.684
REMARK  Name = 
REMARK  7 active torsions:
REMARK  status: ('A' for Active; 'I' for Inactive)
REMARK    1  A    between atoms: C_1  and  C_2
REMARK    2  A    between atoms: N_4  and  C_5
REMARK    3  A    between atoms: C_9  and  C_10
REMARK    4  A    between atoms: N_12  and  C_13
REMARK    5  A    between atoms: C_17  and  C_18
REMARK    6  A    between atoms: C_18  and  O_19
REMARK    7  A    between atoms: O_19  and  C_20
REMARK                            x       y       z     vdW  Elec       q    Type
REMARK                         _______ _______ _______ _____ _____    ______ ____
ROOT
ATOM      1  C   UNL     1       1.841   8.837  18.273  0.00  0.00    +0.000 C 
ATOM      2  O   UNL     1       2.098   9.643  17.388  0.00  0.00    +0.000 OA
ATOM      3  N   UNL     1       0.889   8.981  19.272  0.00  0.00    +0.000 N 
ATOM      4  H   UNL     1       0.914   8.326  20.041  0.00  0.00    +0.000 HD
ENDROOT
BRANCH   1   9
ATOM      5  C   UNL     1       3.120   5.478  19.461  0.00  0.00    +0.000 A 
ATOM      6  C   UNL     1       4.223   5.297  18.625  0.00  0.00    +0.000 A 
ATOM      7  C   UNL     1       4.565   6.261  17.671  0.00  0.00    +0.000 A 
ATOM      8  C   UNL     1       3.802   7.420  17.534  0.00  0.00    +0.000 A 
ATOM      9  C   UNL     1       2.674   7.600  18.339  0.00  0.00    +0.000 A 
ATOM     10  C   UNL     1       2.334   6.626  19.296  0.00  0.00    +0.000 A 
BRANCH   5  14
ATOM     11  C   UNL     1       1.616   2.802  21.659  0.00  0.00    +0.000 C 
ATOM     12  C   UNL     1       1.787   3.576  20.378  0.00  0.00    +0.000 C 
ATOM     13  O   UNL     1       1.107   3.308  19.393  0.00  0.00    +0.000 OA
ATOM     14  N   UNL     1       2.753   4.564  20.473  0.00  0.00    +0.000 N 
ATOM     15  H   UNL     1       3.327   4.563  21.308  0.00  0.00    +0.000 HD
ENDBRANCH   5  14
ENDBRANCH   1   9
BRANCH   3  16
ATOM     16  C   UNL     1       0.001  10.075  19.420  0.00  0.00    +0.000 A 
ATOM     17  C   UNL     1       0.066  10.973  20.486  0.00  0.00    +0.000 A 
ATOM     18  C   UNL     1      -0.863  12.010  20.604  0.00  0.00    +0.000 A 
ATOM     19  C   UNL     1      -1.871  12.158  19.656  0.00  0.00    +0.000 A 
ATOM     20  C   UNL     1      -1.954  11.277  18.571  0.00  0.00    +0.000 A 
ATOM     21  C   UNL     1      -0.996  10.254  18.448  0.00  0.00    +0.000 A 
BRANCH  20  22
ATOM     22  C   UNL     1      -3.055  11.441  17.549  0.00  0.00    +0.000 C 
BRANCH  22  23
ATOM     23  O   UNL     1      -4.188  10.690  17.978  0.00  0.00    +0.000 OA
BRANCH  23  24
ATOM     24  C   UNL     1      -5.342  11.381  18.224  0.00  0.00    +0.000 A 
ATOM     25  C   UNL     1      -6.138  11.279  19.370  0.00  0.00    +0.000 A 
ATOM     26  C   UNL     1      -7.304  12.045  19.491  0.00  0.00    +0.000 A 
ATOM     27  C   UNL     1      -7.679  12.914  18.470  0.00  0.00    +0.000 A 
ATOM     28  C   UNL     1      -6.885  13.010  17.334  0.00  0.00    +0.000 A 
ATOM     29  F   UNL     1      -7.241  13.845  16.350  0.00  0.00    +0.000 F 
ATOM     30  C   UNL     1      -5.725  12.254  17.205  0.00  0.00    +0.000 A 
ENDBRANCH  23  24
ENDBRANCH  22  23
ENDBRANCH  20  22
ENDBRANCH   3  16
TORSDOF 6
ENDMDL
