MODEL 1
REMARK VINA RESULT:      -9.7      0.000      0.000
REMARK  Name = 
REMARK  5 active torsions:
REMARK  status: ('A' for Active; 'I' for Inactive)
REMARK    1  A    between atoms: C_1  and  C_2
REMARK    2  A    between atoms: C_4  and  C_5
REMARK    3  A    between atoms: N_6  and  C_7
REMARK    4  A    between atoms: C_11  and  N_12
REMARK    5  A    between atoms: C_13  and  C_15
REMARK                            x       y       z     vdW  Elec       q    Type
REMARK                         _______ _______ _______ _____ _____    ______ ____
ROOT
ATOM      1  N   UNL     1       1.976   7.232  20.864  0.00  0.00    +0.000 N 
ATOM      2  C   UNL     1       2.582   6.839  19.674  0.00  0.00    +0.000 C 
ATOM      3  O   UNL     1       2.464   7.390  18.587  0.00  0.00    +0.000 OA
ATOM      4  H   UNL     1       2.300   6.796  21.720  0.00  0.00    +0.000 HD
ENDROOT
BRANCH   2   5
ATOM      5  C   UNL     1       3.478   5.604  19.768  0.00  0.00    +0.000 C 
ATOM      6  C   UNL     1       4.474   5.614  18.605  0.00  0.00    +0.000 C 
ATOM      7  C   UNL     1       5.506   4.565  18.928  0.00  0.00    +0.000 C 
ATOM      8  O   UNL     1       6.719   4.747  18.863  0.00  0.00    +0.000 OA
ATOM      9  N   UNL     1       4.955   3.332  19.203  0.00  0.00    +0.000 N 
ATOM     10  C   UNL     1       3.564   3.164  19.294  0.00  0.00    +0.000 A 
ATOM     11  C   UNL     1       2.963   2.000  18.847  0.00  0.00    +0.000 A 
ATOM     12  C   UNL     1       1.571   1.929  18.838  0.00  0.00    +0.000 A 
ATOM     13  C   UNL     1       0.806   2.924  19.454  0.00  0.00    +0.000 A 
ATOM     14  C   UNL     1       1.421   4.067  19.957  0.00  0.00    +0.000 A 
ATOM     15  C   UNL     1       2.784   4.253  19.719  0.00  0.00    +0.000 A 
ATOM     16  H   UNL     1       5.584   2.541  19.285  0.00  0.00    +0.000 HD
ENDBRANCH   2   5
BRANCH   1  21
ATOM     17  C   UNL     1      -0.236  10.083  19.963  0.00  0.00    +0.000 A 
ATOM     18  C   UNL     1      -0.424  10.672  21.223  0.00  0.00    +0.000 A 
ATOM     19  C   UNL     1       0.173  10.129  22.355  0.00  0.00    +0.000 A 
ATOM     20  C   UNL     1       0.968   8.989  22.248  0.00  0.00    +0.000 A 
ATOM     21  C   UNL     1       1.200   8.403  21.007  0.00  0.00    +0.000 A 
ATOM     22  C   UNL     1       0.622   8.971  19.856  0.00  0.00    +0.000 A 
BRANCH  17  28
ATOM     23  C   UNL     1      -3.017   9.863  16.021  0.00  0.00    +0.000 C 
ATOM     24  C   UNL     1      -2.226  10.498  17.106  0.00  0.00    +0.000 A 
ATOM     25  C   UNL     1      -1.912  11.851  17.266  0.00  0.00    +0.000 A 
ATOM     26  C   UNL     1      -1.092  11.914  18.377  0.00  0.00    +0.000 A 
ATOM     27  C   UNL     1      -0.360  13.103  18.880  0.00  0.00    +0.000 C 
ATOM     28  N   UNL     1      -0.985  10.614  18.864  0.00  0.00    +0.000 N 
ATOM     29  N   UNL     1      -1.672   9.751  18.060  0.00  0.00    +0.000 NA
ENDBRANCH  17  28
ENDBRANCH   1  21
TORSDOF 3
ENDMDL
MODEL 2
REMARK VINA RESULT:      -9.3      2.220      8.064
REMARK  Name = 
REMARK  5 active torsions:
REMARK  status: ('A' for Active; 'I' for Inactive)
REMARK    1  A    between atoms: C_1  and  C_2
REMARK    2  A    between atoms: C_4  and  C_5
REMARK    3  A    between atoms: N_6  and  C_7
REMARK    4  A    between atoms: C_11  and  N_12
REMARK    5  A    between atoms: C_13  and  C_15
REMARK                            x       y       z     vdW  Elec       q    Type
REMARK                         _______ _______ _______ _____ _____    ______ ____
ROOT
ATOM      1  N   UNL     1       1.764   8.300  19.703  0.00  0.00    +0.000 N 
ATOM      2  C   UNL     1       1.524   9.131  18.613  0.00  0.00    +0.000 C 
ATOM      3  O   UNL     1       1.794   8.886  17.444  0.00  0.00    +0.000 OA
ATOM      4  H   UNL     1       1.331   8.548  20.585  0.00  0.00    +0.000 HD
ENDROOT
BRANCH   2   5
ATOM      5  C   UNL     1       0.854  10.466  18.938  0.00  0.00    +0.000 C 
ATOM      6  C   UNL     1       0.744  10.618  20.458  0.00  0.00    +0.000 C 
ATOM      7  C   UNL     1       0.374  12.056  20.711  0.00  0.00    +0.000 C 
ATOM      8  O   UNL     1       0.939  12.782  21.524  0.00  0.00    +0.000 OA
ATOM      9  N   UNL     1      -0.744  12.456  20.011  0.00  0.00    +0.000 N 
ATOM     10  C   UNL     1      -1.351  11.610  19.069  0.00  0.00    +0.000 A 
ATOM     11  C   UNL     1      -2.727  11.599  18.913  0.00  0.00    +0.000 A 
ATOM     12  C   UNL     1      -3.294  10.653  18.060  0.00  0.00    +0.000 A 
ATOM     13  C   UNL     1      -2.486   9.871  17.231  0.00  0.00    +0.000 A 
ATOM     14  C   UNL     1      -1.100   9.929  17.349  0.00  0.00    +0.000 A 
ATOM     15  C   UNL     1      -0.548  10.677  18.391  0.00  0.00    +0.000 A 
ATOM     16  H   UNL     1      -1.144  13.360  20.236  0.00  0.00    +0.000 HD
ENDBRANCH   2   5
BRANCH   1  21
ATOM     17  C   UNL     1       3.884   5.461  18.570  0.00  0.00    +0.000 A 
ATOM     18  C   UNL     1       3.400   4.433  19.394  0.00  0.00    +0.000 A 
ATOM     19  C   UNL     1       2.387   4.679  20.314  0.00  0.00    +0.000 A 
ATOM     20  C   UNL     1       1.839   5.956  20.426  0.00  0.00    +0.000 A 
ATOM     21  C   UNL     1       2.275   6.987  19.598  0.00  0.00    +0.000 A 
ATOM     22  C   UNL     1       3.279   6.730  18.645  0.00  0.00    +0.000 A 
BRANCH  17  28
ATOM     23  C   UNL     1       6.139   3.878  14.605  0.00  0.00    +0.000 C 
ATOM     24  C   UNL     1       6.006   4.459  15.964  0.00  0.00    +0.000 A 
ATOM     25  C   UNL     1       7.022   4.784  16.868  0.00  0.00    +0.000 A 
ATOM     26  C   UNL     1       6.379   5.210  18.015  0.00  0.00    +0.000 A 
ATOM     27  C   UNL     1       7.004   5.524  19.324  0.00  0.00    +0.000 C 
ATOM     28  N   UNL     1       5.015   5.170  17.742  0.00  0.00    +0.000 N 
ATOM     29  N   UNL     1       4.800   4.686  16.484  0.00  0.00    +0.000 NA
ENDBRANCH  17  28
ENDBRANCH   1  21
TORSDOF 3
ENDMDL
MODEL 3
REMARK VINA RESULT:      -9.2      2.267      8.044
REMARK  Name = 
REMARK  5 active torsions:
REMARK  status: ('A' for Active; 'I' for Inactive)
REMARK    1  A    between atoms: C_1  and  C_2
REMARK    2  A    between atoms: C_4  and  C_5
REMARK    3  A    between atoms: N_6  and  C_7
REMARK    4  A    between atoms: C_11  and  N_12
REMARK    5  A    between atoms: C_13  and  C_15
REMARK                            x       y       z     vdW  Elec       q    Type
REMARK                         _______ _______ _______ _____ _____    ______ ____
ROOT
ATOM      1  N   UNL     1       2.071   6.928  20.429  0.00  0.00    +0.000 N 
ATOM      2  C   UNL     1       1.778   8.099  19.735  0.00  0.00    +0.000 C 
ATOM      3  O   UNL     1       1.943   8.288  18.537  0.00  0.00    +0.000 OA
ATOM      4  H   UNL     1       1.720   6.846  21.377  0.00  0.00    +0.000 HD
ENDROOT
BRANCH   2   5
ATOM      5  C   UNL     1       1.192   9.233  20.576  0.00  0.00    +0.000 C 
ATOM      6  C   UNL     1       0.404   8.638  21.746  0.00  0.00    +0.000 C 
ATOM      7  C   UNL     1       0.127   9.780  22.689  0.00  0.00    +0.000 C 
ATOM      8  O   UNL     1       0.327   9.741  23.899  0.00  0.00    +0.000 OA
ATOM      9  N   UNL     1      -0.481  10.853  22.072  0.00  0.00    +0.000 N 
ATOM     10  C   UNL     1      -0.672  10.877  20.681  0.00  0.00    +0.000 A 
ATOM     11  C   UNL     1      -1.806  11.452  20.134  0.00  0.00    +0.000 A 
ATOM     12  C   UNL     1      -2.014  11.339  18.760  0.00  0.00    +0.000 A 
ATOM     13  C   UNL     1      -1.008  10.838  17.929  0.00  0.00    +0.000 A 
ATOM     14  C   UNL     1       0.158  10.316  18.480  0.00  0.00    +0.000 A 
ATOM     15  C   UNL     1       0.242  10.185  19.868  0.00  0.00    +0.000 A 
ATOM     16  H   UNL     1      -0.833  11.599  22.662  0.00  0.00    +0.000 HD
ENDBRANCH   2   5
BRANCH   1  21
ATOM     17  C   UNL     1       4.031   4.658  18.229  0.00  0.00    +0.000 A 
ATOM     18  C   UNL     1       3.516   3.413  18.620  0.00  0.00    +0.000 A 
ATOM     19  C   UNL     1       2.535   3.327  19.600  0.00  0.00    +0.000 A 
ATOM     20  C   UNL     1       2.050   4.484  20.208  0.00  0.00    +0.000 A 
ATOM     21  C   UNL     1       2.517   5.736  19.816  0.00  0.00    +0.000 A 
ATOM     22  C   UNL     1       3.488   5.825  18.801  0.00  0.00    +0.000 A 
BRANCH  17  28
ATOM     23  C   UNL     1       6.249   3.833  14.020  0.00  0.00    +0.000 C 
ATOM     24  C   UNL     1       6.105   4.288  15.426  0.00  0.00    +0.000 A 
ATOM     25  C   UNL     1       7.100   4.763  16.286  0.00  0.00    +0.000 A 
ATOM     26  C   UNL     1       6.474   4.972  17.500  0.00  0.00    +0.000 A 
ATOM     27  C   UNL     1       7.121   5.329  18.788  0.00  0.00    +0.000 C 
ATOM     28  N   UNL     1       5.130   4.663  17.312  0.00  0.00    +0.000 N 
ATOM     29  N   UNL     1       4.922   4.224  16.036  0.00  0.00    +0.000 NA
ENDBRANCH  17  28
ENDBRANCH   1  21
TORSDOF 3
ENDMDL
MODEL 4
REMARK VINA RESULT:      -9.1      2.487      4.194
REMARK  Name = 
REMARK  5 active torsions:
REMARK  status: ('A' for Active; 'I' for Inactive)
REMARK    1  A    between atoms: C_1  and  C_2
REMARK    2  A    between atoms: C_4  and  C_5
REMARK    3  A    between atoms: N_6  and  C_7
REMARK    4  A    between atoms: C_11  and  N_12
REMARK    5  A    between atoms: C_13  and  C_15
REMARK                            x       y       z     vdW  Elec       q    Type
REMARK                         _______ _______ _______ _____ _____    ______ ____
ROOT
ATOM      1  N   UNL     1       1.855   8.466  17.921  0.00  0.00    +0.000 N 
ATOM      2  C   UNL     1       2.267   7.380  18.688  0.00  0.00    +0.000 C 
ATOM      3  O   UNL     1       2.497   7.391  19.891  0.00  0.00    +0.000 OA
ATOM      4  H   UNL     1       1.530   8.277  16.980  0.00  0.00    +0.000 HD
ENDROOT
BRANCH   2   5
ATOM      5  C   UNL     1       2.433   6.063  17.930  0.00  0.00    +0.000 C 
ATOM      6  C   UNL     1       2.129   4.896  18.873  0.00  0.00    +0.000 C 
ATOM      7  C   UNL     1       2.005   3.674  18.001  0.00  0.00    +0.000 C 
ATOM      8  O   UNL     1       1.080   2.869  18.067  0.00  0.00    +0.000 OA
ATOM      9  N   UNL     1       3.098   3.482  17.182  0.00  0.00    +0.000 N 
ATOM     10  C   UNL     1       4.126   4.435  17.111  0.00  0.00    +0.000 A 
ATOM     11  C   UNL     1       5.444   4.041  16.955  0.00  0.00    +0.000 A 
ATOM     12  C   UNL     1       6.443   5.012  17.019  0.00  0.00    +0.000 A 
ATOM     13  C   UNL     1       6.111   6.369  17.037  0.00  0.00    +0.000 A 
ATOM     14  C   UNL     1       4.780   6.763  17.133  0.00  0.00    +0.000 A 
ATOM     15  C   UNL     1       3.806   5.784  17.342  0.00  0.00    +0.000 A 
ATOM     16  H   UNL     1       3.159   2.607  16.674  0.00  0.00    +0.000 HD
ENDBRANCH   2   5
BRANCH   1  21
ATOM     17  C   UNL     1       0.297  11.053  20.093  0.00  0.00    +0.000 A 
ATOM     18  C   UNL     1       0.940  12.207  19.619  0.00  0.00    +0.000 A 
ATOM     19  C   UNL     1       1.877  12.128  18.597  0.00  0.00    +0.000 A 
ATOM     20  C   UNL     1       2.190  10.894  18.028  0.00  0.00    +0.000 A 
ATOM     21  C   UNL     1       1.544   9.737  18.453  0.00  0.00    +0.000 A 
ATOM     22  C   UNL     1       0.571   9.821  19.467  0.00  0.00    +0.000 A 
BRANCH  17  28
ATOM     23  C   UNL     1      -3.163  13.088  22.777  0.00  0.00    +0.000 C 
ATOM     24  C   UNL     1      -2.104  12.110  22.419  0.00  0.00    +0.000 A 
ATOM     25  C   UNL     1      -1.574  11.084  23.207  0.00  0.00    +0.000 A 
ATOM     26  C   UNL     1      -0.564  10.518  22.453  0.00  0.00    +0.000 A 
ATOM     27  C   UNL     1       0.410   9.489  22.895  0.00  0.00    +0.000 C 
ATOM     28  N   UNL     1      -0.557  11.189  21.233  0.00  0.00    +0.000 N 
ATOM     29  N   UNL     1      -1.496  12.180  21.235  0.00  0.00    +0.000 NA
ENDBRANCH  17  28
ENDBRANCH   1  21
TORSDOF 3
ENDMDL
MODEL 5
REMARK VINA RESULT:      -9.1      1.591      2.049
REMARK  Name = 
REMARK  5 active torsions:
REMARK  status: ('A' for Active; 'I' for Inactive)
REMARK    1  A    between atoms: C_1  and  C_2
REMARK    2  A    between atoms: C_4  and  C_5
REMARK    3  A    between atoms: N_6  and  C_7
REMARK    4  A    between atoms: C_11  and  N_12
REMARK    5  A    between atoms: C_13  and  C_15
REMARK                            x       y       z     vdW  Elec       q    Type
REMARK                         _______ _______ _______ _____ _____    ______ ____
ROOT
ATOM      1  N   UNL     1       1.819   8.606  18.894  0.00  0.00    +0.000 N 
ATOM      2  C   UNL     1       2.005   7.602  19.841  0.00  0.00    +0.000 C 
ATOM      3  O   UNL     1       1.458   7.531  20.934  0.00  0.00    +0.000 OA
ATOM      4  H   UNL     1       2.195   8.448  17.966  0.00  0.00    +0.000 HD
ENDROOT
BRANCH   2   5
ATOM      5  C   UNL     1       2.984   6.496  19.445  0.00  0.00    +0.000 C 
ATOM      6  C   UNL     1       3.393   6.686  17.982  0.00  0.00    +0.000 C 
ATOM      7  C   UNL     1       4.571   5.775  17.755  0.00  0.00    +0.000 C 
ATOM      8  O   UNL     1       5.618   6.121  17.215  0.00  0.00    +0.000 OA
ATOM      9  N   UNL     1       4.322   4.468  18.119  0.00  0.00    +0.000 N 
ATOM     10  C   UNL     1       3.124   4.110  18.757  0.00  0.00    +0.000 A 
ATOM     11  C   UNL     1       2.518   2.894  18.492  0.00  0.00    +0.000 A 
ATOM     12  C   UNL     1       1.267   2.636  19.049  0.00  0.00    +0.000 A 
ATOM     13  C   UNL     1       0.729   3.494  20.012  0.00  0.00    +0.000 A 
ATOM     14  C   UNL     1       1.373   4.689  20.321  0.00  0.00    +0.000 A 
ATOM     15  C   UNL     1       2.482   5.067  19.562  0.00  0.00    +0.000 A 
ATOM     16  H   UNL     1       5.008   3.768  17.862  0.00  0.00    +0.000 HD
ENDBRANCH   2   5
BRANCH   1  21
ATOM     17  C   UNL     1      -1.180  10.706  18.239  0.00  0.00    +0.000 A 
ATOM     18  C   UNL     1      -1.068  11.645  19.276  0.00  0.00    +0.000 A 
ATOM     19  C   UNL     1      -0.015  11.580  20.180  0.00  0.00    +0.000 A 
ATOM     20  C   UNL     1       0.946  10.577  20.065  0.00  0.00    +0.000 A 
ATOM     21  C   UNL     1       0.881   9.653  19.026  0.00  0.00    +0.000 A 
ATOM     22  C   UNL     1      -0.168   9.737  18.091  0.00  0.00    +0.000 A 
BRANCH  17  28
ATOM     23  C   UNL     1      -3.752  10.156  14.189  0.00  0.00    +0.000 C 
ATOM     24  C   UNL     1      -3.491  10.500  15.610  0.00  0.00    +0.000 A 
ATOM     25  C   UNL     1      -4.362  11.092  16.529  0.00  0.00    +0.000 A 
ATOM     26  C   UNL     1      -3.621  11.278  17.680  0.00  0.00    +0.000 A 
ATOM     27  C   UNL     1      -4.038  12.009  18.902  0.00  0.00    +0.000 C 
ATOM     28  N   UNL     1      -2.357  10.752  17.426  0.00  0.00    +0.000 N 
ATOM     29  N   UNL     1      -2.286  10.295  16.141  0.00  0.00    +0.000 NA
ENDBRANCH  17  28
ENDBRANCH   1  21
TORSDOF 3
ENDMDL
MODEL 6
REMARK VINA RESULT:      -9.0      1.216      2.158
REMARK  Name = 
REMARK  5 active torsions:
REMARK  status: ('A' for Active; 'I' for Inactive)
REMARK    1  A    between atoms: C_1  and  C_2
REMARK    2  A    between atoms: C_4  and  C_5
REMARK    3  A    between atoms: N_6  and  C_7
REMARK    4  A    between atoms: C_11  and  N_12
REMARK    5  A    between atoms: C_13  and  C_15
REMARK                            x       y       z     vdW  Elec       q    Type
REMARK                         _______ _______ _______ _____ _____    ______ ____
ROOT
ATOM      1  N   UNL     1       1.916   7.212  21.047  0.00  0.00    +0.000 N 
ATOM      2  C   UNL     1       2.390   6.789  19.808  0.00  0.00    +0.000 C 
ATOM      3  O   UNL     1       2.122   7.291  18.724  0.00  0.00    +0.000 OA
ATOM      4  H   UNL     1       2.356   6.822  21.874  0.00  0.00    +0.000 HD
ENDROOT
BRANCH   2   5
ATOM      5  C   UNL     1       3.333   5.587  19.839  0.00  0.00    +0.000 C 
ATOM      6  C   UNL     1       4.360   5.724  18.712  0.00  0.00    +0.000 C 
ATOM      7  C   UNL     1       5.426   4.696  18.988  0.00  0.00    +0.000 C 
ATOM      8  O   UNL     1       6.631   4.930  18.976  0.00  0.00    +0.000 OA
ATOM      9  N   UNL     1       4.919   3.424  19.154  0.00  0.00    +0.000 N 
ATOM     10  C   UNL     1       3.535   3.195  19.188  0.00  0.00    +0.000 A 
ATOM     11  C   UNL     1       2.996   2.045  18.637  0.00  0.00    +0.000 A 
ATOM     12  C   UNL     1       1.608   1.920  18.579  0.00  0.00    +0.000 A 
ATOM     13  C   UNL     1       0.786   2.835  19.242  0.00  0.00    +0.000 A 
ATOM     14  C   UNL     1       1.338   3.960  19.849  0.00  0.00    +0.000 A 
ATOM     15  C   UNL     1       2.698   4.217  19.667  0.00  0.00    +0.000 A 
ATOM     16  H   UNL     1       5.578   2.655  19.197  0.00  0.00    +0.000 HD
ENDBRANCH   2   5
BRANCH   1  21
ATOM     17  C   UNL     1       0.520  10.617  20.506  0.00  0.00    +0.000 A 
ATOM     18  C   UNL     1      -0.470  10.650  21.499  0.00  0.00    +0.000 A 
ATOM     19  C   UNL     1      -0.673   9.558  22.335  0.00  0.00    +0.000 A 
ATOM     20  C   UNL     1       0.110   8.413  22.193  0.00  0.00    +0.000 A 
ATOM     21  C   UNL     1       1.123   8.364  21.240  0.00  0.00    +0.000 A 
ATOM     22  C   UNL     1       1.350   9.482  20.415  0.00  0.00    +0.000 A 
BRANCH  17  28
ATOM     23  C   UNL     1       2.513  14.503  18.446  0.00  0.00    +0.000 C 
ATOM     24  C   UNL     1       1.490  13.454  18.689  0.00  0.00    +0.000 A 
ATOM     25  C   UNL     1       0.214  13.348  18.129  0.00  0.00    +0.000 A 
ATOM     26  C   UNL     1      -0.370  12.254  18.738  0.00  0.00    +0.000 A 
ATOM     27  C   UNL     1      -1.779  11.805  18.607  0.00  0.00    +0.000 C 
ATOM     28  N   UNL     1       0.586  11.721  19.598  0.00  0.00    +0.000 N 
ATOM     29  N   UNL     1       1.719  12.483  19.572  0.00  0.00    +0.000 NA
ENDBRANCH  17  28
ENDBRANCH   1  21
TORSDOF 3
ENDMDL
MODEL 7
REMARK VINA RESULT:      -9.0      1.727      2.989
REMARK  Name = 
REMARK  5 active torsions:
REMARK  status: ('A' for Active; 'I' for Inactive)
REMARK    1  A    between atoms: C_1  and  C_2
REMARK    2  A    between atoms: C_4  and  C_5
REMARK    3  A    between atoms: N_6  and  C_7
REMARK    4  A    between atoms: C_11  and  N_12
REMARK    5  A    between atoms: C_13  and  C_15
REMARK                            x       y       z     vdW  Elec       q    Type
REMARK                         _______ _______ _______ _____ _____    ______ ____
ROOT
ATOM      1  N   UNL     1       2.246   7.584  19.732  0.00  0.00    +0.000 N 
ATOM      2  C   UNL     1       2.731   6.775  18.708  0.00  0.00    +0.000 C 
ATOM      3  O   UNL     1       2.533   6.930  17.510  0.00  0.00    +0.000 OA
ATOM      4  H   UNL     1       2.631   7.446  20.659  0.00  0.00    +0.000 HD
ENDROOT
BRANCH   2   5
ATOM      5  C   UNL     1       3.592   5.593  19.155  0.00  0.00    +0.000 C 
ATOM      6  C   UNL     1       4.715   5.375  18.137  0.00  0.00    +0.000 C 
ATOM      7  C   UNL     1       5.688   4.424  18.784  0.00  0.00    +0.000 C 
ATOM      8  O   UNL     1       6.902   4.601  18.825  0.00  0.00    +0.000 OA
ATOM      9  N   UNL     1       5.091   3.267  19.239  0.00  0.00    +0.000 N 
ATOM     10  C   UNL     1       3.696   3.108  19.200  0.00  0.00    +0.000 A 
ATOM     11  C   UNL     1       3.134   1.872  18.932  0.00  0.00    +0.000 A 
ATOM     12  C   UNL     1       1.751   1.788  18.776  0.00  0.00    +0.000 A 
ATOM     13  C   UNL     1       0.935   2.880  19.084  0.00  0.00    +0.000 A 
ATOM     14  C   UNL     1       1.504   4.107  19.413  0.00  0.00    +0.000 A 
ATOM     15  C   UNL     1       2.889   4.254  19.301  0.00  0.00    +0.000 A 
ATOM     16  H   UNL     1       5.695   2.516  19.552  0.00  0.00    +0.000 HD
ENDBRANCH   2   5
BRANCH   1  21
ATOM     17  C   UNL     1      -0.071  10.422  20.377  0.00  0.00    +0.000 A 
ATOM     18  C   UNL     1       0.124  11.182  19.214  0.00  0.00    +0.000 A 
ATOM     19  C   UNL     1       1.012  10.761  18.231  0.00  0.00    +0.000 A 
ATOM     20  C   UNL     1       1.722   9.572  18.393  0.00  0.00    +0.000 A 
ATOM     21  C   UNL     1       1.524   8.779  19.520  0.00  0.00    +0.000 A 
ATOM     22  C   UNL     1       0.601   9.190  20.500  0.00  0.00    +0.000 A 
BRANCH  17  28
ATOM     23  C   UNL     1      -3.207  13.565  22.273  0.00  0.00    +0.000 C 
ATOM     24  C   UNL     1      -2.299  12.392  22.234  0.00  0.00    +0.000 A 
ATOM     25  C   UNL     1      -1.922  11.557  23.290  0.00  0.00    +0.000 A 
ATOM     26  C   UNL     1      -1.002  10.674  22.758  0.00  0.00    +0.000 A 
ATOM     27  C   UNL     1      -0.185   9.681  23.499  0.00  0.00    +0.000 C 
ATOM     28  N   UNL     1      -0.897  10.980  21.404  0.00  0.00    +0.000 N 
ATOM     29  N   UNL     1      -1.686  12.052  21.101  0.00  0.00    +0.000 NA
ENDBRANCH  17  28
ENDBRANCH   1  21
TORSDOF 3
ENDMDL
MODEL 8
REMARK VINA RESULT:      -8.9      1.915      2.434
REMARK  Name = 
REMARK  5 active torsions:
REMARK  status: ('A' for Active; 'I' for Inactive)
REMARK    1  A    between atoms: C_1  and  C_2
REMARK    2  A    between atoms: C_4  and  C_5
REMARK    3  A    between atoms: N_6  and  C_7
REMARK    4  A    between atoms: C_11  and  N_12
REMARK    5  A    between atoms: C_13  and  C_15
REMARK                            x       y       z     vdW  Elec       q    Type
REMARK                         _______ _______ _______ _____ _____    ______ ____
ROOT
ATOM      1  N   UNL     1       1.484   8.860  19.145  0.00  0.00    +0.000 N 
ATOM      2  C   UNL     1       1.833   7.801  19.978  0.00  0.00    +0.000 C 
ATOM      3  O   UNL     1       1.459   7.638  21.133  0.00  0.00    +0.000 OA
ATOM      4  H   UNL     1       1.718   8.778  18.162  0.00  0.00    +0.000 HD
ENDROOT
BRANCH   2   5
ATOM      5  C   UNL     1       2.766   6.758  19.362  0.00  0.00    +0.000 C 
ATOM      6  C   UNL     1       2.933   7.051  17.869  0.00  0.00    +0.000 C 
ATOM      7  C   UNL     1       4.084   6.199  17.401  0.00  0.00    +0.000 C 
ATOM      8  O   UNL     1       5.022   6.615  16.728  0.00  0.00    +0.000 OA
ATOM      9  N   UNL     1       3.929   4.864  17.712  0.00  0.00    +0.000 N 
ATOM     10  C   UNL     1       2.857   4.425  18.505  0.00  0.00    +0.000 A 
ATOM     11  C   UNL     1       2.249   3.206  18.258  0.00  0.00    +0.000 A 
ATOM     12  C   UNL     1       1.109   2.869  18.986  0.00  0.00    +0.000 A 
ATOM     13  C   UNL     1       0.708   3.647  20.076  0.00  0.00    +0.000 A 
ATOM     14  C   UNL     1       1.361   4.843  20.359  0.00  0.00    +0.000 A 
ATOM     15  C   UNL     1       2.326   5.307  19.462  0.00  0.00    +0.000 A 
ATOM     16  H   UNL     1       4.584   4.206  17.306  0.00  0.00    +0.000 HD
ENDBRANCH   2   5
BRANCH   1  21
ATOM     17  C   UNL     1      -1.533  11.028  18.973  0.00  0.00    +0.000 A 
ATOM     18  C   UNL     1      -1.382  11.774  20.152  0.00  0.00    +0.000 A 
ATOM     19  C   UNL     1      -0.296  11.559  20.992  0.00  0.00    +0.000 A 
ATOM     20  C   UNL     1       0.658  10.595  20.670  0.00  0.00    +0.000 A 
ATOM     21  C   UNL     1       0.553   9.864  19.490  0.00  0.00    +0.000 A 
ATOM     22  C   UNL     1      -0.529  10.104  18.623  0.00  0.00    +0.000 A 
BRANCH  17  28
ATOM     23  C   UNL     1      -6.090  12.456  18.254  0.00  0.00    +0.000 C 
ATOM     24  C   UNL     1      -4.775  11.852  17.920  0.00  0.00    +0.000 A 
ATOM     25  C   UNL     1      -4.408  11.173  16.755  0.00  0.00    +0.000 A 
ATOM     26  C   UNL     1      -3.114  10.738  16.969  0.00  0.00    +0.000 A 
ATOM     27  C   UNL     1      -2.319   9.837  16.097  0.00  0.00    +0.000 C 
ATOM     28  N   UNL     1      -2.740  11.209  18.224  0.00  0.00    +0.000 N 
ATOM     29  N   UNL     1      -3.780  11.875  18.806  0.00  0.00    +0.000 NA
ENDBRANCH  17  28
ENDBRANCH   1  21
TORSDOF 3
ENDMDL
MODEL 9
REMARK VINA RESULT:      -8.9      1.514      2.910
REMARK  Name = 
REMARK  5 active torsions:
REMARK  status: ('A' for Active; 'I' for Inactive)
REMARK    1  A    between atoms: C_1  and  C_2
REMARK    2  A    between atoms: C_4  and  C_5
REMARK    3  A    between atoms: N_6  and  C_7
REMARK    4  A    between atoms: C_11  and  N_12
REMARK    5  A    between atoms: C_13  and  C_15
REMARK                            x       y       z     vdW  Elec       q    Type
REMARK                         _______ _______ _______ _____ _____    ______ ____
ROOT
ATOM      1  N   UNL     1       2.390   6.944  20.115  0.00  0.00    +0.000 N 
ATOM      2  C   UNL     1       2.605   6.647  18.772  0.00  0.00    +0.000 C 
ATOM      3  O   UNL     1       2.139   7.252  17.815  0.00  0.00    +0.000 OA
ATOM      4  H   UNL     1       2.976   6.476  20.797  0.00  0.00    +0.000 HD
ENDROOT
BRANCH   2   5
ATOM      5  C   UNL     1       3.516   5.450  18.500  0.00  0.00    +0.000 C 
ATOM      6  C   UNL     1       3.729   4.673  19.802  0.00  0.00    +0.000 C 
ATOM      7  C   UNL     1       4.361   3.362  19.410  0.00  0.00    +0.000 C 
ATOM      8  O   UNL     1       3.976   2.265  19.804  0.00  0.00    +0.000 OA
ATOM      9  N   UNL     1       5.495   3.518  18.641  0.00  0.00    +0.000 N 
ATOM     10  C   UNL     1       5.893   4.786  18.186  0.00  0.00    +0.000 A 
ATOM     11  C   UNL     1       7.235   5.113  18.094  0.00  0.00    +0.000 A 
ATOM     12  C   UNL     1       7.581   6.422  17.761  0.00  0.00    +0.000 A 
ATOM     13  C   UNL     1       6.605   7.326  17.333  0.00  0.00    +0.000 A 
ATOM     14  C   UNL     1       5.259   6.972  17.370  0.00  0.00    +0.000 A 
ATOM     15  C   UNL     1       4.903   5.758  17.961  0.00  0.00    +0.000 A 
ATOM     16  H   UNL     1       6.059   2.696  18.460  0.00  0.00    +0.000 HD
ENDBRANCH   2   5
BRANCH   1  21
ATOM     17  C   UNL     1       0.319  10.032  20.020  0.00  0.00    +0.000 A 
ATOM     18  C   UNL     1       0.149  10.271  21.392  0.00  0.00    +0.000 A 
ATOM     19  C   UNL     1       0.711   9.418  22.335  0.00  0.00    +0.000 A 
ATOM     20  C   UNL     1       1.454   8.312  21.924  0.00  0.00    +0.000 A 
ATOM     21  C   UNL     1       1.668   8.070  20.569  0.00  0.00    +0.000 A 
ATOM     22  C   UNL     1       1.126   8.951  19.615  0.00  0.00    +0.000 A 
BRANCH  17  28
ATOM     23  C   UNL     1      -2.969  11.048  16.633  0.00  0.00    +0.000 C 
ATOM     24  C   UNL     1      -1.869  11.308  17.595  0.00  0.00    +0.000 A 
ATOM     25  C   UNL     1      -1.144  12.489  17.778  0.00  0.00    +0.000 A 
ATOM     26  C   UNL     1      -0.183  12.194  18.726  0.00  0.00    +0.000 A 
ATOM     27  C   UNL     1       0.938  13.064  19.162  0.00  0.00    +0.000 C 
ATOM     28  N   UNL     1      -0.396  10.872  19.107  0.00  0.00    +0.000 N 
ATOM     29  N   UNL     1      -1.424  10.334  18.388  0.00  0.00    +0.000 NA
ENDBRANCH  17  28
ENDBRANCH   1  21
TORSDOF 3
ENDMDL
