MODEL 1
REMARK VINA RESULT:      -8.4      0.000      0.000
REMARK  Name = 
REMARK  7 active torsions:
REMARK  status: ('A' for Active; 'I' for Inactive)
REMARK    1  A    between atoms: C_1  and  N_2
REMARK    2  A    between atoms: C_6  and  C_7
REMARK    3  A    between atoms: C_7  and  C_8
REMARK    4  A    between atoms: C_8  and  C_9
REMARK    5  A    between atoms: C_13  and  C_14
REMARK    6  A    between atoms: C_14  and  C_15
REMARK    7  A    between atoms: C_17  and  C_18
REMARK                            x       y       z     vdW  Elec       q    Type
REMARK                         _______ _______ _______ _____ _____    ______ ____
ROOT
ATOM      1  C   UNL     1       4.005   4.769  17.425  0.00  0.00    +0.000 A 
ATOM      2  C   UNL     1       3.352   3.588  17.016  0.00  0.00    +0.000 A 
ATOM      3  C   UNL     1       2.169   3.149  17.612  0.00  0.00    +0.000 A 
ATOM      4  C   UNL     1       1.621   3.862  18.670  0.00  0.00    +0.000 A 
ATOM      5  C   UNL     1       2.268   5.003  19.153  0.00  0.00    +0.000 A 
ATOM      6  C   UNL     1       3.430   5.458  18.511  0.00  0.00    +0.000 A 
ENDROOT
BRANCH   1   7
ATOM      7  C   UNL     1       5.315   5.315  16.677  0.00  0.00    +0.000 C 
ATOM      8  C   UNL     1       5.226   6.653  15.887  0.00  0.00    +0.000 C 
ATOM      9  O   UNL     1       6.274   7.257  16.675  0.00  0.00    +0.000 OA
ATOM     10  C   UNL     1       6.323   6.115  17.550  0.00  0.00    +0.000 C 
BRANCH   7  11
ATOM     11  C   UNL     1       5.986   4.152  15.916  0.00  0.00    +0.000 C 
BRANCH  11  17
ATOM     12  C   UNL     1       5.312   3.467  12.894  0.00  0.00    +0.000 C 
ATOM     13  N   UNL     1       6.411   4.252  13.388  0.00  0.00    +0.000 N 
ATOM     14  C   UNL     1       7.369   4.831  12.611  0.00  0.00    +0.000 A 
ATOM     15  N   UNL     1       8.189   5.513  13.362  0.00  0.00    +0.000 NA
ATOM     16  N   UNL     1       7.784   5.365  14.667  0.00  0.00    +0.000 NA
ATOM     17  C   UNL     1       6.713   4.592  14.685  0.00  0.00    +0.000 A 
ENDBRANCH  11  17
ENDBRANCH   7  11
ENDBRANCH   1   7
BRANCH   5  18
ATOM     18  C   UNL     1       1.886   5.573  20.501  0.00  0.00    +0.000 C 
BRANCH  18  19
ATOM     19  C   UNL     1       1.827   7.039  20.334  0.00  0.00    +0.000 C 
ATOM     20  N   UNL     1       1.972   7.834  19.333  0.00  0.00    +0.000 NA
ATOM     21  C   UNL     1       1.270   8.852  20.053  0.00  0.00    +0.000 C 
ATOM     22  C   UNL     1       1.222   8.064  21.148  0.00  0.00    +0.000 C 
BRANCH  21  23
ATOM     23  C   UNL     1       0.699  10.220  19.683  0.00  0.00    +0.000 C 
ATOM     24  F   UNL     1       1.005  11.198  20.565  0.00  0.00    +0.000 F 
ATOM     25  F   UNL     1       1.153  10.608  18.458  0.00  0.00    +0.000 F 
ATOM     26  F   UNL     1      -0.653  10.173  19.555  0.00  0.00    +0.000 F 
ENDBRANCH  21  23
ENDBRANCH  18  19
ENDBRANCH   5  18
TORSDOF 6
ENDMDL
MODEL 2
REMARK VINA RESULT:      -8.3      2.459      3.839
REMARK  Name = 
REMARK  7 active torsions:
REMARK  status: ('A' for Active; 'I' for Inactive)
REMARK    1  A    between atoms: C_1  and  N_2
REMARK    2  A    between atoms: C_6  and  C_7
REMARK    3  A    between atoms: C_7  and  C_8
REMARK    4  A    between atoms: C_8  and  C_9
REMARK    5  A    between atoms: C_13  and  C_14
REMARK    6  A    between atoms: C_14  and  C_15
REMARK    7  A    between atoms: C_17  and  C_18
REMARK                            x       y       z     vdW  Elec       q    Type
REMARK                         _______ _______ _______ _____ _____    ______ ____
ROOT
ATOM      1  C   UNL     1       2.658   5.165  18.919  0.00  0.00    +0.000 A 
ATOM      2  C   UNL     1       2.277   5.335  20.266  0.00  0.00    +0.000 A 
ATOM      3  C   UNL     1       1.841   6.563  20.765  0.00  0.00    +0.000 A 
ATOM      4  C   UNL     1       1.811   7.676  19.934  0.00  0.00    +0.000 A 
ATOM      5  C   UNL     1       2.241   7.569  18.608  0.00  0.00    +0.000 A 
ATOM      6  C   UNL     1       2.630   6.317  18.110  0.00  0.00    +0.000 A 
ENDROOT
BRANCH   1   7
ATOM      7  C   UNL     1       3.073   3.730  18.332  0.00  0.00    +0.000 C 
ATOM      8  C   UNL     1       3.506   2.609  19.321  0.00  0.00    +0.000 C 
ATOM      9  O   UNL     1       2.464   1.720  18.863  0.00  0.00    +0.000 OA
ATOM     10  C   UNL     1       1.906   2.749  18.025  0.00  0.00    +0.000 C 
BRANCH   7  11
ATOM     11  C   UNL     1       4.010   3.930  17.122  0.00  0.00    +0.000 C 
BRANCH  11  17
ATOM     12  C   UNL     1       6.523   4.316  15.227  0.00  0.00    +0.000 C 
ATOM     13  N   UNL     1       6.496   4.363  16.665  0.00  0.00    +0.000 N 
ATOM     14  C   UNL     1       7.583   4.576  17.459  0.00  0.00    +0.000 A 
ATOM     15  N   UNL     1       7.211   4.612  18.709  0.00  0.00    +0.000 NA
ATOM     16  N   UNL     1       5.855   4.393  18.749  0.00  0.00    +0.000 NA
ATOM     17  C   UNL     1       5.423   4.231  17.512  0.00  0.00    +0.000 A 
ENDBRANCH  11  17
ENDBRANCH   7  11
ENDBRANCH   1   7
BRANCH   5  18
ATOM     18  C   UNL     1       2.545   8.819  17.812  0.00  0.00    +0.000 C 
BRANCH  18  19
ATOM     19  C   UNL     1       1.403   9.733  18.015  0.00  0.00    +0.000 C 
ATOM     20  N   UNL     1       0.126   9.612  17.906  0.00  0.00    +0.000 NA
ATOM     21  C   UNL     1      -0.045  10.758  18.745  0.00  0.00    +0.000 C 
ATOM     22  C   UNL     1       1.291  10.961  18.763  0.00  0.00    +0.000 C 
BRANCH  21  23
ATOM     23  C   UNL     1      -1.243  11.405  19.437  0.00  0.00    +0.000 C 
ATOM     24  F   UNL     1      -1.311  11.154  20.764  0.00  0.00    +0.000 F 
ATOM     25  F   UNL     1      -1.212  12.757  19.272  0.00  0.00    +0.000 F 
ATOM     26  F   UNL     1      -2.413  11.010  18.871  0.00  0.00    +0.000 F 
ENDBRANCH  21  23
ENDBRANCH  18  19
ENDBRANCH   5  18
TORSDOF 6
ENDMDL
MODEL 3
REMARK VINA RESULT:      -8.2      3.644      5.445
REMARK  Name = 
REMARK  7 active torsions:
REMARK  status: ('A' for Active; 'I' for Inactive)
REMARK    1  A    between atoms: C_1  and  N_2
REMARK    2  A    between atoms: C_6  and  C_7
REMARK    3  A    between atoms: C_7  and  C_8
REMARK    4  A    between atoms: C_8  and  C_9
REMARK    5  A    between atoms: C_13  and  C_14
REMARK    6  A    between atoms: C_14  and  C_15
REMARK    7  A    between atoms: C_17  and  C_18
REMARK                            x       y       z     vdW  Elec       q    Type
REMARK                         _______ _______ _______ _____ _____    ______ ____
ROOT
ATOM      1  C   UNL     1       2.236   7.363  19.256  0.00  0.00    +0.000 A 
ATOM      2  C   UNL     1       1.888   7.187  20.611  0.00  0.00    +0.000 A 
ATOM      3  C   UNL     1       1.098   8.107  21.301  0.00  0.00    +0.000 A 
ATOM      4  C   UNL     1       0.660   9.260  20.662  0.00  0.00    +0.000 A 
ATOM      5  C   UNL     1       1.033   9.508  19.338  0.00  0.00    +0.000 A 
ATOM      6  C   UNL     1       1.789   8.550  18.645  0.00  0.00    +0.000 A 
ENDROOT
BRANCH   1   7
ATOM      7  C   UNL     1       3.070   6.258  18.445  0.00  0.00    +0.000 C 
ATOM      8  C   UNL     1       4.240   6.722  17.531  0.00  0.00    +0.000 C 
ATOM      9  O   UNL     1       5.199   5.913  18.247  0.00  0.00    +0.000 OA
ATOM     10  C   UNL     1       4.211   5.547  19.227  0.00  0.00    +0.000 C 
BRANCH   7  11
ATOM     11  C   UNL     1       2.089   5.260  17.794  0.00  0.00    +0.000 C 
BRANCH  11  17
ATOM     12  C   UNL     1       0.994   3.588  20.255  0.00  0.00    +0.000 C 
ATOM     13  N   UNL     1       1.909   3.147  19.237  0.00  0.00    +0.000 N 
ATOM     14  C   UNL     1       2.474   1.908  19.178  0.00  0.00    +0.000 A 
ATOM     15  N   UNL     1       3.212   1.814  18.106  0.00  0.00    +0.000 NA
ATOM     16  N   UNL     1       3.158   3.023  17.453  0.00  0.00    +0.000 NA
ATOM     17  C   UNL     1       2.378   3.834  18.143  0.00  0.00    +0.000 A 
ENDBRANCH  11  17
ENDBRANCH   7  11
ENDBRANCH   1   7
BRANCH   5  18
ATOM     18  C   UNL     1       0.868  10.896  18.756  0.00  0.00    +0.000 C 
BRANCH  18  19
ATOM     19  C   UNL     1      -0.493  10.950  18.185  0.00  0.00    +0.000 C 
ATOM     20  N   UNL     1      -1.206  10.137  17.488  0.00  0.00    +0.000 NA
ATOM     21  C   UNL     1      -2.385  10.843  17.888  0.00  0.00    +0.000 C 
ATOM     22  C   UNL     1      -1.632  11.769  18.521  0.00  0.00    +0.000 C 
BRANCH  21  23
ATOM     23  C   UNL     1      -3.884  10.580  17.756  0.00  0.00    +0.000 C 
ATOM     24  F   UNL     1      -4.382  10.849  16.528  0.00  0.00    +0.000 F 
ATOM     25  F   UNL     1      -4.162   9.277  18.041  0.00  0.00    +0.000 F 
ATOM     26  F   UNL     1      -4.592  11.296  18.667  0.00  0.00    +0.000 F 
ENDBRANCH  21  23
ENDBRANCH  18  19
ENDBRANCH   5  18
TORSDOF 6
ENDMDL
MODEL 4
REMARK VINA RESULT:      -8.2      3.910      5.640
REMARK  Name = 
REMARK  7 active torsions:
REMARK  status: ('A' for Active; 'I' for Inactive)
REMARK    1  A    between atoms: C_1  and  N_2
REMARK    2  A    between atoms: C_6  and  C_7
REMARK    3  A    between atoms: C_7  and  C_8
REMARK    4  A    between atoms: C_8  and  C_9
REMARK    5  A    between atoms: C_13  and  C_14
REMARK    6  A    between atoms: C_14  and  C_15
REMARK    7  A    between atoms: C_17  and  C_18
REMARK                            x       y       z     vdW  Elec       q    Type
REMARK                         _______ _______ _______ _____ _____    ______ ____
ROOT
ATOM      1  C   UNL     1       2.242   7.372  19.284  0.00  0.00    +0.000 A 
ATOM      2  C   UNL     1       1.895   7.251  20.646  0.00  0.00    +0.000 A 
ATOM      3  C   UNL     1       1.110   8.201  21.300  0.00  0.00    +0.000 A 
ATOM      4  C   UNL     1       0.677   9.330  20.616  0.00  0.00    +0.000 A 
ATOM      5  C   UNL     1       1.051   9.525  19.283  0.00  0.00    +0.000 A 
ATOM      6  C   UNL     1       1.801   8.537  18.628  0.00  0.00    +0.000 A 
ENDROOT
BRANCH   1   7
ATOM      7  C   UNL     1       3.070   6.232  18.517  0.00  0.00    +0.000 C 
ATOM      8  C   UNL     1       4.217   6.655  17.554  0.00  0.00    +0.000 C 
ATOM      9  O   UNL     1       5.198   5.895  18.292  0.00  0.00    +0.000 OA
ATOM     10  C   UNL     1       4.234   5.574  19.311  0.00  0.00    +0.000 C 
BRANCH   7  11
ATOM     11  C   UNL     1       2.085   5.192  17.940  0.00  0.00    +0.000 C 
BRANCH  11  17
ATOM     12  C   UNL     1       3.360   2.292  17.819  0.00  0.00    +0.000 C 
ATOM     13  N   UNL     1       2.389   2.781  18.761  0.00  0.00    +0.000 N 
ATOM     14  C   UNL     1       1.840   2.047  19.770  0.00  0.00    +0.000 A 
ATOM     15  N   UNL     1       1.037   2.799  20.471  0.00  0.00    +0.000 NA
ATOM     16  N   UNL     1       1.031   4.050  19.902  0.00  0.00    +0.000 NA
ATOM     17  C   UNL     1       1.841   4.037  18.859  0.00  0.00    +0.000 A 
ENDBRANCH  11  17
ENDBRANCH   7  11
ENDBRANCH   1   7
BRANCH   5  18
ATOM     18  C   UNL     1       0.892  10.889  18.649  0.00  0.00    +0.000 C 
BRANCH  18  19
ATOM     19  C   UNL     1      -0.487  10.947  18.122  0.00  0.00    +0.000 C 
ATOM     20  N   UNL     1      -1.232  10.126  17.468  0.00  0.00    +0.000 NA
ATOM     21  C   UNL     1      -2.388  10.857  17.889  0.00  0.00    +0.000 C 
ATOM     22  C   UNL     1      -1.604  11.788  18.474  0.00  0.00    +0.000 C 
BRANCH  21  23
ATOM     23  C   UNL     1      -3.894  10.610  17.814  0.00  0.00    +0.000 C 
ATOM     24  F   UNL     1      -4.617  11.364  18.672  0.00  0.00    +0.000 F 
ATOM     25  F   UNL     1      -4.352  10.859  16.555  0.00  0.00    +0.000 F 
ATOM     26  F   UNL     1      -4.191   9.304  18.042  0.00  0.00    +0.000 F 
ENDBRANCH  21  23
ENDBRANCH  18  19
ENDBRANCH   5  18
TORSDOF 6
ENDMDL
MODEL 5
REMARK VINA RESULT:      -8.2      3.998      5.784
REMARK  Name = 
REMARK  7 active torsions:
REMARK  status: ('A' for Active; 'I' for Inactive)
REMARK    1  A    between atoms: C_1  and  N_2
REMARK    2  A    between atoms: C_6  and  C_7
REMARK    3  A    between atoms: C_7  and  C_8
REMARK    4  A    between atoms: C_8  and  C_9
REMARK    5  A    between atoms: C_13  and  C_14
REMARK    6  A    between atoms: C_14  and  C_15
REMARK    7  A    between atoms: C_17  and  C_18
REMARK                            x       y       z     vdW  Elec       q    Type
REMARK                         _______ _______ _______ _____ _____    ______ ____
ROOT
ATOM      1  C   UNL     1       2.222   7.392  19.202  0.00  0.00    +0.000 A 
ATOM      2  C   UNL     1       2.058   7.400  20.602  0.00  0.00    +0.000 A 
ATOM      3  C   UNL     1       1.266   8.347  21.251  0.00  0.00    +0.000 A 
ATOM      4  C   UNL     1       0.641   9.347  20.518  0.00  0.00    +0.000 A 
ATOM      5  C   UNL     1       0.827   9.417  19.134  0.00  0.00    +0.000 A 
ATOM      6  C   UNL     1       1.588   8.429  18.491  0.00  0.00    +0.000 A 
ENDROOT
BRANCH   1   7
ATOM      7  C   UNL     1       3.062   6.247  18.454  0.00  0.00    +0.000 C 
ATOM      8  C   UNL     1       4.200   6.665  17.478  0.00  0.00    +0.000 C 
ATOM      9  O   UNL     1       5.193   5.933  18.228  0.00  0.00    +0.000 OA
ATOM     10  C   UNL     1       4.237   5.620  19.257  0.00  0.00    +0.000 C 
BRANCH   7  11
ATOM     11  C   UNL     1       2.089   5.183  17.903  0.00  0.00    +0.000 C 
BRANCH  11  17
ATOM     12  C   UNL     1       3.295   2.252  17.817  0.00  0.00    +0.000 C 
ATOM     13  N   UNL     1       2.362   2.785  18.773  0.00  0.00    +0.000 N 
ATOM     14  C   UNL     1       1.826   2.088  19.815  0.00  0.00    +0.000 A 
ATOM     15  N   UNL     1       1.060   2.874  20.519  0.00  0.00    +0.000 NA
ATOM     16  N   UNL     1       1.065   4.111  19.921  0.00  0.00    +0.000 NA
ATOM     17  C   UNL     1       1.845   4.055  18.856  0.00  0.00    +0.000 A 
ENDBRANCH  11  17
ENDBRANCH   7  11
ENDBRANCH   1   7
BRANCH   5  18
ATOM     18  C   UNL     1       0.454  10.679  18.387  0.00  0.00    +0.000 C 
BRANCH  18  19
ATOM     19  C   UNL     1      -1.016  10.793  18.467  0.00  0.00    +0.000 C 
ATOM     20  N   UNL     1      -1.824  11.709  18.869  0.00  0.00    +0.000 NA
ATOM     21  C   UNL     1      -2.874  11.104  18.108  0.00  0.00    +0.000 C 
ATOM     22  C   UNL     1      -2.063  10.075  17.782  0.00  0.00    +0.000 C 
BRANCH  21  23
ATOM     23  C   UNL     1      -4.292  11.523  17.723  0.00  0.00    +0.000 C 
ATOM     24  F   UNL     1      -4.394  12.025  16.471  0.00  0.00    +0.000 F 
ATOM     25  F   UNL     1      -5.141  10.461  17.815  0.00  0.00    +0.000 F 
ATOM     26  F   UNL     1      -4.787  12.444  18.590  0.00  0.00    +0.000 F 
ENDBRANCH  21  23
ENDBRANCH  18  19
ENDBRANCH   5  18
TORSDOF 6
ENDMDL
MODEL 6
REMARK VINA RESULT:      -8.2      2.842      4.120
REMARK  Name = 
REMARK  7 active torsions:
REMARK  status: ('A' for Active; 'I' for Inactive)
REMARK    1  A    between atoms: C_1  and  N_2
REMARK    2  A    between atoms: C_6  and  C_7
REMARK    3  A    between atoms: C_7  and  C_8
REMARK    4  A    between atoms: C_8  and  C_9
REMARK    5  A    between atoms: C_13  and  C_14
REMARK    6  A    between atoms: C_14  and  C_15
REMARK    7  A    between atoms: C_17  and  C_18
REMARK                            x       y       z     vdW  Elec       q    Type
REMARK                         _______ _______ _______ _____ _____    ______ ____
ROOT
ATOM      1  C   UNL     1       2.943   5.164  18.757  0.00  0.00    +0.000 A 
ATOM      2  C   UNL     1       2.578   5.181  20.119  0.00  0.00    +0.000 A 
ATOM      3  C   UNL     1       2.011   6.305  20.721  0.00  0.00    +0.000 A 
ATOM      4  C   UNL     1       1.825   7.466  19.983  0.00  0.00    +0.000 A 
ATOM      5  C   UNL     1       2.231   7.516  18.646  0.00  0.00    +0.000 A 
ATOM      6  C   UNL     1       2.756   6.363  18.044  0.00  0.00    +0.000 A 
ENDROOT
BRANCH   1   7
ATOM      7  C   UNL     1       3.512   3.841  18.050  0.00  0.00    +0.000 C 
ATOM      8  C   UNL     1       3.558   2.514  18.862  0.00  0.00    +0.000 C 
ATOM      9  O   UNL     1       2.725   1.828  17.903  0.00  0.00    +0.000 OA
ATOM     10  C   UNL     1       2.508   3.046  17.168  0.00  0.00    +0.000 C 
BRANCH   7  11
ATOM     11  C   UNL     1       4.814   4.189  17.296  0.00  0.00    +0.000 C 
BRANCH  11  17
ATOM     12  C   UNL     1       6.404   6.875  16.742  0.00  0.00    +0.000 C 
ATOM     13  N   UNL     1       6.533   6.001  17.878  0.00  0.00    +0.000 N 
ATOM     14  C   UNL     1       7.394   6.193  18.917  0.00  0.00    +0.000 A 
ATOM     15  N   UNL     1       7.225   5.251  19.804  0.00  0.00    +0.000 NA
ATOM     16  N   UNL     1       6.252   4.402  19.334  0.00  0.00    +0.000 NA
ATOM     17  C   UNL     1       5.840   4.850  18.162  0.00  0.00    +0.000 A 
ENDBRANCH  11  17
ENDBRANCH   7  11
ENDBRANCH   1   7
BRANCH   5  18
ATOM     18  C   UNL     1       2.362   8.852  17.948  0.00  0.00    +0.000 C 
BRANCH  18  19
ATOM     19  C   UNL     1       1.263   9.698  18.455  0.00  0.00    +0.000 C 
ATOM     20  N   UNL     1       1.209  10.762  19.175  0.00  0.00    +0.000 NA
ATOM     21  C   UNL     1      -0.108  11.021  18.677  0.00  0.00    +0.000 C 
ATOM     22  C   UNL     1      -0.103   9.844  18.014  0.00  0.00    +0.000 C 
BRANCH  21  23
ATOM     23  C   UNL     1      -1.068  12.206  18.762  0.00  0.00    +0.000 C 
ATOM     24  F   UNL     1      -2.251  11.912  19.346  0.00  0.00    +0.000 F 
ATOM     25  F   UNL     1      -0.500  13.226  19.464  0.00  0.00    +0.000 F 
ATOM     26  F   UNL     1      -1.319  12.726  17.532  0.00  0.00    +0.000 F 
ENDBRANCH  21  23
ENDBRANCH  18  19
ENDBRANCH   5  18
TORSDOF 6
ENDMDL
MODEL 7
REMARK VINA RESULT:      -8.1      4.357      7.524
REMARK  Name = 
REMARK  7 active torsions:
REMARK  status: ('A' for Active; 'I' for Inactive)
REMARK    1  A    between atoms: C_1  and  N_2
REMARK    2  A    between atoms: C_6  and  C_7
REMARK    3  A    between atoms: C_7  and  C_8
REMARK    4  A    between atoms: C_8  and  C_9
REMARK    5  A    between atoms: C_13  and  C_14
REMARK    6  A    between atoms: C_14  and  C_15
REMARK    7  A    between atoms: C_17  and  C_18
REMARK                            x       y       z     vdW  Elec       q    Type
REMARK                         _______ _______ _______ _____ _____    ______ ____
ROOT
ATOM      1  C   UNL     1       4.175   5.901  18.533  0.00  0.00    +0.000 A 
ATOM      2  C   UNL     1       4.650   5.033  19.537  0.00  0.00    +0.000 A 
ATOM      3  C   UNL     1       5.975   4.598  19.577  0.00  0.00    +0.000 A 
ATOM      4  C   UNL     1       6.863   4.991  18.584  0.00  0.00    +0.000 A 
ATOM      5  C   UNL     1       6.421   5.800  17.533  0.00  0.00    +0.000 A 
ATOM      6  C   UNL     1       5.098   6.267  17.534  0.00  0.00    +0.000 A 
ENDROOT
BRANCH   1   7
ATOM      7  C   UNL     1       2.674   6.467  18.543  0.00  0.00    +0.000 C 
ATOM      8  C   UNL     1       2.169   7.237  19.798  0.00  0.00    +0.000 C 
ATOM      9  O   UNL     1       1.869   8.419  19.025  0.00  0.00    +0.000 OA
ATOM     10  C   UNL     1       2.451   7.838  17.844  0.00  0.00    +0.000 C 
BRANCH   7  11
ATOM     11  C   UNL     1       1.717   5.374  18.020  0.00  0.00    +0.000 C 
BRANCH  11  17
ATOM     12  C   UNL     1       2.670   2.387  17.553  0.00  0.00    +0.000 C 
ATOM     13  N   UNL     1       1.985   2.917  18.702  0.00  0.00    +0.000 N 
ATOM     14  C   UNL     1       1.619   2.191  19.796  0.00  0.00    +0.000 A 
ATOM     15  N   UNL     1       1.065   2.978  20.677  0.00  0.00    +0.000 NA
ATOM     16  N   UNL     1       1.040   4.247  20.149  0.00  0.00    +0.000 NA
ATOM     17  C   UNL     1       1.587   4.208  18.948  0.00  0.00    +0.000 A 
ENDBRANCH  11  17
ENDBRANCH   7  11
ENDBRANCH   1   7
BRANCH   5  18
ATOM     18  C   UNL     1       7.264   5.940  16.284  0.00  0.00    +0.000 C 
BRANCH  18  19
ATOM     19  C   UNL     1       6.538   5.232  15.210  0.00  0.00    +0.000 C 
ATOM     20  N   UNL     1       6.144   5.557  14.029  0.00  0.00    +0.000 NA
ATOM     21  C   UNL     1       6.051   4.170  13.689  0.00  0.00    +0.000 C 
ATOM     22  C   UNL     1       6.346   3.824  14.961  0.00  0.00    +0.000 C 
BRANCH  21  23
ATOM     23  C   UNL     1       5.832   3.402  12.386  0.00  0.00    +0.000 C 
ATOM     24  F   UNL     1       4.594   3.553  11.863  0.00  0.00    +0.000 F 
ATOM     25  F   UNL     1       6.732   3.801  11.445  0.00  0.00    +0.000 F 
ATOM     26  F   UNL     1       6.064   2.074  12.552  0.00  0.00    +0.000 F 
ENDBRANCH  21  23
ENDBRANCH  18  19
ENDBRANCH   5  18
TORSDOF 6
ENDMDL
MODEL 8
REMARK VINA RESULT:      -8.0      4.495      7.511
REMARK  Name = 
REMARK  7 active torsions:
REMARK  status: ('A' for Active; 'I' for Inactive)
REMARK    1  A    between atoms: C_1  and  N_2
REMARK    2  A    between atoms: C_6  and  C_7
REMARK    3  A    between atoms: C_7  and  C_8
REMARK    4  A    between atoms: C_8  and  C_9
REMARK    5  A    between atoms: C_13  and  C_14
REMARK    6  A    between atoms: C_14  and  C_15
REMARK    7  A    between atoms: C_17  and  C_18
REMARK                            x       y       z     vdW  Elec       q    Type
REMARK                         _______ _______ _______ _____ _____    ______ ____
ROOT
ATOM      1  C   UNL     1       4.044   5.891  18.426  0.00  0.00    +0.000 A 
ATOM      2  C   UNL     1       4.622   4.900  19.245  0.00  0.00    +0.000 A 
ATOM      3  C   UNL     1       5.944   4.482  19.085  0.00  0.00    +0.000 A 
ATOM      4  C   UNL     1       6.722   5.020  18.068  0.00  0.00    +0.000 A 
ATOM      5  C   UNL     1       6.171   5.960  17.191  0.00  0.00    +0.000 A 
ATOM      6  C   UNL     1       4.856   6.403  17.395  0.00  0.00    +0.000 A 
ENDROOT
BRANCH   1   7
ATOM      7  C   UNL     1       2.553   6.429  18.672  0.00  0.00    +0.000 C 
ATOM      8  C   UNL     1       2.105   6.768  20.123  0.00  0.00    +0.000 C 
ATOM      9  O   UNL     1       1.795   8.134  19.773  0.00  0.00    +0.000 OA
ATOM     10  C   UNL     1       2.324   7.951  18.447  0.00  0.00    +0.000 C 
BRANCH   7  11
ATOM     11  C   UNL     1       1.561   5.558  17.871  0.00  0.00    +0.000 C 
BRANCH  11  17
ATOM     12  C   UNL     1       0.864   3.650  20.305  0.00  0.00    +0.000 C 
ATOM     13  N   UNL     1       1.537   3.298  19.083  0.00  0.00    +0.000 N 
ATOM     14  C   UNL     1       2.003   2.054  18.778  0.00  0.00    +0.000 A 
ATOM     15  N   UNL     1       2.512   2.060  17.577  0.00  0.00    +0.000 NA
ATOM     16  N   UNL     1       2.407   3.338  17.083  0.00  0.00    +0.000 NA
ATOM     17  C   UNL     1       1.825   4.092  17.998  0.00  0.00    +0.000 A 
ENDBRANCH  11  17
ENDBRANCH   7  11
ENDBRANCH   1   7
BRANCH   5  18
ATOM     18  C   UNL     1       6.876   6.281  15.891  0.00  0.00    +0.000 C 
BRANCH  18  19
ATOM     19  C   UNL     1       6.647   5.129  14.996  0.00  0.00    +0.000 C 
ATOM     20  N   UNL     1       5.605   4.462  14.641  0.00  0.00    +0.000 NA
ATOM     21  C   UNL     1       6.313   3.987  13.491  0.00  0.00    +0.000 C 
ATOM     22  C   UNL     1       7.444   4.586  13.923  0.00  0.00    +0.000 C 
BRANCH  21  23
ATOM     23  C   UNL     1       5.911   3.223  12.231  0.00  0.00    +0.000 C 
ATOM     24  F   UNL     1       5.491   1.960  12.467  0.00  0.00    +0.000 F 
ATOM     25  F   UNL     1       4.911   3.878  11.578  0.00  0.00    +0.000 F 
ATOM     26  F   UNL     1       6.935   3.170  11.339  0.00  0.00    +0.000 F 
ENDBRANCH  21  23
ENDBRANCH  18  19
ENDBRANCH   5  18
TORSDOF 6
ENDMDL
MODEL 9
REMARK VINA RESULT:      -8.0      1.781      2.387
REMARK  Name = 
REMARK  7 active torsions:
REMARK  status: ('A' for Active; 'I' for Inactive)
REMARK    1  A    between atoms: C_1  and  N_2
REMARK    2  A    between atoms: C_6  and  C_7
REMARK    3  A    between atoms: C_7  and  C_8
REMARK    4  A    between atoms: C_8  and  C_9
REMARK    5  A    between atoms: C_13  and  C_14
REMARK    6  A    between atoms: C_14  and  C_15
REMARK    7  A    between atoms: C_17  and  C_18
REMARK                            x       y       z     vdW  Elec       q    Type
REMARK                         _______ _______ _______ _____ _____    ______ ____
ROOT
ATOM      1  C   UNL     1       5.331   5.813  18.282  0.00  0.00    +0.000 A 
ATOM      2  C   UNL     1       4.649   4.714  18.844  0.00  0.00    +0.000 A 
ATOM      3  C   UNL     1       3.258   4.669  18.930  0.00  0.00    +0.000 A 
ATOM      4  C   UNL     1       2.501   5.746  18.488  0.00  0.00    +0.000 A 
ATOM      5  C   UNL     1       3.136   6.885  17.983  0.00  0.00    +0.000 A 
ATOM      6  C   UNL     1       4.534   6.895  17.860  0.00  0.00    +0.000 A 
ENDROOT
BRANCH   1   7
ATOM      7  C   UNL     1       6.926   5.821  18.106  0.00  0.00    +0.000 C 
ATOM      8  C   UNL     1       7.628   7.141  17.676  0.00  0.00    +0.000 C 
ATOM      9  O   UNL     1       8.457   7.155  18.859  0.00  0.00    +0.000 OA
ATOM     10  C   UNL     1       7.760   6.019  19.403  0.00  0.00    +0.000 C 
BRANCH   7  11
ATOM     11  C   UNL     1       7.354   4.567  17.314  0.00  0.00    +0.000 C 
BRANCH  11  17
ATOM     12  C   UNL     1       4.904   3.221  15.817  0.00  0.00    +0.000 C 
ATOM     13  N   UNL     1       5.952   4.018  15.237  0.00  0.00    +0.000 N 
ATOM     14  C   UNL     1       6.064   4.317  13.911  0.00  0.00    +0.000 A 
ATOM     15  N   UNL     1       7.092   5.098  13.725  0.00  0.00    +0.000 NA
ATOM     16  N   UNL     1       7.691   5.302  14.945  0.00  0.00    +0.000 NA
ATOM     17  C   UNL     1       7.008   4.639  15.860  0.00  0.00    +0.000 A 
ENDBRANCH  11  17
ENDBRANCH   7  11
ENDBRANCH   1   7
BRANCH   5  18
ATOM     18  C   UNL     1       2.362   8.176  17.836  0.00  0.00    +0.000 C 
BRANCH  18  19
ATOM     19  C   UNL     1       1.613   8.361  19.095  0.00  0.00    +0.000 C 
ATOM     20  N   UNL     1       1.709   7.861  20.277  0.00  0.00    +0.000 NA
ATOM     21  C   UNL     1       0.963   8.968  20.794  0.00  0.00    +0.000 C 
ATOM     22  C   UNL     1       0.756   9.431  19.542  0.00  0.00    +0.000 C 
BRANCH  21  23
ATOM     23  C   UNL     1       0.645   9.478  22.199  0.00  0.00    +0.000 C 
ATOM     24  F   UNL     1       1.662   9.332  23.078  0.00  0.00    +0.000 F 
ATOM     25  F   UNL     1       0.317  10.799  22.159  0.00  0.00    +0.000 F 
ATOM     26  F   UNL     1      -0.451   8.860  22.711  0.00  0.00    +0.000 F 
ENDBRANCH  21  23
ENDBRANCH  18  19
ENDBRANCH   5  18
TORSDOF 6
ENDMDL
