MODEL 1
REMARK VINA RESULT:      -9.1      0.000      0.000
REMARK  Name = 
REMARK  6 active torsions:
REMARK  status: ('A' for Active; 'I' for Inactive)
REMARK    1  A    between atoms: C_1  and  C_2
REMARK    2  A    between atoms: C_7  and  C_8
REMARK    3  A    between atoms: C_12  and  S_13
REMARK    4  A    between atoms: S_13  and  N_16
REMARK    5  A    between atoms: C_18  and  C_19
REMARK    6  A    between atoms: C_21  and  C_22
REMARK                            x       y       z     vdW  Elec       q    Type
REMARK                         _______ _______ _______ _____ _____    ______ ____
ROOT
ATOM      1  C   UNL     1       2.003   6.104  20.292  0.00  0.00    +0.000 A 
ATOM      2  C   UNL     1       1.660   5.004  21.100  0.00  0.00    +0.000 A 
ATOM      3  C   UNL     1       2.186   3.740  20.844  0.00  0.00    +0.000 A 
ATOM      4  C   UNL     1       3.074   3.571  19.790  0.00  0.00    +0.000 A 
ATOM      5  C   UNL     1       3.442   4.663  18.986  0.00  0.00    +0.000 A 
ATOM      6  C   UNL     1       2.892   5.924  19.210  0.00  0.00    +0.000 A 
ENDROOT
BRANCH   1  13
ATOM      7  C   UNL     1      -1.367  12.032  23.001  0.00  0.00    +0.000 C 
ATOM      8  C   UNL     1      -0.549  11.128  22.128  0.00  0.00    +0.000 A 
ATOM      9  C   UNL     1      -0.001  11.677  20.887  0.00  0.00    +0.000 A 
ATOM     10  C   UNL     1       0.722  10.880  20.081  0.00  0.00    +0.000 A 
ATOM     11  N   UNL     1       0.930   9.551  20.450  0.00  0.00    +0.000 N 
ATOM     12  C   UNL     1       1.616   8.560  19.793  0.00  0.00    +0.000 A 
ATOM     13  C   UNL     1       1.486   7.435  20.586  0.00  0.00    +0.000 A 
ATOM     14  N   UNL     1       0.750   7.716  21.714  0.00  0.00    +0.000 NA
ATOM     15  C   UNL     1       0.427   8.989  21.614  0.00  0.00    +0.000 A 
ATOM     16  C   UNL     1      -0.334   9.836  22.468  0.00  0.00    +0.000 A 
ENDBRANCH   1  13
BRANCH   5  17
ATOM     17  S   UNL     1       4.732   4.329  17.820  0.00  0.00    +0.000 S 
ATOM     18  O   UNL     1       5.961   4.387  18.589  0.00  0.00    +0.000 OA
ATOM     19  O   UNL     1       4.352   3.105  17.149  0.00  0.00    +0.000 OA
BRANCH  17  20
ATOM     20  N   UNL     1       4.814   5.585  16.655  0.00  0.00    +0.000 NA
ATOM     21  C   UNL     1       5.348   5.230  15.292  0.00  0.00    +0.000 C 
ATOM     22  C   UNL     1       6.886   5.037  15.314  0.00  0.00    +0.000 C 
ATOM     23  C   UNL     1       7.446   4.778  13.922  0.00  0.00    +0.000 C 
ATOM     24  O   UNL     1       7.555   6.196  15.851  0.00  0.00    +0.000 OA
ATOM     25  C   UNL     1       7.093   6.486  17.185  0.00  0.00    +0.000 C 
ATOM     26  C   UNL     1       7.905   7.656  17.724  0.00  0.00    +0.000 C 
ATOM     27  C   UNL     1       5.584   6.793  17.150  0.00  0.00    +0.000 C 
ENDBRANCH  17  20
ENDBRANCH   5  17
TORSDOF 3
ENDMDL
MODEL 2
REMARK VINA RESULT:      -8.6      0.692      1.412
REMARK  Name = 
REMARK  6 active torsions:
REMARK  status: ('A' for Active; 'I' for Inactive)
REMARK    1  A    between atoms: C_1  and  C_2
REMARK    2  A    between atoms: C_7  and  C_8
REMARK    3  A    between atoms: C_12  and  S_13
REMARK    4  A    between atoms: S_13  and  N_16
REMARK    5  A    between atoms: C_18  and  C_19
REMARK    6  A    between atoms: C_21  and  C_22
REMARK                            x       y       z     vdW  Elec       q    Type
REMARK                         _______ _______ _______ _____ _____    ______ ____
ROOT
ATOM      1  C   UNL     1       1.988   6.388  20.188  0.00  0.00    +0.000 A 
ATOM      2  C   UNL     1       1.681   5.367  21.105  0.00  0.00    +0.000 A 
ATOM      3  C   UNL     1       2.223   4.092  20.960  0.00  0.00    +0.000 A 
ATOM      4  C   UNL     1       3.090   3.834  19.907  0.00  0.00    +0.000 A 
ATOM      5  C   UNL     1       3.422   4.848  18.993  0.00  0.00    +0.000 A 
ATOM      6  C   UNL     1       2.855   6.116  19.107  0.00  0.00    +0.000 A 
ENDROOT
BRANCH   1  13
ATOM      7  C   UNL     1       0.048  13.442  19.631  0.00  0.00    +0.000 C 
ATOM      8  C   UNL     1       0.236  12.050  20.154  0.00  0.00    +0.000 A 
ATOM      9  C   UNL     1      -0.202  11.760  21.519  0.00  0.00    +0.000 A 
ATOM     10  C   UNL     1      -0.029  10.522  22.014  0.00  0.00    +0.000 A 
ATOM     11  N   UNL     1       0.564   9.546  21.212  0.00  0.00    +0.000 N 
ATOM     12  C   UNL     1       0.848   8.236  21.499  0.00  0.00    +0.000 A 
ATOM     13  C   UNL     1       1.455   7.733  20.363  0.00  0.00    +0.000 A 
ATOM     14  N   UNL     1       1.537   8.700  19.386  0.00  0.00    +0.000 NA
ATOM     15  C   UNL     1       0.996   9.779  19.915  0.00  0.00    +0.000 A 
ATOM     16  C   UNL     1       0.808  11.089  19.392  0.00  0.00    +0.000 A 
ENDBRANCH   1  13
BRANCH   5  17
ATOM     17  S   UNL     1       4.691   4.421  17.834  0.00  0.00    +0.000 S 
ATOM     18  O   UNL     1       5.927   4.474  18.592  0.00  0.00    +0.000 OA
ATOM     19  O   UNL     1       4.267   3.182  17.222  0.00  0.00    +0.000 OA
BRANCH  17  20
ATOM     20  N   UNL     1       4.803   5.621  16.614  0.00  0.00    +0.000 NA
ATOM     21  C   UNL     1       5.372   5.203  15.283  0.00  0.00    +0.000 C 
ATOM     22  C   UNL     1       6.910   5.013  15.355  0.00  0.00    +0.000 C 
ATOM     23  C   UNL     1       7.505   4.689  13.992  0.00  0.00    +0.000 C 
ATOM     24  O   UNL     1       7.564   6.197  15.854  0.00  0.00    +0.000 OA
ATOM     25  C   UNL     1       7.068   6.549  17.160  0.00  0.00    +0.000 C 
ATOM     26  C   UNL     1       7.865   7.744  17.663  0.00  0.00    +0.000 C 
ATOM     27  C   UNL     1       5.560   6.852  17.071  0.00  0.00    +0.000 C 
ENDBRANCH  17  20
ENDBRANCH   5  17
TORSDOF 3
ENDMDL
MODEL 3
REMARK VINA RESULT:      -8.4      5.381      9.013
REMARK  Name = 
REMARK  6 active torsions:
REMARK  status: ('A' for Active; 'I' for Inactive)
REMARK    1  A    between atoms: C_1  and  C_2
REMARK    2  A    between atoms: C_7  and  C_8
REMARK    3  A    between atoms: C_12  and  S_13
REMARK    4  A    between atoms: S_13  and  N_16
REMARK    5  A    between atoms: C_18  and  C_19
REMARK    6  A    between atoms: C_21  and  C_22
REMARK                            x       y       z     vdW  Elec       q    Type
REMARK                         _______ _______ _______ _____ _____    ______ ____
ROOT
ATOM      1  C   UNL     1       1.052   9.105  20.033  0.00  0.00    +0.000 A 
ATOM      2  C   UNL     1       1.024   9.310  21.425  0.00  0.00    +0.000 A 
ATOM      3  C   UNL     1       0.143  10.227  21.993  0.00  0.00    +0.000 A 
ATOM      4  C   UNL     1      -0.730  10.933  21.175  0.00  0.00    +0.000 A 
ATOM      5  C   UNL     1      -0.728  10.726  19.786  0.00  0.00    +0.000 A 
ATOM      6  C   UNL     1       0.175   9.839  19.204  0.00  0.00    +0.000 A 
ENDROOT
BRANCH   1  13
ATOM      7  C   UNL     1       5.562   5.168  15.792  0.00  0.00    +0.000 C 
ATOM      8  C   UNL     1       4.680   5.599  16.926  0.00  0.00    +0.000 A 
ATOM      9  C   UNL     1       4.426   4.643  18.004  0.00  0.00    +0.000 A 
ATOM     10  C   UNL     1       3.626   5.001  19.023  0.00  0.00    +0.000 A 
ATOM     11  N   UNL     1       3.060   6.276  19.025  0.00  0.00    +0.000 N 
ATOM     12  C   UNL     1       2.216   6.855  19.940  0.00  0.00    +0.000 A 
ATOM     13  C   UNL     1       1.943   8.115  19.442  0.00  0.00    +0.000 A 
ATOM     14  N   UNL     1       2.607   8.326  18.255  0.00  0.00    +0.000 NA
ATOM     15  C   UNL     1       3.272   7.212  18.023  0.00  0.00    +0.000 A 
ATOM     16  C   UNL     1       4.123   6.831  16.948  0.00  0.00    +0.000 A 
ENDBRANCH   1  13
BRANCH   5  17
ATOM     17  S   UNL     1      -2.031  11.544  18.909  0.00  0.00    +0.000 S 
ATOM     18  O   UNL     1      -2.729  12.326  19.912  0.00  0.00    +0.000 OA
ATOM     19  O   UNL     1      -1.401  12.200  17.786  0.00  0.00    +0.000 OA
BRANCH  17  20
ATOM     20  N   UNL     1      -3.151  10.393  18.308  0.00  0.00    +0.000 NA
ATOM     21  C   UNL     1      -2.869   9.793  16.955  0.00  0.00    +0.000 C 
ATOM     22  C   UNL     1      -3.162  10.799  15.813  0.00  0.00    +0.000 C 
ATOM     23  C   UNL     1      -2.976  10.168  14.440  0.00  0.00    +0.000 C 
ATOM     24  O   UNL     1      -4.511  11.303  15.888  0.00  0.00    +0.000 OA
ATOM     25  C   UNL     1      -4.753  11.942  17.157  0.00  0.00    +0.000 C 
ATOM     26  C   UNL     1      -6.156  12.531  17.132  0.00  0.00    +0.000 C 
ATOM     27  C   UNL     1      -4.575  10.914  18.291  0.00  0.00    +0.000 C 
ENDBRANCH  17  20
ENDBRANCH   5  17
TORSDOF 3
ENDMDL
MODEL 4
REMARK VINA RESULT:      -8.2      5.385      8.918
REMARK  Name = 
REMARK  6 active torsions:
REMARK  status: ('A' for Active; 'I' for Inactive)
REMARK    1  A    between atoms: C_1  and  C_2
REMARK    2  A    between atoms: C_7  and  C_8
REMARK    3  A    between atoms: C_12  and  S_13
REMARK    4  A    between atoms: S_13  and  N_16
REMARK    5  A    between atoms: C_18  and  C_19
REMARK    6  A    between atoms: C_21  and  C_22
REMARK                            x       y       z     vdW  Elec       q    Type
REMARK                         _______ _______ _______ _____ _____    ______ ____
ROOT
ATOM      1  C   UNL     1       0.918   9.140  20.216  0.00  0.00    +0.000 A 
ATOM      2  C   UNL     1       1.024   9.606  21.539  0.00  0.00    +0.000 A 
ATOM      3  C   UNL     1       0.280  10.701  21.971  0.00  0.00    +0.000 A 
ATOM      4  C   UNL     1      -0.591  11.326  21.088  0.00  0.00    +0.000 A 
ATOM      5  C   UNL     1      -0.723  10.861  19.769  0.00  0.00    +0.000 A 
ATOM      6  C   UNL     1       0.046   9.791  19.316  0.00  0.00    +0.000 A 
ENDROOT
BRANCH   1  13
ATOM      7  C   UNL     1       4.400   2.719  19.532  0.00  0.00    +0.000 C 
ATOM      8  C   UNL     1       3.855   4.085  19.245  0.00  0.00    +0.000 A 
ATOM      9  C   UNL     1       4.229   4.727  17.984  0.00  0.00    +0.000 A 
ATOM     10  C   UNL     1       3.764   5.959  17.712  0.00  0.00    +0.000 A 
ATOM     11  N   UNL     1       2.937   6.592  18.640  0.00  0.00    +0.000 N 
ATOM     12  C   UNL     1       2.358   7.835  18.587  0.00  0.00    +0.000 A 
ATOM     13  C   UNL     1       1.664   7.969  19.775  0.00  0.00    +0.000 A 
ATOM     14  N   UNL     1       1.794   6.836  20.546  0.00  0.00    +0.000 NA
ATOM     15  C   UNL     1       2.560   6.022  19.847  0.00  0.00    +0.000 A 
ATOM     16  C   UNL     1       3.050   4.716  20.130  0.00  0.00    +0.000 A 
ENDBRANCH   1  13
BRANCH   5  17
ATOM     17  S   UNL     1      -2.015  11.630  18.833  0.00  0.00    +0.000 S 
ATOM     18  O   UNL     1      -2.726  12.464  19.785  0.00  0.00    +0.000 OA
ATOM     19  O   UNL     1      -1.371  12.226  17.685  0.00  0.00    +0.000 OA
BRANCH  17  20
ATOM     20  N   UNL     1      -3.127  10.447  18.281  0.00  0.00    +0.000 NA
ATOM     21  C   UNL     1      -2.867   9.829  16.932  0.00  0.00    +0.000 C 
ATOM     22  C   UNL     1      -3.208  10.810  15.780  0.00  0.00    +0.000 C 
ATOM     23  C   UNL     1      -3.044  10.158  14.413  0.00  0.00    +0.000 C 
ATOM     24  O   UNL     1      -4.564  11.289  15.881  0.00  0.00    +0.000 OA
ATOM     25  C   UNL     1      -4.787  11.946  17.144  0.00  0.00    +0.000 C 
ATOM     26  C   UNL     1      -6.201  12.508  17.145  0.00  0.00    +0.000 C 
ATOM     27  C   UNL     1      -4.561  10.941  18.291  0.00  0.00    +0.000 C 
ENDBRANCH  17  20
ENDBRANCH   5  17
TORSDOF 3
ENDMDL
MODEL 5
REMARK VINA RESULT:      -8.1      1.052      2.018
REMARK  Name = 
REMARK  6 active torsions:
REMARK  status: ('A' for Active; 'I' for Inactive)
REMARK    1  A    between atoms: C_1  and  C_2
REMARK    2  A    between atoms: C_7  and  C_8
REMARK    3  A    between atoms: C_12  and  S_13
REMARK    4  A    between atoms: S_13  and  N_16
REMARK    5  A    between atoms: C_18  and  C_19
REMARK    6  A    between atoms: C_21  and  C_22
REMARK                            x       y       z     vdW  Elec       q    Type
REMARK                         _______ _______ _______ _____ _____    ______ ____
ROOT
ATOM      1  C   UNL     1       1.885   6.802  20.257  0.00  0.00    +0.000 A 
ATOM      2  C   UNL     1       1.908   5.739  21.178  0.00  0.00    +0.000 A 
ATOM      3  C   UNL     1       2.506   4.524  20.851  0.00  0.00    +0.000 A 
ATOM      4  C   UNL     1       3.104   4.370  19.607  0.00  0.00    +0.000 A 
ATOM      5  C   UNL     1       3.107   5.428  18.683  0.00  0.00    +0.000 A 
ATOM      6  C   UNL     1       2.477   6.634  18.986  0.00  0.00    +0.000 A 
ENDROOT
BRANCH   1  13
ATOM      7  C   UNL     1      -1.682  12.427  23.332  0.00  0.00    +0.000 C 
ATOM      8  C   UNL     1      -0.874  11.597  22.380  0.00  0.00    +0.000 A 
ATOM      9  C   UNL     1      -0.472  12.200  21.109  0.00  0.00    +0.000 A 
ATOM     10  C   UNL     1       0.240  11.469  20.233  0.00  0.00    +0.000 A 
ATOM     11  N   UNL     1       0.575  10.155  20.560  0.00  0.00    +0.000 N 
ATOM     12  C   UNL     1       1.277   9.227  19.833  0.00  0.00    +0.000 A 
ATOM     13  C   UNL     1       1.297   8.086  20.614  0.00  0.00    +0.000 A 
ATOM     14  N   UNL     1       0.637   8.297  21.803  0.00  0.00    +0.000 NA
ATOM     15  C   UNL     1       0.213   9.544  21.752  0.00  0.00    +0.000 A 
ATOM     16  C   UNL     1      -0.537  10.322  22.679  0.00  0.00    +0.000 A 
ENDBRANCH   1  13
BRANCH   5  17
ATOM     17  S   UNL     1       4.080   5.147  17.230  0.00  0.00    +0.000 S 
ATOM     18  O   UNL     1       3.523   3.950  16.628  0.00  0.00    +0.000 OA
ATOM     19  O   UNL     1       4.074   6.396  16.502  0.00  0.00    +0.000 OA
BRANCH  17  20
ATOM     20  N   UNL     1       5.697   4.779  17.666  0.00  0.00    +0.000 NA
ATOM     21  C   UNL     1       6.516   5.883  18.282  0.00  0.00    +0.000 C 
ATOM     22  C   UNL     1       6.951   6.929  17.223  0.00  0.00    +0.000 C 
ATOM     23  C   UNL     1       7.863   7.993  17.819  0.00  0.00    +0.000 C 
ATOM     24  O   UNL     1       7.653   6.308  16.127  0.00  0.00    +0.000 OA
ATOM     25  C   UNL     1       6.836   5.304  15.494  0.00  0.00    +0.000 C 
ATOM     26  C   UNL     1       7.597   4.760  14.294  0.00  0.00    +0.000 C 
ATOM     27  C   UNL     1       6.497   4.201  16.515  0.00  0.00    +0.000 C 
ENDBRANCH  17  20
ENDBRANCH   5  17
TORSDOF 3
ENDMDL
MODEL 6
REMARK VINA RESULT:      -7.9      1.192      2.354
REMARK  Name = 
REMARK  6 active torsions:
REMARK  status: ('A' for Active; 'I' for Inactive)
REMARK    1  A    between atoms: C_1  and  C_2
REMARK    2  A    between atoms: C_7  and  C_8
REMARK    3  A    between atoms: C_12  and  S_13
REMARK    4  A    between atoms: S_13  and  N_16
REMARK    5  A    between atoms: C_18  and  C_19
REMARK    6  A    between atoms: C_21  and  C_22
REMARK                            x       y       z     vdW  Elec       q    Type
REMARK                         _______ _______ _______ _____ _____    ______ ____
ROOT
ATOM      1  C   UNL     1       1.805   6.641  20.371  0.00  0.00    +0.000 A 
ATOM      2  C   UNL     1       1.830   5.509  21.206  0.00  0.00    +0.000 A 
ATOM      3  C   UNL     1       2.455   4.334  20.797  0.00  0.00    +0.000 A 
ATOM      4  C   UNL     1       3.078   4.288  19.556  0.00  0.00    +0.000 A 
ATOM      5  C   UNL     1       3.079   5.416  18.719  0.00  0.00    +0.000 A 
ATOM      6  C   UNL     1       2.423   6.584  19.103  0.00  0.00    +0.000 A 
ENDROOT
BRANCH   1  13
ATOM      7  C   UNL     1      -0.341  13.571  21.465  0.00  0.00    +0.000 C 
ATOM      8  C   UNL     1      -0.180  12.087  21.604  0.00  0.00    +0.000 A 
ATOM      9  C   UNL     1      -0.830  11.425  22.735  0.00  0.00    +0.000 A 
ATOM     10  C   UNL     1      -0.686  10.097  22.889  0.00  0.00    +0.000 A 
ATOM     11  N   UNL     1       0.080   9.386  21.965  0.00  0.00    +0.000 N 
ATOM     12  C   UNL     1       0.373   8.046  21.921  0.00  0.00    +0.000 A 
ATOM     13  C   UNL     1       1.188   7.883  20.817  0.00  0.00    +0.000 A 
ATOM     14  N   UNL     1       1.389   9.086  20.178  0.00  0.00    +0.000 NA
ATOM     15  C   UNL     1       0.716   9.974  20.881  0.00  0.00    +0.000 A 
ATOM     16  C   UNL     1       0.558  11.379  20.718  0.00  0.00    +0.000 A 
ENDBRANCH   1  13
BRANCH   5  17
ATOM     17  S   UNL     1       4.084   5.266  17.268  0.00  0.00    +0.000 S 
ATOM     18  O   UNL     1       3.553   4.117  16.558  0.00  0.00    +0.000 OA
ATOM     19  O   UNL     1       4.078   6.571  16.646  0.00  0.00    +0.000 OA
BRANCH  17  20
ATOM     20  N   UNL     1       5.696   4.878  17.705  0.00  0.00    +0.000 NA
ATOM     21  C   UNL     1       6.536   5.980  18.298  0.00  0.00    +0.000 C 
ATOM     22  C   UNL     1       6.985   6.999  17.219  0.00  0.00    +0.000 C 
ATOM     23  C   UNL     1       7.916   8.058  17.792  0.00  0.00    +0.000 C 
ATOM     24  O   UNL     1       7.671   6.348  16.132  0.00  0.00    +0.000 OA
ATOM     25  C   UNL     1       6.836   5.346  15.520  0.00  0.00    +0.000 C 
ATOM     26  C   UNL     1       7.583   4.769  14.326  0.00  0.00    +0.000 C 
ATOM     27  C   UNL     1       6.482   4.267  16.561  0.00  0.00    +0.000 C 
ENDBRANCH  17  20
ENDBRANCH   5  17
TORSDOF 3
ENDMDL
MODEL 7
REMARK VINA RESULT:      -7.8      4.418      8.611
REMARK  Name = 
REMARK  6 active torsions:
REMARK  status: ('A' for Active; 'I' for Inactive)
REMARK    1  A    between atoms: C_1  and  C_2
REMARK    2  A    between atoms: C_7  and  C_8
REMARK    3  A    between atoms: C_12  and  S_13
REMARK    4  A    between atoms: S_13  and  N_16
REMARK    5  A    between atoms: C_18  and  C_19
REMARK    6  A    between atoms: C_21  and  C_22
REMARK                            x       y       z     vdW  Elec       q    Type
REMARK                         _______ _______ _______ _____ _____    ______ ____
ROOT
ATOM      1  C   UNL     1       1.838   8.102  19.545  0.00  0.00    +0.000 A 
ATOM      2  C   UNL     1       1.570   7.801  20.893  0.00  0.00    +0.000 A 
ATOM      3  C   UNL     1       0.758   8.631  21.662  0.00  0.00    +0.000 A 
ATOM      4  C   UNL     1       0.191   9.758  21.082  0.00  0.00    +0.000 A 
ATOM      5  C   UNL     1       0.432  10.062  19.732  0.00  0.00    +0.000 A 
ATOM      6  C   UNL     1       1.275   9.259  18.966  0.00  0.00    +0.000 A 
ENDROOT
BRANCH   1  13
ATOM      7  C   UNL     1       6.354   5.006  14.661  0.00  0.00    +0.000 C 
ATOM      8  C   UNL     1       5.364   5.196  15.771  0.00  0.00    +0.000 A 
ATOM      9  C   UNL     1       4.775   4.004  16.383  0.00  0.00    +0.000 A 
ATOM     10  C   UNL     1       3.874   4.151  17.370  0.00  0.00    +0.000 A 
ATOM     11  N   UNL     1       3.523   5.436  17.784  0.00  0.00    +0.000 N 
ATOM     12  C   UNL     1       2.633   5.829  18.750  0.00  0.00    +0.000 A 
ATOM     13  C   UNL     1       2.653   7.211  18.730  0.00  0.00    +0.000 A 
ATOM     14  N   UNL     1       3.542   7.672  17.785  0.00  0.00    +0.000 NA
ATOM     15  C   UNL     1       4.054   6.592  17.230  0.00  0.00    +0.000 A 
ATOM     16  C   UNL     1       5.012   6.434  16.189  0.00  0.00    +0.000 A 
ENDBRANCH   1  13
BRANCH   5  17
ATOM     17  S   UNL     1      -0.520  11.410  19.090  0.00  0.00    +0.000 S 
ATOM     18  O   UNL     1      -1.259  10.852  17.973  0.00  0.00    +0.000 OA
ATOM     19  O   UNL     1      -1.227  11.969  20.220  0.00  0.00    +0.000 OA
BRANCH  17  20
ATOM     20  N   UNL     1       0.519  12.614  18.448  0.00  0.00    +0.000 NA
ATOM     21  C   UNL     1       1.866  12.785  19.100  0.00  0.00    +0.000 C 
ATOM     22  C   UNL     1       1.749  13.499  20.472  0.00  0.00    +0.000 C 
ATOM     23  C   UNL     1       3.114  13.766  21.091  0.00  0.00    +0.000 C 
ATOM     24  O   UNL     1       1.063  14.762  20.352  0.00  0.00    +0.000 OA
ATOM     25  C   UNL     1      -0.254  14.583  19.795  0.00  0.00    +0.000 C 
ATOM     26  C   UNL     1      -0.953  15.935  19.785  0.00  0.00    +0.000 C 
ATOM     27  C   UNL     1      -0.137  13.979  18.382  0.00  0.00    +0.000 C 
ENDBRANCH  17  20
ENDBRANCH   5  17
TORSDOF 3
ENDMDL
MODEL 8
REMARK VINA RESULT:      -7.8      5.316      8.947
REMARK  Name = 
REMARK  6 active torsions:
REMARK  status: ('A' for Active; 'I' for Inactive)
REMARK    1  A    between atoms: C_1  and  C_2
REMARK    2  A    between atoms: C_7  and  C_8
REMARK    3  A    between atoms: C_12  and  S_13
REMARK    4  A    between atoms: S_13  and  N_16
REMARK    5  A    between atoms: C_18  and  C_19
REMARK    6  A    between atoms: C_21  and  C_22
REMARK                            x       y       z     vdW  Elec       q    Type
REMARK                         _______ _______ _______ _____ _____    ______ ____
ROOT
ATOM      1  C   UNL     1       1.373   8.720  19.354  0.00  0.00    +0.000 A 
ATOM      2  C   UNL     1       1.364   8.661  20.760  0.00  0.00    +0.000 A 
ATOM      3  C   UNL     1       0.467   9.428  21.499  0.00  0.00    +0.000 A 
ATOM      4  C   UNL     1      -0.441  10.245  20.838  0.00  0.00    +0.000 A 
ATOM      5  C   UNL     1      -0.457  10.300  19.434  0.00  0.00    +0.000 A 
ATOM      6  C   UNL     1       0.462   9.566  18.686  0.00  0.00    +0.000 A 
ENDROOT
BRANCH   1  13
ATOM      7  C   UNL     1       5.451   3.342  16.478  0.00  0.00    +0.000 C 
ATOM      8  C   UNL     1       4.853   4.688  16.754  0.00  0.00    +0.000 A 
ATOM      9  C   UNL     1       5.390   5.844  16.036  0.00  0.00    +0.000 A 
ATOM     10  C   UNL     1       4.879   7.063  16.280  0.00  0.00    +0.000 A 
ATOM     11  N   UNL     1       3.850   7.194  17.211  0.00  0.00    +0.000 N 
ATOM     12  C   UNL     1       3.187   8.321  17.627  0.00  0.00    +0.000 A 
ATOM     13  C   UNL     1       2.283   7.886  18.579  0.00  0.00    +0.000 A 
ATOM     14  N   UNL     1       2.368   6.523  18.745  0.00  0.00    +0.000 NA
ATOM     15  C   UNL     1       3.312   6.126  17.916  0.00  0.00    +0.000 A 
ATOM     16  C   UNL     1       3.852   4.836  17.653  0.00  0.00    +0.000 A 
ENDBRANCH   1  13
BRANCH   5  17
ATOM     17  S   UNL     1      -1.799  11.225  18.741  0.00  0.00    +0.000 S 
ATOM     18  O   UNL     1      -2.391  11.930  19.862  0.00  0.00    +0.000 OA
ATOM     19  O   UNL     1      -1.238  11.965  17.632  0.00  0.00    +0.000 OA
BRANCH  17  20
ATOM     20  N   UNL     1      -2.998  10.159  18.133  0.00  0.00    +0.000 NA
ATOM     21  C   UNL     1      -2.803   9.621  16.740  0.00  0.00    +0.000 C 
ATOM     22  C   UNL     1      -3.098  10.700  15.665  0.00  0.00    +0.000 C 
ATOM     23  C   UNL     1      -3.002  10.136  14.254  0.00  0.00    +0.000 C 
ATOM     24  O   UNL     1      -4.417  11.260  15.829  0.00  0.00    +0.000 OA
ATOM     25  C   UNL     1      -4.572  11.839  17.139  0.00  0.00    +0.000 C 
ATOM     26  C   UNL     1      -5.945  12.492  17.209  0.00  0.00    +0.000 C 
ATOM     27  C   UNL     1      -4.394  10.745  18.209  0.00  0.00    +0.000 C 
ENDBRANCH  17  20
ENDBRANCH   5  17
TORSDOF 3
ENDMDL
MODEL 9
REMARK VINA RESULT:      -7.8      4.195      9.038
REMARK  Name = 
REMARK  6 active torsions:
REMARK  status: ('A' for Active; 'I' for Inactive)
REMARK    1  A    between atoms: C_1  and  C_2
REMARK    2  A    between atoms: C_7  and  C_8
REMARK    3  A    between atoms: C_12  and  S_13
REMARK    4  A    between atoms: S_13  and  N_16
REMARK    5  A    between atoms: C_18  and  C_19
REMARK    6  A    between atoms: C_21  and  C_22
REMARK                            x       y       z     vdW  Elec       q    Type
REMARK                         _______ _______ _______ _____ _____    ______ ____
ROOT
ATOM      1  C   UNL     1       2.244   7.473  19.343  0.00  0.00    +0.000 A 
ATOM      2  C   UNL     1       1.762   6.959  20.561  0.00  0.00    +0.000 A 
ATOM      3  C   UNL     1       0.923   7.719  21.373  0.00  0.00    +0.000 A 
ATOM      4  C   UNL     1       0.544   8.991  20.964  0.00  0.00    +0.000 A 
ATOM      5  C   UNL     1       1.001   9.511  19.742  0.00  0.00    +0.000 A 
ATOM      6  C   UNL     1       1.872   8.774  18.941  0.00  0.00    +0.000 A 
ENDROOT
BRANCH   1  13
ATOM      7  C   UNL     1       6.764   4.828  14.205  0.00  0.00    +0.000 C 
ATOM      8  C   UNL     1       5.810   4.920  15.358  0.00  0.00    +0.000 A 
ATOM      9  C   UNL     1       5.337   3.674  15.964  0.00  0.00    +0.000 A 
ATOM     10  C   UNL     1       4.469   3.732  16.989  0.00  0.00    +0.000 A 
ATOM     11  N   UNL     1       4.043   4.979  17.449  0.00  0.00    +0.000 N 
ATOM     12  C   UNL     1       3.168   5.283  18.460  0.00  0.00    +0.000 A 
ATOM     13  C   UNL     1       3.087   6.664  18.474  0.00  0.00    +0.000 A 
ATOM     14  N   UNL     1       3.899   7.209  17.506  0.00  0.00    +0.000 NA
ATOM     15  C   UNL     1       4.465   6.183  16.903  0.00  0.00    +0.000 A 
ATOM     16  C   UNL     1       5.387   6.119  15.821  0.00  0.00    +0.000 A 
ENDBRANCH   1  13
BRANCH   5  17
ATOM     17  S   UNL     1       0.271  11.053  19.269  0.00  0.00    +0.000 S 
ATOM     18  O   UNL     1       1.291  11.732  18.491  0.00  0.00    +0.000 OA
ATOM     19  O   UNL     1      -1.000  10.720  18.665  0.00  0.00    +0.000 OA
BRANCH  17  20
ATOM     20  N   UNL     1      -0.021  12.018  20.656  0.00  0.00    +0.000 NA
ATOM     21  C   UNL     1      -1.411  11.992  21.237  0.00  0.00    +0.000 C 
ATOM     22  C   UNL     1      -2.409  12.797  20.364  0.00  0.00    +0.000 C 
ATOM     23  C   UNL     1      -3.792  12.860  20.996  0.00  0.00    +0.000 C 
ATOM     24  O   UNL     1      -1.955  14.150  20.156  0.00  0.00    +0.000 OA
ATOM     25  C   UNL     1      -0.656  14.169  19.532  0.00  0.00    +0.000 C 
ATOM     26  C   UNL     1      -0.283  15.618  19.257  0.00  0.00    +0.000 C 
ATOM     27  C   UNL     1       0.364  13.470  20.451  0.00  0.00    +0.000 C 
ENDBRANCH  17  20
ENDBRANCH   5  17
TORSDOF 3
ENDMDL
