MODEL 1
REMARK VINA RESULT:      -9.0      0.000      0.000
REMARK  Name = 
REMARK  6 active torsions:
REMARK  status: ('A' for Active; 'I' for Inactive)
REMARK    1  A    between atoms: C_1  and  C_2
REMARK    2  A    between atoms: C_4  and  N_5
REMARK    3  A    between atoms: C_9  and  C_10
REMARK    4  A    between atoms: C_14  and  C_15
REMARK    5  A    between atoms: N_17  and  C_18
REMARK    6  A    between atoms: N_17  and  C_19
REMARK                            x       y       z     vdW  Elec       q    Type
REMARK                         _______ _______ _______ _____ _____    ______ ____
ROOT
ATOM      1  N   UNL     1       1.547   7.839  19.777  0.00  0.00    +0.000 N 
ATOM      2  C   UNL     1       1.474   7.975  21.232  0.00  0.00    +0.000 C 
ATOM      3  C   UNL     1       0.121   8.550  21.613  0.00  0.00    +0.000 C 
ATOM      4  C   UNL     1      -0.075   9.918  20.975  0.00  0.00    +0.000 C 
ATOM      5  C   UNL     1       0.243   9.933  19.467  0.00  0.00    +0.000 C 
ATOM      6  C   UNL     1       1.513   9.141  19.069  0.00  0.00    +0.000 C 
ENDROOT
BRANCH   1  10
ATOM      7  C   UNL     1       4.923   6.818  16.370  0.00  0.00    +0.000 C 
ATOM      8  C   UNL     1       4.003   6.369  17.469  0.00  0.00    +0.000 A 
ATOM      9  C   UNL     1       3.219   7.280  18.163  0.00  0.00    +0.000 A 
ATOM     10  C   UNL     1       2.353   6.847  19.186  0.00  0.00    +0.000 A 
ATOM     11  C   UNL     1       2.331   5.447  19.480  0.00  0.00    +0.000 A 
ATOM     12  C   UNL     1       1.581   4.817  20.513  0.00  0.00    +0.000 A 
ATOM     13  C   UNL     1       1.604   3.445  20.715  0.00  0.00    +0.000 A 
ATOM     14  F   UNL     1       0.840   2.905  21.674  0.00  0.00    +0.000 F 
ATOM     15  C   UNL     1       2.392   2.641  19.927  0.00  0.00    +0.000 A 
ATOM     16  C   UNL     1       3.175   3.232  18.931  0.00  0.00    +0.000 A 
ATOM     17  C   UNL     1       3.164   4.603  18.699  0.00  0.00    +0.000 A 
ATOM     18  N   UNL     1       3.968   5.049  17.727  0.00  0.00    +0.000 NA
ENDBRANCH   1  10
BRANCH   5  19
ATOM     19  C   UNL     1       0.219  11.345  18.919  0.00  0.00    +0.000 A 
ATOM     20  N   UNL     1       1.394  11.948  18.683  0.00  0.00    +0.000 NA
ATOM     21  N   UNL     1       1.061  13.134  18.172  0.00  0.00    +0.000 N 
ATOM     22  C   UNL     1      -0.285  13.329  18.078  0.00  0.00    +0.000 A 
ATOM     23  C   UNL     1      -0.896  12.170  18.521  0.00  0.00    +0.000 A 
ATOM     24  H   UNL     1       1.810  13.768  17.915  0.00  0.00    +0.000 HD
BRANCH  23  25
ATOM     25  C   UNL     1      -2.323  11.854  18.663  0.00  0.00    +0.000 C 
ATOM     26  O   UNL     1      -2.873  12.111  19.734  0.00  0.00    +0.000 OA
ATOM     27  N   UNL     1      -3.060  11.253  17.637  0.00  0.00    +0.000 N 
ATOM     28  C   UNL     1      -2.576  10.768  16.356  0.00  0.00    +0.000 C 
ATOM     29  C   UNL     1      -4.478  11.004  17.882  0.00  0.00    +0.000 C 
ENDBRANCH  23  25
ENDBRANCH   5  19
TORSDOF 3
ENDMDL
MODEL 2
REMARK VINA RESULT:      -8.6      2.136      3.356
REMARK  Name = 
REMARK  6 active torsions:
REMARK  status: ('A' for Active; 'I' for Inactive)
REMARK    1  A    between atoms: C_1  and  C_2
REMARK    2  A    between atoms: C_4  and  N_5
REMARK    3  A    between atoms: C_9  and  C_10
REMARK    4  A    between atoms: C_14  and  C_15
REMARK    5  A    between atoms: N_17  and  C_18
REMARK    6  A    between atoms: N_17  and  C_19
REMARK                            x       y       z     vdW  Elec       q    Type
REMARK                         _______ _______ _______ _____ _____    ______ ____
ROOT
ATOM      1  N   UNL     1       2.671   7.186  18.983  0.00  0.00    +0.000 N 
ATOM      2  C   UNL     1       1.969   7.498  17.736  0.00  0.00    +0.000 C 
ATOM      3  C   UNL     1       1.781   9.002  17.632  0.00  0.00    +0.000 C 
ATOM      4  C   UNL     1       0.961   9.518  18.807  0.00  0.00    +0.000 C 
ATOM      5  C   UNL     1       1.475   9.014  20.170  0.00  0.00    +0.000 C 
ATOM      6  C   UNL     1       1.882   7.520  20.193  0.00  0.00    +0.000 C 
ENDROOT
BRANCH   1  10
ATOM      7  C   UNL     1       7.246   5.432  19.196  0.00  0.00    +0.000 C 
ATOM      8  C   UNL     1       5.762   5.203  19.157  0.00  0.00    +0.000 A 
ATOM      9  C   UNL     1       4.872   6.268  19.129  0.00  0.00    +0.000 A 
ATOM     10  C   UNL     1       3.483   6.040  19.084  0.00  0.00    +0.000 A 
ATOM     11  C   UNL     1       3.039   4.680  19.083  0.00  0.00    +0.000 A 
ATOM     12  C   UNL     1       1.686   4.238  19.108  0.00  0.00    +0.000 A 
ATOM     13  C   UNL     1       1.345   2.894  19.084  0.00  0.00    +0.000 A 
ATOM     14  F   UNL     1       0.053   2.540  19.061  0.00  0.00    +0.000 F 
ATOM     15  C   UNL     1       2.324   1.930  19.068  0.00  0.00    +0.000 A 
ATOM     16  C   UNL     1       3.663   2.328  19.088  0.00  0.00    +0.000 A 
ATOM     17  C   UNL     1       4.035   3.669  19.100  0.00  0.00    +0.000 A 
ATOM     18  N   UNL     1       5.349   3.922  19.133  0.00  0.00    +0.000 NA
ENDBRANCH   1  10
BRANCH   5  19
ATOM     19  C   UNL     1       0.523   9.395  21.285  0.00  0.00    +0.000 A 
ATOM     20  N   UNL     1       0.041   8.414  22.062  0.00  0.00    +0.000 NA
ATOM     21  N   UNL     1      -0.714   9.045  22.963  0.00  0.00    +0.000 N 
ATOM     22  C   UNL     1      -0.748  10.398  22.794  0.00  0.00    +0.000 A 
ATOM     23  C   UNL     1       0.078  10.695  21.725  0.00  0.00    +0.000 A 
ATOM     24  H   UNL     1      -1.185   8.485  23.665  0.00  0.00    +0.000 HD
BRANCH  23  25
ATOM     25  C   UNL     1       0.374  11.989  21.098  0.00  0.00    +0.000 C 
ATOM     26  O   UNL     1       1.400  12.580  21.436  0.00  0.00    +0.000 OA
ATOM     27  N   UNL     1      -0.478  12.574  20.155  0.00  0.00    +0.000 N 
ATOM     28  C   UNL     1      -1.779  12.102  19.714  0.00  0.00    +0.000 C 
ATOM     29  C   UNL     1      -0.071  13.854  19.581  0.00  0.00    +0.000 C 
ENDBRANCH  23  25
ENDBRANCH   5  19
TORSDOF 3
ENDMDL
MODEL 3
REMARK VINA RESULT:      -8.6      0.773      1.042
REMARK  Name = 
REMARK  6 active torsions:
REMARK  status: ('A' for Active; 'I' for Inactive)
REMARK    1  A    between atoms: C_1  and  C_2
REMARK    2  A    between atoms: C_4  and  N_5
REMARK    3  A    between atoms: C_9  and  C_10
REMARK    4  A    between atoms: C_14  and  C_15
REMARK    5  A    between atoms: N_17  and  C_18
REMARK    6  A    between atoms: N_17  and  C_19
REMARK                            x       y       z     vdW  Elec       q    Type
REMARK                         _______ _______ _______ _____ _____    ______ ____
ROOT
ATOM      1  N   UNL     1       1.500   7.881  19.830  0.00  0.00    +0.000 N 
ATOM      2  C   UNL     1       1.404   7.964  21.289  0.00  0.00    +0.000 C 
ATOM      3  C   UNL     1       0.048   8.530  21.670  0.00  0.00    +0.000 C 
ATOM      4  C   UNL     1      -0.133   9.922  21.081  0.00  0.00    +0.000 C 
ATOM      5  C   UNL     1       0.209   9.991  19.579  0.00  0.00    +0.000 C 
ATOM      6  C   UNL     1       1.482   9.209  19.171  0.00  0.00    +0.000 C 
ENDROOT
BRANCH   1  10
ATOM      7  C   UNL     1       4.859   6.957  16.379  0.00  0.00    +0.000 C 
ATOM      8  C   UNL     1       3.952   6.480  17.477  0.00  0.00    +0.000 A 
ATOM      9  C   UNL     1       3.165   7.369  18.194  0.00  0.00    +0.000 A 
ATOM     10  C   UNL     1       2.311   6.908  19.215  0.00  0.00    +0.000 A 
ATOM     11  C   UNL     1       2.306   5.504  19.484  0.00  0.00    +0.000 A 
ATOM     12  C   UNL     1       1.571   4.848  20.512  0.00  0.00    +0.000 A 
ATOM     13  C   UNL     1       1.610   3.473  20.689  0.00  0.00    +0.000 A 
ATOM     14  F   UNL     1       0.858   2.907  21.644  0.00  0.00    +0.000 F 
ATOM     15  C   UNL     1       2.400   2.691  19.881  0.00  0.00    +0.000 A 
ATOM     16  C   UNL     1       3.169   3.307  18.890  0.00  0.00    +0.000 A 
ATOM     17  C   UNL     1       3.141   4.683  18.682  0.00  0.00    +0.000 A 
ATOM     18  N   UNL     1       3.933   5.154  17.712  0.00  0.00    +0.000 NA
ENDBRANCH   1  10
BRANCH   5  19
ATOM     19  C   UNL     1       0.199  11.423  19.084  0.00  0.00    +0.000 A 
ATOM     20  N   UNL     1       1.293  12.169  19.296  0.00  0.00    +0.000 NA
ATOM     21  N   UNL     1       1.013  13.340  18.720  0.00  0.00    +0.000 N 
ATOM     22  C   UNL     1      -0.226  13.386  18.153  0.00  0.00    +0.000 A 
ATOM     23  C   UNL     1      -0.800  12.139  18.327  0.00  0.00    +0.000 A 
ATOM     24  H   UNL     1       1.717  14.069  18.760  0.00  0.00    +0.000 HD
BRANCH  23  25
ATOM     25  C   UNL     1      -2.131  11.655  17.942  0.00  0.00    +0.000 C 
ATOM     26  O   UNL     1      -2.258  11.101  16.850  0.00  0.00    +0.000 OA
ATOM     27  N   UNL     1      -3.253  11.825  18.761  0.00  0.00    +0.000 N 
ATOM     28  C   UNL     1      -3.338  12.548  20.019  0.00  0.00    +0.000 C 
ATOM     29  C   UNL     1      -4.523  11.284  18.286  0.00  0.00    +0.000 C 
ENDBRANCH  23  25
ENDBRANCH   5  19
TORSDOF 3
ENDMDL
MODEL 4
REMARK VINA RESULT:      -8.5      1.689      2.809
REMARK  Name = 
REMARK  6 active torsions:
REMARK  status: ('A' for Active; 'I' for Inactive)
REMARK    1  A    between atoms: C_1  and  C_2
REMARK    2  A    between atoms: C_4  and  N_5
REMARK    3  A    between atoms: C_9  and  C_10
REMARK    4  A    between atoms: C_14  and  C_15
REMARK    5  A    between atoms: N_17  and  C_18
REMARK    6  A    between atoms: N_17  and  C_19
REMARK                            x       y       z     vdW  Elec       q    Type
REMARK                         _______ _______ _______ _____ _____    ______ ____
ROOT
ATOM      1  N   UNL     1       1.581   7.990  19.838  0.00  0.00    +0.000 N 
ATOM      2  C   UNL     1       1.813   8.401  21.224  0.00  0.00    +0.000 C 
ATOM      3  C   UNL     1       0.506   8.885  21.827  0.00  0.00    +0.000 C 
ATOM      4  C   UNL     1      -0.035  10.072  21.042  0.00  0.00    +0.000 C 
ATOM      5  C   UNL     1      -0.066   9.826  19.520  0.00  0.00    +0.000 C 
ATOM      6  C   UNL     1       1.191   9.117  18.956  0.00  0.00    +0.000 C 
ENDROOT
BRANCH   1  10
ATOM      7  C   UNL     1       4.887   6.958  16.366  0.00  0.00    +0.000 C 
ATOM      8  C   UNL     1       3.993   6.514  17.489  0.00  0.00    +0.000 A 
ATOM      9  C   UNL     1       3.221   7.427  18.193  0.00  0.00    +0.000 A 
ATOM     10  C   UNL     1       2.379   6.997  19.237  0.00  0.00    +0.000 A 
ATOM     11  C   UNL     1       2.370   5.600  19.543  0.00  0.00    +0.000 A 
ATOM     12  C   UNL     1       1.647   4.976  20.598  0.00  0.00    +0.000 A 
ATOM     13  C   UNL     1       1.681   3.605  20.810  0.00  0.00    +0.000 A 
ATOM     14  F   UNL     1       0.940   3.069  21.790  0.00  0.00    +0.000 F 
ATOM     15  C   UNL     1       2.455   2.798  20.012  0.00  0.00    +0.000 A 
ATOM     16  C   UNL     1       3.213   3.384  18.995  0.00  0.00    +0.000 A 
ATOM     17  C   UNL     1       3.190   4.754  18.751  0.00  0.00    +0.000 A 
ATOM     18  N   UNL     1       3.971   5.195  17.758  0.00  0.00    +0.000 NA
ENDBRANCH   1  10
BRANCH   5  19
ATOM     19  C   UNL     1      -0.428  11.091  18.771  0.00  0.00    +0.000 A 
ATOM     20  N   UNL     1      -1.580  11.108  18.085  0.00  0.00    +0.000 NA
ATOM     21  N   UNL     1      -1.649  12.342  17.582  0.00  0.00    +0.000 N 
ATOM     22  C   UNL     1      -0.580  13.123  17.906  0.00  0.00    +0.000 A 
ATOM     23  C   UNL     1       0.244  12.368  18.721  0.00  0.00    +0.000 A 
ATOM     24  H   UNL     1      -2.457  12.581  17.017  0.00  0.00    +0.000 HD
BRANCH  23  25
ATOM     25  C   UNL     1       1.540  12.707  19.321  0.00  0.00    +0.000 C 
ATOM     26  O   UNL     1       2.565  12.376  18.725  0.00  0.00    +0.000 OA
ATOM     27  N   UNL     1       1.643  13.366  20.552  0.00  0.00    +0.000 N 
ATOM     28  C   UNL     1       0.570  13.732  21.461  0.00  0.00    +0.000 C 
ATOM     29  C   UNL     1       2.984  13.671  21.043  0.00  0.00    +0.000 C 
ENDBRANCH  23  25
ENDBRANCH   5  19
TORSDOF 3
ENDMDL
MODEL 5
REMARK VINA RESULT:      -8.5      2.654      4.223
REMARK  Name = 
REMARK  6 active torsions:
REMARK  status: ('A' for Active; 'I' for Inactive)
REMARK    1  A    between atoms: C_1  and  C_2
REMARK    2  A    between atoms: C_4  and  N_5
REMARK    3  A    between atoms: C_9  and  C_10
REMARK    4  A    between atoms: C_14  and  C_15
REMARK    5  A    between atoms: N_17  and  C_18
REMARK    6  A    between atoms: N_17  and  C_19
REMARK                            x       y       z     vdW  Elec       q    Type
REMARK                         _______ _______ _______ _____ _____    ______ ____
ROOT
ATOM      1  N   UNL     1       2.117   7.578  19.378  0.00  0.00    +0.000 N 
ATOM      2  C   UNL     1       1.617   8.083  18.097  0.00  0.00    +0.000 C 
ATOM      3  C   UNL     1       1.737   9.597  18.078  0.00  0.00    +0.000 C 
ATOM      4  C   UNL     1       0.920  10.210  19.206  0.00  0.00    +0.000 C 
ATOM      5  C   UNL     1       1.187   9.549  20.573  0.00  0.00    +0.000 C 
ATOM      6  C   UNL     1       1.291   8.005  20.533  0.00  0.00    +0.000 C 
ENDROOT
BRANCH   1  10
ATOM      7  C   UNL     1       1.887   3.179  21.533  0.00  0.00    +0.000 C 
ATOM      8  C   UNL     1       2.554   4.132  20.582  0.00  0.00    +0.000 A 
ATOM      9  C   UNL     1       2.038   5.401  20.361  0.00  0.00    +0.000 A 
ATOM     10  C   UNL     1       2.677   6.289  19.474  0.00  0.00    +0.000 A 
ATOM     11  C   UNL     1       3.856   5.823  18.812  0.00  0.00    +0.000 A 
ATOM     12  C   UNL     1       4.607   6.535  17.834  0.00  0.00    +0.000 A 
ATOM     13  C   UNL     1       5.754   6.011  17.256  0.00  0.00    +0.000 A 
ATOM     14  F   UNL     1       6.447   6.749  16.376  0.00  0.00    +0.000 F 
ATOM     15  C   UNL     1       6.189   4.753  17.593  0.00  0.00    +0.000 A 
ATOM     16  C   UNL     1       5.450   4.009  18.517  0.00  0.00    +0.000 A 
ATOM     17  C   UNL     1       4.303   4.512  19.122  0.00  0.00    +0.000 A 
ATOM     18  N   UNL     1       3.675   3.697  19.978  0.00  0.00    +0.000 NA
ENDBRANCH   1  10
BRANCH   5  19
ATOM     19  C   UNL     1       0.220  10.059  21.622  0.00  0.00    +0.000 A 
ATOM     20  N   UNL     1      -0.313   9.168  22.471  0.00  0.00    +0.000 NA
ATOM     21  N   UNL     1      -1.069   9.902  23.290  0.00  0.00    +0.000 N 
ATOM     22  C   UNL     1      -1.055  11.234  22.998  0.00  0.00    +0.000 A 
ATOM     23  C   UNL     1      -0.194  11.408  21.930  0.00  0.00    +0.000 A 
ATOM     24  H   UNL     1      -1.575   9.423  24.027  0.00  0.00    +0.000 HD
BRANCH  23  25
ATOM     25  C   UNL     1       0.161  12.628  21.196  0.00  0.00    +0.000 C 
ATOM     26  O   UNL     1       1.212  13.200  21.486  0.00  0.00    +0.000 OA
ATOM     27  N   UNL     1      -0.666  13.170  20.205  0.00  0.00    +0.000 N 
ATOM     28  C   UNL     1      -1.987  12.721  19.801  0.00  0.00    +0.000 C 
ATOM     29  C   UNL     1      -0.202  14.377  19.526  0.00  0.00    +0.000 C 
ENDBRANCH  23  25
ENDBRANCH   5  19
TORSDOF 3
ENDMDL
MODEL 6
REMARK VINA RESULT:      -8.4      1.065      1.121
REMARK  Name = 
REMARK  6 active torsions:
REMARK  status: ('A' for Active; 'I' for Inactive)
REMARK    1  A    between atoms: C_1  and  C_2
REMARK    2  A    between atoms: C_4  and  N_5
REMARK    3  A    between atoms: C_9  and  C_10
REMARK    4  A    between atoms: C_14  and  C_15
REMARK    5  A    between atoms: N_17  and  C_18
REMARK    6  A    between atoms: N_17  and  C_19
REMARK                            x       y       z     vdW  Elec       q    Type
REMARK                         _______ _______ _______ _____ _____    ______ ____
ROOT
ATOM      1  N   UNL     1       1.969   7.592  19.415  0.00  0.00    +0.000 N 
ATOM      2  C   UNL     1       1.829   7.659  20.871  0.00  0.00    +0.000 C 
ATOM      3  C   UNL     1       0.561   8.419  21.216  0.00  0.00    +0.000 C 
ATOM      4  C   UNL     1       0.619   9.834  20.657  0.00  0.00    +0.000 C 
ATOM      5  C   UNL     1       1.028   9.880  19.171  0.00  0.00    +0.000 C 
ATOM      6  C   UNL     1       2.181   8.920  18.790  0.00  0.00    +0.000 C 
ENDROOT
BRANCH   1  10
ATOM      7  C   UNL     1       5.207   6.223  15.996  0.00  0.00    +0.000 C 
ATOM      8  C   UNL     1       4.231   5.872  17.083  0.00  0.00    +0.000 A 
ATOM      9  C   UNL     1       3.566   6.860  17.794  0.00  0.00    +0.000 A 
ATOM     10  C   UNL     1       2.646   6.518  18.805  0.00  0.00    +0.000 A 
ATOM     11  C   UNL     1       2.446   5.127  19.069  0.00  0.00    +0.000 A 
ATOM     12  C   UNL     1       1.617   4.576  20.087  0.00  0.00    +0.000 A 
ATOM     13  C   UNL     1       1.466   3.208  20.260  0.00  0.00    +0.000 A 
ATOM     14  F   UNL     1       0.633   2.749  21.205  0.00  0.00    +0.000 F 
ATOM     15  C   UNL     1       2.149   2.327  19.458  0.00  0.00    +0.000 A 
ATOM     16  C   UNL     1       3.006   2.834  18.476  0.00  0.00    +0.000 A 
ATOM     17  C   UNL     1       3.170   4.201  18.273  0.00  0.00    +0.000 A 
ATOM     18  N   UNL     1       4.029   4.561  17.313  0.00  0.00    +0.000 NA
ENDBRANCH   1  10
BRANCH   5  19
ATOM     19  C   UNL     1       1.257  11.306  18.713  0.00  0.00    +0.000 A 
ATOM     20  N   UNL     1       2.395  11.581  18.060  0.00  0.00    +0.000 NA
ATOM     21  N   UNL     1       2.295  12.875  17.749  0.00  0.00    +0.000 N 
ATOM     22  C   UNL     1       1.139  13.452  18.185  0.00  0.00    +0.000 A 
ATOM     23  C   UNL     1       0.394  12.460  18.797  0.00  0.00    +0.000 A 
ATOM     24  H   UNL     1       3.061  13.302  17.240  0.00  0.00    +0.000 HD
BRANCH  23  25
ATOM     25  C   UNL     1      -0.908  12.542  19.469  0.00  0.00    +0.000 C 
ATOM     26  O   UNL     1      -0.944  12.964  20.625  0.00  0.00    +0.000 OA
ATOM     27  N   UNL     1      -2.095  12.133  18.849  0.00  0.00    +0.000 N 
ATOM     28  C   UNL     1      -2.251  11.503  17.549  0.00  0.00    +0.000 C 
ATOM     29  C   UNL     1      -3.335  12.279  19.605  0.00  0.00    +0.000 C 
ENDBRANCH  23  25
ENDBRANCH   5  19
TORSDOF 3
ENDMDL
MODEL 7
REMARK VINA RESULT:      -8.3      1.567      2.748
REMARK  Name = 
REMARK  6 active torsions:
REMARK  status: ('A' for Active; 'I' for Inactive)
REMARK    1  A    between atoms: C_1  and  C_2
REMARK    2  A    between atoms: C_4  and  N_5
REMARK    3  A    between atoms: C_9  and  C_10
REMARK    4  A    between atoms: C_14  and  C_15
REMARK    5  A    between atoms: N_17  and  C_18
REMARK    6  A    between atoms: N_17  and  C_19
REMARK                            x       y       z     vdW  Elec       q    Type
REMARK                         _______ _______ _______ _____ _____    ______ ____
ROOT
ATOM      1  N   UNL     1       1.501   8.021  19.963  0.00  0.00    +0.000 N 
ATOM      2  C   UNL     1       1.573   8.323  21.394  0.00  0.00    +0.000 C 
ATOM      3  C   UNL     1       0.204   8.768  21.880  0.00  0.00    +0.000 C 
ATOM      4  C   UNL     1      -0.247  10.015  21.132  0.00  0.00    +0.000 C 
ATOM      5  C   UNL     1      -0.104   9.886  19.602  0.00  0.00    +0.000 C 
ATOM      6  C   UNL     1       1.210   9.214  19.132  0.00  0.00    +0.000 C 
ENDROOT
BRANCH   1  10
ATOM      7  C   UNL     1       4.805   7.117  16.455  0.00  0.00    +0.000 C 
ATOM      8  C   UNL     1       3.974   6.649  17.615  0.00  0.00    +0.000 A 
ATOM      9  C   UNL     1       3.145   7.524  18.302  0.00  0.00    +0.000 A 
ATOM     10  C   UNL     1       2.364   7.072  19.383  0.00  0.00    +0.000 A 
ATOM     11  C   UNL     1       2.475   5.692  19.744  0.00  0.00    +0.000 A 
ATOM     12  C   UNL     1       1.828   5.055  20.839  0.00  0.00    +0.000 A 
ATOM     13  C   UNL     1       1.978   3.702  21.105  0.00  0.00    +0.000 A 
ATOM     14  F   UNL     1       1.304   3.148  22.122  0.00  0.00    +0.000 F 
ATOM     15  C   UNL     1       2.798   2.928  20.320  0.00  0.00    +0.000 A 
ATOM     16  C   UNL     1       3.484   3.531  19.262  0.00  0.00    +0.000 A 
ATOM     17  C   UNL     1       3.345   4.883  18.966  0.00  0.00    +0.000 A 
ATOM     18  N   UNL     1       4.065   5.345  17.937  0.00  0.00    +0.000 NA
ENDBRANCH   1  10
BRANCH   5  19
ATOM     19  C   UNL     1      -0.382  11.207  18.916  0.00  0.00    +0.000 A 
ATOM     20  N   UNL     1      -1.265  11.219  17.907  0.00  0.00    +0.000 NA
ATOM     21  N   UNL     1      -1.336  12.500  17.543  0.00  0.00    +0.000 N 
ATOM     22  C   UNL     1      -0.524  13.319  18.269  0.00  0.00    +0.000 A 
ATOM     23  C   UNL     1       0.106  12.533  19.217  0.00  0.00    +0.000 A 
ATOM     24  H   UNL     1      -1.959  12.744  16.780  0.00  0.00    +0.000 HD
BRANCH  23  25
ATOM     25  C   UNL     1       1.105  12.897  20.228  0.00  0.00    +0.000 C 
ATOM     26  O   UNL     1       0.790  12.816  21.416  0.00  0.00    +0.000 OA
ATOM     27  N   UNL     1       2.383  13.353  19.885  0.00  0.00    +0.000 N 
ATOM     28  C   UNL     1       2.905  13.631  18.558  0.00  0.00    +0.000 C 
ATOM     29  C   UNL     1       3.302  13.667  20.976  0.00  0.00    +0.000 C 
ENDBRANCH  23  25
ENDBRANCH   5  19
TORSDOF 3
ENDMDL
MODEL 8
REMARK VINA RESULT:      -8.3      1.506      1.813
REMARK  Name = 
REMARK  6 active torsions:
REMARK  status: ('A' for Active; 'I' for Inactive)
REMARK    1  A    between atoms: C_1  and  C_2
REMARK    2  A    between atoms: C_4  and  N_5
REMARK    3  A    between atoms: C_9  and  C_10
REMARK    4  A    between atoms: C_14  and  C_15
REMARK    5  A    between atoms: N_17  and  C_18
REMARK    6  A    between atoms: N_17  and  C_19
REMARK                            x       y       z     vdW  Elec       q    Type
REMARK                         _______ _______ _______ _____ _____    ______ ____
ROOT
ATOM      1  N   UNL     1       1.964   7.545  19.441  0.00  0.00    +0.000 N 
ATOM      2  C   UNL     1       1.858   7.613  20.899  0.00  0.00    +0.000 C 
ATOM      3  C   UNL     1       0.584   8.350  21.274  0.00  0.00    +0.000 C 
ATOM      4  C   UNL     1       0.602   9.764  20.711  0.00  0.00    +0.000 C 
ATOM      5  C   UNL     1       0.974   9.815  19.215  0.00  0.00    +0.000 C 
ATOM      6  C   UNL     1       2.136   8.876  18.809  0.00  0.00    +0.000 C 
ENDROOT
BRANCH   1  10
ATOM      7  C   UNL     1       5.201   6.238  15.996  0.00  0.00    +0.000 C 
ATOM      8  C   UNL     1       4.231   5.868  17.082  0.00  0.00    +0.000 A 
ATOM      9  C   UNL     1       3.561   6.843  17.807  0.00  0.00    +0.000 A 
ATOM     10  C   UNL     1       2.647   6.484  18.817  0.00  0.00    +0.000 A 
ATOM     11  C   UNL     1       2.457   5.088  19.066  0.00  0.00    +0.000 A 
ATOM     12  C   UNL     1       1.636   4.520  20.080  0.00  0.00    +0.000 A 
ATOM     13  C   UNL     1       1.494   3.149  20.238  0.00  0.00    +0.000 A 
ATOM     14  F   UNL     1       0.669   2.673  21.181  0.00  0.00    +0.000 F 
ATOM     15  C   UNL     1       2.182   2.282  19.423  0.00  0.00    +0.000 A 
ATOM     16  C   UNL     1       3.032   2.806  18.445  0.00  0.00    +0.000 A 
ATOM     17  C   UNL     1       3.185   4.176  18.257  0.00  0.00    +0.000 A 
ATOM     18  N   UNL     1       4.038   4.553  17.298  0.00  0.00    +0.000 NA
ENDBRANCH   1  10
BRANCH   5  19
ATOM     19  C   UNL     1       1.164  11.243  18.750  0.00  0.00    +0.000 A 
ATOM     20  N   UNL     1       2.312  11.555  18.131  0.00  0.00    +0.000 NA
ATOM     21  N   UNL     1       2.174  12.841  17.802  0.00  0.00    +0.000 N 
ATOM     22  C   UNL     1       0.984  13.379  18.195  0.00  0.00    +0.000 A 
ATOM     23  C   UNL     1       0.257  12.365  18.793  0.00  0.00    +0.000 A 
ATOM     24  H   UNL     1       2.940  13.292  17.314  0.00  0.00    +0.000 HD
BRANCH  23  25
ATOM     25  C   UNL     1      -1.069  12.404  19.421  0.00  0.00    +0.000 C 
ATOM     26  O   UNL     1      -2.048  12.101  18.738  0.00  0.00    +0.000 OA
ATOM     27  N   UNL     1      -1.255  12.796  20.752  0.00  0.00    +0.000 N 
ATOM     28  C   UNL     1      -0.257  13.300  21.680  0.00  0.00    +0.000 C 
ATOM     29  C   UNL     1      -2.617  12.776  21.277  0.00  0.00    +0.000 C 
ENDBRANCH  23  25
ENDBRANCH   5  19
TORSDOF 3
ENDMDL
MODEL 9
REMARK VINA RESULT:      -8.1      2.146      3.341
REMARK  Name = 
REMARK  6 active torsions:
REMARK  status: ('A' for Active; 'I' for Inactive)
REMARK    1  A    between atoms: C_1  and  C_2
REMARK    2  A    between atoms: C_4  and  N_5
REMARK    3  A    between atoms: C_9  and  C_10
REMARK    4  A    between atoms: C_14  and  C_15
REMARK    5  A    between atoms: N_17  and  C_18
REMARK    6  A    between atoms: N_17  and  C_19
REMARK                            x       y       z     vdW  Elec       q    Type
REMARK                         _______ _______ _______ _____ _____    ______ ____
ROOT
ATOM      1  N   UNL     1       2.643   7.193  19.002  0.00  0.00    +0.000 N 
ATOM      2  C   UNL     1       1.892   7.470  17.776  0.00  0.00    +0.000 C 
ATOM      3  C   UNL     1       1.701   8.970  17.636  0.00  0.00    +0.000 C 
ATOM      4  C   UNL     1       0.929   9.523  18.826  0.00  0.00    +0.000 C 
ATOM      5  C   UNL     1       1.497   9.058  20.182  0.00  0.00    +0.000 C 
ATOM      6  C   UNL     1       1.903   7.564  20.232  0.00  0.00    +0.000 C 
ENDROOT
BRANCH   1  10
ATOM      7  C   UNL     1       7.221   5.447  19.190  0.00  0.00    +0.000 C 
ATOM      8  C   UNL     1       5.738   5.215  19.165  0.00  0.00    +0.000 A 
ATOM      9  C   UNL     1       4.847   6.279  19.137  0.00  0.00    +0.000 A 
ATOM     10  C   UNL     1       3.457   6.049  19.105  0.00  0.00    +0.000 A 
ATOM     11  C   UNL     1       3.015   4.689  19.116  0.00  0.00    +0.000 A 
ATOM     12  C   UNL     1       1.663   4.245  19.155  0.00  0.00    +0.000 A 
ATOM     13  C   UNL     1       1.324   2.900  19.144  0.00  0.00    +0.000 A 
ATOM     14  F   UNL     1       0.031   2.544  19.133  0.00  0.00    +0.000 F 
ATOM     15  C   UNL     1       2.303   1.937  19.127  0.00  0.00    +0.000 A 
ATOM     16  C   UNL     1       3.643   2.338  19.133  0.00  0.00    +0.000 A 
ATOM     17  C   UNL     1       4.013   3.679  19.133  0.00  0.00    +0.000 A 
ATOM     18  N   UNL     1       5.326   3.934  19.153  0.00  0.00    +0.000 NA
ENDBRANCH   1  10
BRANCH   5  19
ATOM     19  C   UNL     1       0.590   9.473  21.322  0.00  0.00    +0.000 A 
ATOM     20  N   UNL     1       0.596   8.724  22.435  0.00  0.00    +0.000 NA
ATOM     21  N   UNL     1      -0.245   9.349  23.260  0.00  0.00    +0.000 N 
ATOM     22  C   UNL     1      -0.805  10.469  22.722  0.00  0.00    +0.000 A 
ATOM     23  C   UNL     1      -0.267  10.627  21.457  0.00  0.00    +0.000 A 
ATOM     24  H   UNL     1      -0.395   8.948  24.180  0.00  0.00    +0.000 HD
BRANCH  23  25
ATOM     25  C   UNL     1      -0.546  11.643  20.435  0.00  0.00    +0.000 C 
ATOM     26  O   UNL     1      -1.604  11.566  19.810  0.00  0.00    +0.000 OA
ATOM     27  N   UNL     1       0.356  12.670  20.137  0.00  0.00    +0.000 N 
ATOM     28  C   UNL     1       1.694  12.866  20.670  0.00  0.00    +0.000 C 
ATOM     29  C   UNL     1      -0.037  13.637  19.116  0.00  0.00    +0.000 C 
ENDBRANCH  23  25
ENDBRANCH   5  19
TORSDOF 3
ENDMDL
