MODEL 1
REMARK VINA RESULT:      -8.4      0.000      0.000
REMARK  Name = 
REMARK  4 active torsions:
REMARK  status: ('A' for Active; 'I' for Inactive)
REMARK    1  A    between atoms: C_1  and  C_2
REMARK    2  A    between atoms: C_5  and  C_6
REMARK    3  A    between atoms: C_10  and  C_11
REMARK    4  A    between atoms: N_13  and  C_14
REMARK                            x       y       z     vdW  Elec       q    Type
REMARK                         _______ _______ _______ _____ _____    ______ ____
ROOT
ATOM      1  C   UNL     1       8.190   8.863  18.240  0.00  0.00    +0.000 C 
ATOM      2  O   UNL     1       7.626   9.685  17.523  0.00  0.00    +0.000 OA
ATOM      3  N   UNL     1       9.155   9.151  19.190  0.00  0.00    +0.000 N 
ATOM      4  H   UNL     1       9.693   8.385  19.578  0.00  0.00    +0.000 HD
ENDROOT
BRANCH   3   5
ATOM      5  C   UNL     1       9.573  10.467  19.529  0.00  0.00    +0.000 A 
ATOM      6  C   UNL     1       9.259  11.092  20.745  0.00  0.00    +0.000 A 
ATOM      7  N   UNL     1       9.623  12.343  21.134  0.00  0.00    +0.000 NA
ATOM      8  C   UNL     1      10.340  12.980  20.195  0.00  0.00    +0.000 A 
ATOM      9  N   UNL     1      10.834  14.247  20.288  0.00  0.00    +0.000 N 
ATOM     10  N   UNL     1      11.516  14.644  19.194  0.00  0.00    +0.000 NA
ATOM     11  C   UNL     1      11.444  13.577  18.387  0.00  0.00    +0.000 A 
ATOM     12  C   UNL     1      10.730  12.498  18.957  0.00  0.00    +0.000 A 
ATOM     13  C   UNL     1      10.349  11.187  18.608  0.00  0.00    +0.000 A 
ATOM     14  H   UNL     1      10.733  14.879  21.074  0.00  0.00    +0.000 HD
ENDBRANCH   3   5
BRANCH   1  19
ATOM     15  C   UNL     1       7.154   5.545  16.668  0.00  0.00    +0.000 A 
ATOM     16  C   UNL     1       7.458   4.759  17.788  0.00  0.00    +0.000 A 
ATOM     17  N   UNL     1       7.914   5.224  18.974  0.00  0.00    +0.000 NA
ATOM     18  C   UNL     1       8.111   6.557  19.058  0.00  0.00    +0.000 A 
ATOM     19  C   UNL     1       7.843   7.444  18.023  0.00  0.00    +0.000 A 
ATOM     20  C   UNL     1       7.357   6.931  16.816  0.00  0.00    +0.000 A 
BRANCH  15  25
ATOM     21  C   UNL     1       5.252   3.104  11.734  0.00  0.00    +0.000 C 
ATOM     22  C   UNL     1       5.732   3.737  13.006  0.00  0.00    +0.000 A 
ATOM     23  C   UNL     1       4.982   3.653  14.178  0.00  0.00    +0.000 A 
ATOM     24  C   UNL     1       5.441   4.249  15.357  0.00  0.00    +0.000 A 
ATOM     25  C   UNL     1       6.669   4.937  15.409  0.00  0.00    +0.000 A 
ATOM     26  C   UNL     1       7.414   5.003  14.219  0.00  0.00    +0.000 A 
ATOM     27  C   UNL     1       6.950   4.420  13.034  0.00  0.00    +0.000 A 
ENDBRANCH  15  25
ENDBRANCH   1  19
TORSDOF 3
ENDMDL
MODEL 2
REMARK VINA RESULT:      -8.2      6.226      9.703
REMARK  Name = 
REMARK  4 active torsions:
REMARK  status: ('A' for Active; 'I' for Inactive)
REMARK    1  A    between atoms: C_1  and  C_2
REMARK    2  A    between atoms: C_5  and  C_6
REMARK    3  A    between atoms: C_10  and  C_11
REMARK    4  A    between atoms: N_13  and  C_14
REMARK                            x       y       z     vdW  Elec       q    Type
REMARK                         _______ _______ _______ _____ _____    ______ ____
ROOT
ATOM      1  C   UNL     1       3.793   6.476  17.732  0.00  0.00    +0.000 C 
ATOM      2  O   UNL     1       3.742   7.469  17.012  0.00  0.00    +0.000 OA
ATOM      3  N   UNL     1       4.510   5.323  17.464  0.00  0.00    +0.000 N 
ATOM      4  H   UNL     1       4.322   4.498  18.022  0.00  0.00    +0.000 HD
ENDROOT
BRANCH   3   5
ATOM      5  C   UNL     1       5.364   5.157  16.338  0.00  0.00    +0.000 A 
ATOM      6  C   UNL     1       6.637   5.736  16.239  0.00  0.00    +0.000 A 
ATOM      7  N   UNL     1       7.503   5.622  15.197  0.00  0.00    +0.000 NA
ATOM      8  C   UNL     1       7.004   4.875  14.200  0.00  0.00    +0.000 A 
ATOM      9  N   UNL     1       7.629   4.592  13.022  0.00  0.00    +0.000 N 
ATOM     10  N   UNL     1       6.897   3.821  12.192  0.00  0.00    +0.000 NA
ATOM     11  C   UNL     1       5.768   3.616  12.884  0.00  0.00    +0.000 A 
ATOM     12  C   UNL     1       5.774   4.240  14.153  0.00  0.00    +0.000 A 
ATOM     13  C   UNL     1       4.921   4.368  15.265  0.00  0.00    +0.000 A 
ATOM     14  H   UNL     1       8.552   4.900  12.738  0.00  0.00    +0.000 HD
ENDBRANCH   3   5
BRANCH   1  19
ATOM     15  C   UNL     1       1.468   7.549  20.560  0.00  0.00    +0.000 A 
ATOM     16  C   UNL     1       1.352   6.277  21.136  0.00  0.00    +0.000 A 
ATOM     17  N   UNL     1       1.986   5.160  20.708  0.00  0.00    +0.000 NA
ATOM     18  C   UNL     1       2.770   5.298  19.618  0.00  0.00    +0.000 A 
ATOM     19  C   UNL     1       2.972   6.504  18.960  0.00  0.00    +0.000 A 
ATOM     20  C   UNL     1       2.315   7.642  19.439  0.00  0.00    +0.000 A 
BRANCH  15  25
ATOM     21  C   UNL     1      -1.424  12.144  22.668  0.00  0.00    +0.000 C 
ATOM     22  C   UNL     1      -0.687  10.959  22.118  0.00  0.00    +0.000 A 
ATOM     23  C   UNL     1      -0.412  10.854  20.756  0.00  0.00    +0.000 A 
ATOM     24  C   UNL     1       0.276   9.744  20.256  0.00  0.00    +0.000 A 
ATOM     25  C   UNL     1       0.723   8.708  21.099  0.00  0.00    +0.000 A 
ATOM     26  C   UNL     1       0.441   8.837  22.470  0.00  0.00    +0.000 A 
ATOM     27  C   UNL     1      -0.259   9.940  22.972  0.00  0.00    +0.000 A 
ENDBRANCH  15  25
ENDBRANCH   1  19
TORSDOF 3
ENDMDL
MODEL 3
REMARK VINA RESULT:      -8.2      0.739      1.702
REMARK  Name = 
REMARK  4 active torsions:
REMARK  status: ('A' for Active; 'I' for Inactive)
REMARK    1  A    between atoms: C_1  and  C_2
REMARK    2  A    between atoms: C_5  and  C_6
REMARK    3  A    between atoms: C_10  and  C_11
REMARK    4  A    between atoms: N_13  and  C_14
REMARK                            x       y       z     vdW  Elec       q    Type
REMARK                         _______ _______ _______ _____ _____    ______ ____
ROOT
ATOM      1  C   UNL     1       8.166   8.878  18.239  0.00  0.00    +0.000 C 
ATOM      2  O   UNL     1       7.542   9.693  17.564  0.00  0.00    +0.000 OA
ATOM      3  N   UNL     1       9.183   9.180  19.129  0.00  0.00    +0.000 N 
ATOM      4  H   UNL     1       9.758   8.422  19.478  0.00  0.00    +0.000 HD
ENDROOT
BRANCH   3   5
ATOM      5  C   UNL     1       9.597  10.502  19.449  0.00  0.00    +0.000 A 
ATOM      6  C   UNL     1      10.400  11.289  18.611  0.00  0.00    +0.000 A 
ATOM      7  N   UNL     1      10.833  12.554  18.853  0.00  0.00    +0.000 NA
ATOM      8  C   UNL     1      10.416  13.017  20.042  0.00  0.00    +0.000 A 
ATOM      9  N   UNL     1      10.698  14.242  20.569  0.00  0.00    +0.000 N 
ATOM     10  N   UNL     1      10.156  14.446  21.787  0.00  0.00    +0.000 NA
ATOM     11  C   UNL     1       9.508  13.299  22.027  0.00  0.00    +0.000 A 
ATOM     12  C   UNL     1       9.622  12.365  20.972  0.00  0.00    +0.000 A 
ATOM     13  C   UNL     1       9.179  11.064  20.666  0.00  0.00    +0.000 A 
ATOM     14  H   UNL     1      11.255  14.971  20.137  0.00  0.00    +0.000 HD
ENDBRANCH   3   5
BRANCH   1  19
ATOM     15  C   UNL     1       7.153   5.537  16.701  0.00  0.00    +0.000 A 
ATOM     16  C   UNL     1       7.474   4.764  17.824  0.00  0.00    +0.000 A 
ATOM     17  N   UNL     1       7.933   5.243  19.004  0.00  0.00    +0.000 NA
ATOM     18  C   UNL     1       8.116   6.579  19.075  0.00  0.00    +0.000 A 
ATOM     19  C   UNL     1       7.832   7.454  18.035  0.00  0.00    +0.000 A 
ATOM     20  C   UNL     1       7.343   6.927  16.836  0.00  0.00    +0.000 A 
BRANCH  15  25
ATOM     21  C   UNL     1       5.231   3.133  11.757  0.00  0.00    +0.000 C 
ATOM     22  C   UNL     1       5.735   3.747  13.028  0.00  0.00    +0.000 A 
ATOM     23  C   UNL     1       6.974   4.385  13.076  0.00  0.00    +0.000 A 
ATOM     24  C   UNL     1       7.432   4.953  14.269  0.00  0.00    +0.000 A 
ATOM     25  C   UNL     1       6.666   4.914  15.450  0.00  0.00    +0.000 A 
ATOM     26  C   UNL     1       5.418   4.273  15.379  0.00  0.00    +0.000 A 
ATOM     27  C   UNL     1       4.962   3.691  14.190  0.00  0.00    +0.000 A 
ENDBRANCH  15  25
ENDBRANCH   1  19
TORSDOF 3
ENDMDL
MODEL 4
REMARK VINA RESULT:      -8.1      6.787      7.404
REMARK  Name = 
REMARK  4 active torsions:
REMARK  status: ('A' for Active; 'I' for Inactive)
REMARK    1  A    between atoms: C_1  and  C_2
REMARK    2  A    between atoms: C_5  and  C_6
REMARK    3  A    between atoms: C_10  and  C_11
REMARK    4  A    between atoms: N_13  and  C_14
REMARK                            x       y       z     vdW  Elec       q    Type
REMARK                         _______ _______ _______ _____ _____    ______ ____
ROOT
ATOM      1  C   UNL     1       1.368   8.930  19.822  0.00  0.00    +0.000 C 
ATOM      2  O   UNL     1       1.065   9.237  20.972  0.00  0.00    +0.000 OA
ATOM      3  N   UNL     1       1.171   9.718  18.700  0.00  0.00    +0.000 N 
ATOM      4  H   UNL     1       1.272   9.289  17.787  0.00  0.00    +0.000 HD
ENDROOT
BRANCH   3   5
ATOM      5  C   UNL     1       0.658  11.044  18.736  0.00  0.00    +0.000 A 
ATOM      6  C   UNL     1      -0.711  11.346  18.734  0.00  0.00    +0.000 A 
ATOM      7  N   UNL     1      -1.270  12.584  18.765  0.00  0.00    +0.000 NA
ATOM      8  C   UNL     1      -0.348  13.559  18.783  0.00  0.00    +0.000 A 
ATOM      9  N   UNL     1      -0.599  14.900  18.803  0.00  0.00    +0.000 N 
ATOM     10  N   UNL     1       0.515  15.659  18.812  0.00  0.00    +0.000 NA
ATOM     11  C   UNL     1       1.502  14.753  18.799  0.00  0.00    +0.000 A 
ATOM     12  C   UNL     1       1.030  13.420  18.791  0.00  0.00    +0.000 A 
ATOM     13  C   UNL     1       1.562  12.116  18.781  0.00  0.00    +0.000 A 
ATOM     14  H   UNL     1      -1.510  15.343  18.810  0.00  0.00    +0.000 HD
ENDBRANCH   3   5
BRANCH   1  19
ATOM     15  C   UNL     1       3.308   5.938  18.467  0.00  0.00    +0.000 A 
ATOM     16  C   UNL     1       3.055   5.101  19.561  0.00  0.00    +0.000 A 
ATOM     17  N   UNL     1       2.295   5.418  20.635  0.00  0.00    +0.000 NA
ATOM     18  C   UNL     1       1.767   6.661  20.647  0.00  0.00    +0.000 A 
ATOM     19  C   UNL     1       1.939   7.583  19.623  0.00  0.00    +0.000 A 
ATOM     20  C   UNL     1       2.716   7.216  18.520  0.00  0.00    +0.000 A 
BRANCH  15  25
ATOM     21  C   UNL     1       6.638   4.222  14.007  0.00  0.00    +0.000 C 
ATOM     22  C   UNL     1       5.788   4.671  15.158  0.00  0.00    +0.000 A 
ATOM     23  C   UNL     1       5.498   6.021  15.353  0.00  0.00    +0.000 A 
ATOM     24  C   UNL     1       4.704   6.426  16.431  0.00  0.00    +0.000 A 
ATOM     25  C   UNL     1       4.164   5.499  17.342  0.00  0.00    +0.000 A 
ATOM     26  C   UNL     1       4.462   4.143  17.125  0.00  0.00    +0.000 A 
ATOM     27  C   UNL     1       5.268   3.735  16.054  0.00  0.00    +0.000 A 
ENDBRANCH  15  25
ENDBRANCH   1  19
TORSDOF 3
ENDMDL
MODEL 5
REMARK VINA RESULT:      -8.1      7.725     11.220
REMARK  Name = 
REMARK  4 active torsions:
REMARK  status: ('A' for Active; 'I' for Inactive)
REMARK    1  A    between atoms: C_1  and  C_2
REMARK    2  A    between atoms: C_5  and  C_6
REMARK    3  A    between atoms: C_10  and  C_11
REMARK    4  A    between atoms: N_13  and  C_14
REMARK                            x       y       z     vdW  Elec       q    Type
REMARK                         _______ _______ _______ _____ _____    ______ ____
ROOT
ATOM      1  C   UNL     1       2.365   8.370  18.234  0.00  0.00    +0.000 C 
ATOM      2  O   UNL     1       2.782   8.225  17.088  0.00  0.00    +0.000 OA
ATOM      3  N   UNL     1       2.346   7.391  19.213  0.00  0.00    +0.000 N 
ATOM      4  H   UNL     1       1.801   7.559  20.051  0.00  0.00    +0.000 HD
ENDROOT
BRANCH   3   5
ATOM      5  C   UNL     1       2.889   6.087  19.049  0.00  0.00    +0.000 A 
ATOM      6  C   UNL     1       4.214   5.752  19.365  0.00  0.00    +0.000 A 
ATOM      7  N   UNL     1       4.797   4.532  19.234  0.00  0.00    +0.000 NA
ATOM      8  C   UNL     1       3.956   3.616  18.730  0.00  0.00    +0.000 A 
ATOM      9  N   UNL     1       4.253   2.311  18.471  0.00  0.00    +0.000 N 
ATOM     10  N   UNL     1       3.220   1.611  17.959  0.00  0.00    +0.000 NA
ATOM     11  C   UNL     1       2.238   2.520  17.898  0.00  0.00    +0.000 A 
ATOM     12  C   UNL     1       2.628   3.792  18.374  0.00  0.00    +0.000 A 
ATOM     13  C   UNL     1       2.061   5.069  18.550  0.00  0.00    +0.000 A 
ATOM     14  H   UNL     1       5.143   1.852  18.626  0.00  0.00    +0.000 HD
ENDBRANCH   3   5
BRANCH   1  19
ATOM     15  C   UNL     1       0.392  11.194  19.872  0.00  0.00    +0.000 A 
ATOM     16  C   UNL     1       1.010  12.229  19.158  0.00  0.00    +0.000 A 
ATOM     17  N   UNL     1       1.948  12.068  18.195  0.00  0.00    +0.000 NA
ATOM     18  C   UNL     1       2.327  10.799  17.935  0.00  0.00    +0.000 A 
ATOM     19  C   UNL     1       1.788   9.687  18.569  0.00  0.00    +0.000 A 
ATOM     20  C   UNL     1       0.808   9.888  19.546  0.00  0.00    +0.000 A 
BRANCH  15  25
ATOM     21  C   UNL     1      -3.602  12.252  23.976  0.00  0.00    +0.000 C 
ATOM     22  C   UNL     1      -2.566  11.982  22.926  0.00  0.00    +0.000 A 
ATOM     23  C   UNL     1      -1.473  11.159  23.192  0.00  0.00    +0.000 A 
ATOM     24  C   UNL     1      -0.513  10.916  22.203  0.00  0.00    +0.000 A 
ATOM     25  C   UNL     1      -0.619  11.476  20.915  0.00  0.00    +0.000 A 
ATOM     26  C   UNL     1      -1.732  12.297  20.666  0.00  0.00    +0.000 A 
ATOM     27  C   UNL     1      -2.687  12.553  21.658  0.00  0.00    +0.000 A 
ENDBRANCH  15  25
ENDBRANCH   1  19
TORSDOF 3
ENDMDL
MODEL 6
REMARK VINA RESULT:      -8.0      8.080     10.907
REMARK  Name = 
REMARK  4 active torsions:
REMARK  status: ('A' for Active; 'I' for Inactive)
REMARK    1  A    between atoms: C_1  and  C_2
REMARK    2  A    between atoms: C_5  and  C_6
REMARK    3  A    between atoms: C_10  and  C_11
REMARK    4  A    between atoms: N_13  and  C_14
REMARK                            x       y       z     vdW  Elec       q    Type
REMARK                         _______ _______ _______ _____ _____    ______ ____
ROOT
ATOM      1  C   UNL     1       2.244   8.310  17.958  0.00  0.00    +0.000 C 
ATOM      2  O   UNL     1       3.074   8.291  17.053  0.00  0.00    +0.000 OA
ATOM      3  N   UNL     1       1.954   7.255  18.806  0.00  0.00    +0.000 N 
ATOM      4  H   UNL     1       1.121   7.313  19.380  0.00  0.00    +0.000 HD
ENDROOT
BRANCH   3   5
ATOM      5  C   UNL     1       2.645   6.012  18.799  0.00  0.00    +0.000 A 
ATOM      6  C   UNL     1       3.939   5.840  19.312  0.00  0.00    +0.000 A 
ATOM      7  N   UNL     1       4.657   4.686  19.337  0.00  0.00    +0.000 NA
ATOM      8  C   UNL     1       3.992   3.661  18.782  0.00  0.00    +0.000 A 
ATOM      9  N   UNL     1       4.454   2.385  18.649  0.00  0.00    +0.000 N 
ATOM     10  N   UNL     1       3.580   1.552  18.047  0.00  0.00    +0.000 NA
ATOM     11  C   UNL     1       2.529   2.344  17.797  0.00  0.00    +0.000 A 
ATOM     12  C   UNL     1       2.717   3.673  18.240  0.00  0.00    +0.000 A 
ATOM     13  C   UNL     1       2.004   4.887  18.258  0.00  0.00    +0.000 A 
ATOM     14  H   UNL     1       5.356   2.034  18.951  0.00  0.00    +0.000 HD
ENDBRANCH   3   5
BRANCH   1  19
ATOM     15  C   UNL     1      -0.613  10.813  18.310  0.00  0.00    +0.000 A 
ATOM     16  C   UNL     1       0.201  11.912  18.617  0.00  0.00    +0.000 A 
ATOM     17  N   UNL     1       1.554  11.898  18.669  0.00  0.00    +0.000 NA
ATOM     18  C   UNL     1       2.148  10.710  18.430  0.00  0.00    +0.000 A 
ATOM     19  C   UNL     1       1.456   9.549  18.110  0.00  0.00    +0.000 A 
ATOM     20  C   UNL     1       0.060   9.604  18.047  0.00  0.00    +0.000 A 
BRANCH  15  25
ATOM     21  C   UNL     1      -6.416  11.290  18.173  0.00  0.00    +0.000 C 
ATOM     22  C   UNL     1      -4.923  11.157  18.210  0.00  0.00    +0.000 A 
ATOM     23  C   UNL     1      -4.269  10.185  17.454  0.00  0.00    +0.000 A 
ATOM     24  C   UNL     1      -2.876  10.071  17.498  0.00  0.00    +0.000 A 
ATOM     25  C   UNL     1      -2.088  10.930  18.288  0.00  0.00    +0.000 A 
ATOM     26  C   UNL     1      -2.765  11.908  19.037  0.00  0.00    +0.000 A 
ATOM     27  C   UNL     1      -4.161  12.015  19.005  0.00  0.00    +0.000 A 
ENDBRANCH  15  25
ENDBRANCH   1  19
TORSDOF 3
ENDMDL
MODEL 7
REMARK VINA RESULT:      -7.9      7.214      8.099
REMARK  Name = 
REMARK  4 active torsions:
REMARK  status: ('A' for Active; 'I' for Inactive)
REMARK    1  A    between atoms: C_1  and  C_2
REMARK    2  A    between atoms: C_5  and  C_6
REMARK    3  A    between atoms: C_10  and  C_11
REMARK    4  A    between atoms: N_13  and  C_14
REMARK                            x       y       z     vdW  Elec       q    Type
REMARK                         _______ _______ _______ _____ _____    ______ ____
ROOT
ATOM      1  C   UNL     1       1.351   8.672  19.858  0.00  0.00    +0.000 C 
ATOM      2  O   UNL     1       1.064   9.331  18.862  0.00  0.00    +0.000 OA
ATOM      3  N   UNL     1       1.175   9.078  21.170  0.00  0.00    +0.000 N 
ATOM      4  H   UNL     1       1.627   8.545  21.904  0.00  0.00    +0.000 HD
ENDROOT
BRANCH   3   5
ATOM      5  C   UNL     1       0.553  10.299  21.551  0.00  0.00    +0.000 A 
ATOM      6  C   UNL     1       1.070  11.564  21.237  0.00  0.00    +0.000 A 
ATOM      7  N   UNL     1       0.531  12.767  21.569  0.00  0.00    +0.000 NA
ATOM      8  C   UNL     1      -0.600  12.640  22.280  0.00  0.00    +0.000 A 
ATOM      9  N   UNL     1      -1.359  13.663  22.767  0.00  0.00    +0.000 N 
ATOM     10  N   UNL     1      -2.445  13.252  23.455  0.00  0.00    +0.000 NA
ATOM     11  C   UNL     1      -2.357  11.917  23.392  0.00  0.00    +0.000 A 
ATOM     12  C   UNL     1      -1.232  11.468  22.663  0.00  0.00    +0.000 A 
ATOM     13  C   UNL     1      -0.648  10.247  22.276  0.00  0.00    +0.000 A 
ATOM     14  H   UNL     1      -1.179  14.654  22.657  0.00  0.00    +0.000 HD
ENDBRANCH   3   5
BRANCH   1  19
ATOM     15  C   UNL     1       3.415   5.808  18.412  0.00  0.00    +0.000 A 
ATOM     16  C   UNL     1       3.232   4.943  19.499  0.00  0.00    +0.000 A 
ATOM     17  N   UNL     1       2.482   5.204  20.594  0.00  0.00    +0.000 NA
ATOM     18  C   UNL     1       1.889   6.416  20.638  0.00  0.00    +0.000 A 
ATOM     19  C   UNL     1       1.988   7.360  19.625  0.00  0.00    +0.000 A 
ATOM     20  C   UNL     1       2.757   7.051  18.499  0.00  0.00    +0.000 A 
BRANCH  15  25
ATOM     21  C   UNL     1       6.728   4.341  13.852  0.00  0.00    +0.000 C 
ATOM     22  C   UNL     1       5.882   4.726  15.029  0.00  0.00    +0.000 A 
ATOM     23  C   UNL     1       5.588   6.062  15.296  0.00  0.00    +0.000 A 
ATOM     24  C   UNL     1       4.798   6.407  16.398  0.00  0.00    +0.000 A 
ATOM     25  C   UNL     1       4.266   5.432  17.262  0.00  0.00    +0.000 A 
ATOM     26  C   UNL     1       4.569   4.090  16.972  0.00  0.00    +0.000 A 
ATOM     27  C   UNL     1       5.370   3.742  15.878  0.00  0.00    +0.000 A 
ENDBRANCH  15  25
ENDBRANCH   1  19
TORSDOF 3
ENDMDL
MODEL 8
REMARK VINA RESULT:      -7.9      5.942      9.304
REMARK  Name = 
REMARK  4 active torsions:
REMARK  status: ('A' for Active; 'I' for Inactive)
REMARK    1  A    between atoms: C_1  and  C_2
REMARK    2  A    between atoms: C_5  and  C_6
REMARK    3  A    between atoms: C_10  and  C_11
REMARK    4  A    between atoms: N_13  and  C_14
REMARK                            x       y       z     vdW  Elec       q    Type
REMARK                         _______ _______ _______ _____ _____    ______ ____
ROOT
ATOM      1  C   UNL     1       4.684   4.759  18.161  0.00  0.00    +0.000 C 
ATOM      2  O   UNL     1       5.582   3.992  18.496  0.00  0.00    +0.000 OA
ATOM      3  N   UNL     1       4.569   5.373  16.925  0.00  0.00    +0.000 N 
ATOM      4  H   UNL     1       3.908   6.135  16.826  0.00  0.00    +0.000 HD
ENDROOT
BRANCH   3   5
ATOM      5  C   UNL     1       5.443   5.132  15.830  0.00  0.00    +0.000 A 
ATOM      6  C   UNL     1       6.731   5.677  15.731  0.00  0.00    +0.000 A 
ATOM      7  N   UNL     1       7.617   5.491  14.716  0.00  0.00    +0.000 NA
ATOM      8  C   UNL     1       7.122   4.706  13.746  0.00  0.00    +0.000 A 
ATOM      9  N   UNL     1       7.766   4.350  12.598  0.00  0.00    +0.000 N 
ATOM     10  N   UNL     1       7.034   3.556  11.791  0.00  0.00    +0.000 NA
ATOM     11  C   UNL     1       5.886   3.411  12.466  0.00  0.00    +0.000 A 
ATOM     12  C   UNL     1       5.879   4.097  13.702  0.00  0.00    +0.000 A 
ATOM     13  C   UNL     1       5.005   4.300  14.788  0.00  0.00    +0.000 A 
ATOM     14  H   UNL     1       8.702   4.623  12.321  0.00  0.00    +0.000 HD
ENDBRANCH   3   5
BRANCH   1  19
ATOM     15  C   UNL     1       2.062   6.550  20.275  0.00  0.00    +0.000 A 
ATOM     16  C   UNL     1       1.697   5.426  21.027  0.00  0.00    +0.000 A 
ATOM     17  N   UNL     1       2.254   4.197  20.924  0.00  0.00    +0.000 NA
ATOM     18  C   UNL     1       3.222   4.056  19.994  0.00  0.00    +0.000 A 
ATOM     19  C   UNL     1       3.677   5.092  19.189  0.00  0.00    +0.000 A 
ATOM     20  C   UNL     1       3.092   6.353  19.334  0.00  0.00    +0.000 A 
BRANCH  15  25
ATOM     21  C   UNL     1      -0.660  11.650  20.986  0.00  0.00    +0.000 C 
ATOM     22  C   UNL     1       0.045  10.338  20.812  0.00  0.00    +0.000 A 
ATOM     23  C   UNL     1      -0.033   9.347  21.790  0.00  0.00    +0.000 A 
ATOM     24  C   UNL     1       0.630   8.127  21.615  0.00  0.00    +0.000 A 
ATOM     25  C   UNL     1       1.382   7.852  20.457  0.00  0.00    +0.000 A 
ATOM     26  C   UNL     1       1.442   8.862  19.481  0.00  0.00    +0.000 A 
ATOM     27  C   UNL     1       0.791  10.089  19.658  0.00  0.00    +0.000 A 
ENDBRANCH  15  25
ENDBRANCH   1  19
TORSDOF 3
ENDMDL
MODEL 9
REMARK VINA RESULT:      -7.9      6.353      7.539
REMARK  Name = 
REMARK  4 active torsions:
REMARK  status: ('A' for Active; 'I' for Inactive)
REMARK    1  A    between atoms: C_1  and  C_2
REMARK    2  A    between atoms: C_5  and  C_6
REMARK    3  A    between atoms: C_10  and  C_11
REMARK    4  A    between atoms: N_13  and  C_14
REMARK                            x       y       z     vdW  Elec       q    Type
REMARK                         _______ _______ _______ _____ _____    ______ ____
ROOT
ATOM      1  C   UNL     1       1.845   6.077  20.323  0.00  0.00    +0.000 C 
ATOM      2  O   UNL     1       0.803   5.653  20.817  0.00  0.00    +0.000 OA
ATOM      3  N   UNL     1       2.206   7.411  20.230  0.00  0.00    +0.000 N 
ATOM      4  H   UNL     1       2.985   7.658  19.630  0.00  0.00    +0.000 HD
ENDROOT
BRANCH   3   5
ATOM      5  C   UNL     1       1.446   8.484  20.773  0.00  0.00    +0.000 A 
ATOM      6  C   UNL     1       1.428   8.808  22.137  0.00  0.00    +0.000 A 
ATOM      7  N   UNL     1       0.727   9.815  22.723  0.00  0.00    +0.000 NA
ATOM      8  C   UNL     1      -0.005  10.509  21.839  0.00  0.00    +0.000 A 
ATOM      9  N   UNL     1      -0.820  11.564  22.125  0.00  0.00    +0.000 N 
ATOM     10  N   UNL     1      -1.445  12.075  21.045  0.00  0.00    +0.000 NA
ATOM     11  C   UNL     1      -1.000  11.305  20.043  0.00  0.00    +0.000 A 
ATOM     12  C   UNL     1      -0.088  10.312  20.470  0.00  0.00    +0.000 A 
ATOM     13  C   UNL     1       0.674   9.271  19.905  0.00  0.00    +0.000 A 
ATOM     14  H   UNL     1      -0.982  11.971  23.039  0.00  0.00    +0.000 HD
ENDBRANCH   3   5
BRANCH   1  19
ATOM     15  C   UNL     1       4.421   4.310  18.134  0.00  0.00    +0.000 A 
ATOM     16  C   UNL     1       4.527   3.168  18.938  0.00  0.00    +0.000 A 
ATOM     17  N   UNL     1       3.816   2.931  20.065  0.00  0.00    +0.000 NA
ATOM     18  C   UNL     1       2.958   3.901  20.445  0.00  0.00    +0.000 A 
ATOM     19  C   UNL     1       2.756   5.077  19.734  0.00  0.00    +0.000 A 
ATOM     20  C   UNL     1       3.495   5.281  18.564  0.00  0.00    +0.000 A 
BRANCH  15  25
ATOM     21  C   UNL     1       7.694   5.027  13.370  0.00  0.00    +0.000 C 
ATOM     22  C   UNL     1       6.859   4.837  14.601  0.00  0.00    +0.000 A 
ATOM     23  C   UNL     1       7.374   5.110  15.867  0.00  0.00    +0.000 A 
ATOM     24  C   UNL     1       6.585   4.928  17.008  0.00  0.00    +0.000 A 
ATOM     25  C   UNL     1       5.253   4.479  16.922  0.00  0.00    +0.000 A 
ATOM     26  C   UNL     1       4.750   4.216  15.636  0.00  0.00    +0.000 A 
ATOM     27  C   UNL     1       5.542   4.385  14.493  0.00  0.00    +0.000 A 
ENDBRANCH  15  25
ENDBRANCH   1  19
TORSDOF 3
ENDMDL
