MODEL 1
REMARK VINA RESULT:      -8.8      0.000      0.000
REMARK  Name = 
REMARK  6 active torsions:
REMARK  status: ('A' for Active; 'I' for Inactive)
REMARK    1  A    between atoms: C_1  and  C_2
REMARK    2  A    between atoms: C_6  and  C_7
REMARK    3  A    between atoms: C_10  and  C_11
REMARK    4  A    between atoms: C_14  and  C_15
REMARK    5  A    between atoms: N_17  and  C_18
REMARK    6  A    between atoms: C_18  and  C_19
REMARK                            x       y       z     vdW  Elec       q    Type
REMARK                         _______ _______ _______ _____ _____    ______ ____
ROOT
ATOM      1  C   UNL     1       3.681   6.714  18.022  0.00  0.00    +0.000 A 
ATOM      2  C   UNL     1       3.088   6.403  19.258  0.00  0.00    +0.000 A 
ATOM      3  C   UNL     1       2.135   7.253  19.845  0.00  0.00    +0.000 A 
ATOM      4  C   UNL     1       1.753   8.432  19.196  0.00  0.00    +0.000 A 
ATOM      5  C   UNL     1       2.354   8.757  17.971  0.00  0.00    +0.000 A 
ATOM      6  C   UNL     1       3.302   7.904  17.388  0.00  0.00    +0.000 A 
ENDROOT
BRANCH   1  10
ATOM      7  C   UNL     1       5.806   4.889  15.884  0.00  0.00    +0.000 A 
ATOM      8  N   UNL     1       6.188   4.330  17.018  0.00  0.00    +0.000 NA
ATOM      9  N   UNL     1       5.455   4.929  18.020  0.00  0.00    +0.000 NA
ATOM     10  C   UNL     1       4.667   5.809  17.440  0.00  0.00    +0.000 A 
ATOM     11  O   UNL     1       4.837   5.843  16.074  0.00  0.00    +0.000 OA
BRANCH   7  17
ATOM     12  C   UNL     1       5.374   2.420  11.569  0.00  0.00    +0.000 C 
ATOM     13  C   UNL     1       6.088   3.435  12.413  0.00  0.00    +0.000 A 
ATOM     14  C   UNL     1       7.219   4.101  11.933  0.00  0.00    +0.000 A 
ATOM     15  C   UNL     1       7.870   5.047  12.725  0.00  0.00    +0.000 A 
ATOM     16  C   UNL     1       7.400   5.332  14.009  0.00  0.00    +0.000 A 
ATOM     17  C   UNL     1       6.282   4.663  14.526  0.00  0.00    +0.000 A 
ATOM     18  C   UNL     1       5.627   3.725  13.708  0.00  0.00    +0.000 A 
ENDBRANCH   7  17
ENDBRANCH   1  10
BRANCH   4  19
ATOM     19  C   UNL     1       0.748   9.383  19.756  0.00  0.00    +0.000 C 
ATOM     20  O   UNL     1       0.766   9.639  20.955  0.00  0.00    +0.000 OA
ATOM     21  N   UNL     1      -0.137   9.967  18.874  0.00  0.00    +0.000 N 
ATOM     22  H   UNL     1      -0.102   9.753  17.888  0.00  0.00    +0.000 HD
BRANCH  21  23
ATOM     23  C   UNL     1      -1.106  10.956  19.314  0.00  0.00    +0.000 C 
BRANCH  23  24
ATOM     24  C   UNL     1      -2.312  11.020  18.417  0.00  0.00    +0.000 A 
ATOM     25  C   UNL     1      -2.353  10.348  17.191  0.00  0.00    +0.000 A 
ATOM     26  C   UNL     1      -3.481  10.451  16.378  0.00  0.00    +0.000 A 
ATOM     27  C   UNL     1      -4.536  11.233  16.814  0.00  0.00    +0.000 A 
ATOM     28  N   UNL     1      -4.531  11.909  17.985  0.00  0.00    +0.000 NA
ATOM     29  C   UNL     1      -3.421  11.792  18.751  0.00  0.00    +0.000 A 
ENDBRANCH  23  24
ENDBRANCH  21  23
ENDBRANCH   4  19
TORSDOF 5
ENDMDL
MODEL 2
REMARK VINA RESULT:      -8.8      2.565     10.994
REMARK  Name = 
REMARK  6 active torsions:
REMARK  status: ('A' for Active; 'I' for Inactive)
REMARK    1  A    between atoms: C_1  and  C_2
REMARK    2  A    between atoms: C_6  and  C_7
REMARK    3  A    between atoms: C_10  and  C_11
REMARK    4  A    between atoms: C_14  and  C_15
REMARK    5  A    between atoms: N_17  and  C_18
REMARK    6  A    between atoms: C_18  and  C_19
REMARK                            x       y       z     vdW  Elec       q    Type
REMARK                         _______ _______ _______ _____ _____    ______ ____
ROOT
ATOM      1  C   UNL     1       1.301   9.201  20.052  0.00  0.00    +0.000 A 
ATOM      2  C   UNL     1       1.446   8.069  20.873  0.00  0.00    +0.000 A 
ATOM      3  C   UNL     1       1.965   6.864  20.370  0.00  0.00    +0.000 A 
ATOM      4  C   UNL     1       2.357   6.774  19.030  0.00  0.00    +0.000 A 
ATOM      5  C   UNL     1       2.198   7.894  18.201  0.00  0.00    +0.000 A 
ATOM      6  C   UNL     1       1.683   9.095  18.707  0.00  0.00    +0.000 A 
ENDROOT
BRANCH   1  10
ATOM      7  C   UNL     1      -0.756  11.790  21.270  0.00  0.00    +0.000 A 
ATOM      8  N   UNL     1       0.403  12.402  21.437  0.00  0.00    +0.000 NA
ATOM      9  N   UNL     1       1.378  11.525  21.012  0.00  0.00    +0.000 NA
ATOM     10  C   UNL     1       0.759  10.437  20.605  0.00  0.00    +0.000 A 
ATOM     11  O   UNL     1      -0.607  10.531  20.741  0.00  0.00    +0.000 OA
BRANCH   7  17
ATOM     12  C   UNL     1      -4.322  12.481  24.691  0.00  0.00    +0.000 C 
ATOM     13  C   UNL     1      -3.866  12.559  23.263  0.00  0.00    +0.000 A 
ATOM     14  C   UNL     1      -4.733  12.989  22.255  0.00  0.00    +0.000 A 
ATOM     15  C   UNL     1      -4.295  13.062  20.932  0.00  0.00    +0.000 A 
ATOM     16  C   UNL     1      -2.988  12.698  20.603  0.00  0.00    +0.000 A 
ATOM     17  C   UNL     1      -2.103  12.240  21.590  0.00  0.00    +0.000 A 
ATOM     18  C   UNL     1      -2.555  12.189  22.921  0.00  0.00    +0.000 A 
ENDBRANCH   7  17
ENDBRANCH   1  10
BRANCH   4  19
ATOM     19  C   UNL     1       2.917   5.529  18.425  0.00  0.00    +0.000 C 
ATOM     20  O   UNL     1       2.210   4.849  17.688  0.00  0.00    +0.000 OA
ATOM     21  N   UNL     1       4.235   5.227  18.695  0.00  0.00    +0.000 N 
ATOM     22  H   UNL     1       4.793   5.828  19.284  0.00  0.00    +0.000 HD
BRANCH  21  23
ATOM     23  C   UNL     1       4.887   4.074  18.098  0.00  0.00    +0.000 C 
BRANCH  23  24
ATOM     24  C   UNL     1       5.611   4.418  16.825  0.00  0.00    +0.000 A 
ATOM     25  C   UNL     1       5.173   3.955  15.581  0.00  0.00    +0.000 A 
ATOM     26  C   UNL     1       5.886   4.279  14.426  0.00  0.00    +0.000 A 
ATOM     27  C   UNL     1       7.025   5.054  14.553  0.00  0.00    +0.000 A 
ATOM     28  N   UNL     1       7.489   5.510  15.738  0.00  0.00    +0.000 NA
ATOM     29  C   UNL     1       6.778   5.177  16.840  0.00  0.00    +0.000 A 
ENDBRANCH  23  24
ENDBRANCH  21  23
ENDBRANCH   4  19
TORSDOF 5
ENDMDL
MODEL 3
REMARK VINA RESULT:      -8.8      2.406     11.067
REMARK  Name = 
REMARK  6 active torsions:
REMARK  status: ('A' for Active; 'I' for Inactive)
REMARK    1  A    between atoms: C_1  and  C_2
REMARK    2  A    between atoms: C_6  and  C_7
REMARK    3  A    between atoms: C_10  and  C_11
REMARK    4  A    between atoms: C_14  and  C_15
REMARK    5  A    between atoms: N_17  and  C_18
REMARK    6  A    between atoms: C_18  and  C_19
REMARK                            x       y       z     vdW  Elec       q    Type
REMARK                         _______ _______ _______ _____ _____    ______ ____
ROOT
ATOM      1  C   UNL     1       1.155   9.639  19.522  0.00  0.00    +0.000 A 
ATOM      2  C   UNL     1       1.629   9.458  18.211  0.00  0.00    +0.000 A 
ATOM      3  C   UNL     1       2.264   8.267  17.822  0.00  0.00    +0.000 A 
ATOM      4  C   UNL     1       2.429   7.227  18.744  0.00  0.00    +0.000 A 
ATOM      5  C   UNL     1       1.975   7.408  20.058  0.00  0.00    +0.000 A 
ATOM      6  C   UNL     1       1.339   8.597  20.441  0.00  0.00    +0.000 A 
ENDROOT
BRANCH   1  10
ATOM      7  C   UNL     1      -1.091  12.140  20.578  0.00  0.00    +0.000 A 
ATOM      8  N   UNL     1      -0.067  12.932  20.319  0.00  0.00    +0.000 NA
ATOM      9  N   UNL     1       0.959  12.121  19.882  0.00  0.00    +0.000 NA
ATOM     10  C   UNL     1       0.499  10.888  19.894  0.00  0.00    +0.000 A 
ATOM     11  O   UNL     1      -0.805  10.820  20.330  0.00  0.00    +0.000 OA
BRANCH   7  17
ATOM     12  C   UNL     1      -4.128  12.579  24.513  0.00  0.00    +0.000 C 
ATOM     13  C   UNL     1      -3.913  12.657  23.030  0.00  0.00    +0.000 A 
ATOM     14  C   UNL     1      -4.966  12.968  22.167  0.00  0.00    +0.000 A 
ATOM     15  C   UNL     1      -4.752  13.044  20.790  0.00  0.00    +0.000 A 
ATOM     16  C   UNL     1      -3.482  12.801  20.262  0.00  0.00    +0.000 A 
ATOM     17  C   UNL     1      -2.411  12.464  21.102  0.00  0.00    +0.000 A 
ATOM     18  C   UNL     1      -2.641  12.409  22.489  0.00  0.00    +0.000 A 
ENDBRANCH   7  17
ENDBRANCH   1  10
BRANCH   4  19
ATOM     19  C   UNL     1       3.093   5.933  18.405  0.00  0.00    +0.000 C 
ATOM     20  O   UNL     1       2.450   5.062  17.827  0.00  0.00    +0.000 OA
ATOM     21  N   UNL     1       4.427   5.797  18.726  0.00  0.00    +0.000 N 
ATOM     22  H   UNL     1       4.929   6.549  19.175  0.00  0.00    +0.000 HD
BRANCH  21  23
ATOM     23  C   UNL     1       5.174   4.602  18.375  0.00  0.00    +0.000 C 
BRANCH  23  24
ATOM     24  C   UNL     1       5.799   4.694  17.009  0.00  0.00    +0.000 A 
ATOM     25  C   UNL     1       5.348   3.915  15.940  0.00  0.00    +0.000 A 
ATOM     26  C   UNL     1       5.970   4.014  14.695  0.00  0.00    +0.000 A 
ATOM     27  C   UNL     1       7.034   4.888  14.560  0.00  0.00    +0.000 A 
ATOM     28  N   UNL     1       7.509   5.648  15.572  0.00  0.00    +0.000 NA
ATOM     29  C   UNL     1       6.887   5.528  16.768  0.00  0.00    +0.000 A 
ENDBRANCH  23  24
ENDBRANCH  21  23
ENDBRANCH   4  19
TORSDOF 5
ENDMDL
MODEL 4
REMARK VINA RESULT:      -8.7      2.714     10.731
REMARK  Name = 
REMARK  6 active torsions:
REMARK  status: ('A' for Active; 'I' for Inactive)
REMARK    1  A    between atoms: C_1  and  C_2
REMARK    2  A    between atoms: C_6  and  C_7
REMARK    3  A    between atoms: C_10  and  C_11
REMARK    4  A    between atoms: C_14  and  C_15
REMARK    5  A    between atoms: N_17  and  C_18
REMARK    6  A    between atoms: C_18  and  C_19
REMARK                            x       y       z     vdW  Elec       q    Type
REMARK                         _______ _______ _______ _____ _____    ______ ____
ROOT
ATOM      1  C   UNL     1       1.580   7.619  20.419  0.00  0.00    +0.000 A 
ATOM      2  C   UNL     1       1.470   6.277  20.823  0.00  0.00    +0.000 A 
ATOM      3  C   UNL     1       1.884   5.226  19.988  0.00  0.00    +0.000 A 
ATOM      4  C   UNL     1       2.426   5.504  18.729  0.00  0.00    +0.000 A 
ATOM      5  C   UNL     1       2.522   6.839  18.311  0.00  0.00    +0.000 A 
ATOM      6  C   UNL     1       2.110   7.885  19.149  0.00  0.00    +0.000 A 
ENDROOT
BRANCH   1  10
ATOM      7  C   UNL     1      -0.066  10.326  21.962  0.00  0.00    +0.000 A 
ATOM      8  N   UNL     1       0.849  10.131  22.894  0.00  0.00    +0.000 NA
ATOM      9  N   UNL     1       1.623   9.071  22.473  0.00  0.00    +0.000 NA
ATOM     10  C   UNL     1       1.141   8.687  21.310  0.00  0.00    +0.000 A 
ATOM     11  O   UNL     1       0.058   9.441  20.918  0.00  0.00    +0.000 OA
BRANCH   7  17
ATOM     12  C   UNL     1      -3.876  12.571  24.273  0.00  0.00    +0.000 C 
ATOM     13  C   UNL     1      -3.046  12.374  23.038  0.00  0.00    +0.000 A 
ATOM     14  C   UNL     1      -3.354  13.046  21.851  0.00  0.00    +0.000 A 
ATOM     15  C   UNL     1      -2.571  12.860  20.712  0.00  0.00    +0.000 A 
ATOM     16  C   UNL     1      -1.477  11.993  20.745  0.00  0.00    +0.000 A 
ATOM     17  C   UNL     1      -1.159  11.287  21.914  0.00  0.00    +0.000 A 
ATOM     18  C   UNL     1      -1.948  11.500  23.059  0.00  0.00    +0.000 A 
ENDBRANCH   7  17
ENDBRANCH   1  10
BRANCH   4  19
ATOM     19  C   UNL     1       2.889   4.441  17.786  0.00  0.00    +0.000 C 
ATOM     20  O   UNL     1       2.060   3.712  17.251  0.00  0.00    +0.000 OA
ATOM     21  N   UNL     1       4.241   4.362  17.530  0.00  0.00    +0.000 N 
ATOM     22  H   UNL     1       4.889   5.001  17.968  0.00  0.00    +0.000 HD
BRANCH  21  23
ATOM     23  C   UNL     1       4.778   3.406  16.577  0.00  0.00    +0.000 C 
BRANCH  23  24
ATOM     24  C   UNL     1       5.722   4.042  15.593  0.00  0.00    +0.000 A 
ATOM     25  C   UNL     1       5.672   3.744  14.228  0.00  0.00    +0.000 A 
ATOM     26  C   UNL     1       6.581   4.339  13.352  0.00  0.00    +0.000 A 
ATOM     27  C   UNL     1       7.519   5.212  13.872  0.00  0.00    +0.000 A 
ATOM     28  N   UNL     1       7.609   5.517  15.186  0.00  0.00    +0.000 NA
ATOM     29  C   UNL     1       6.716   4.922  16.011  0.00  0.00    +0.000 A 
ENDBRANCH  23  24
ENDBRANCH  21  23
ENDBRANCH   4  19
TORSDOF 5
ENDMDL
MODEL 5
REMARK VINA RESULT:      -8.6      2.415     11.004
REMARK  Name = 
REMARK  6 active torsions:
REMARK  status: ('A' for Active; 'I' for Inactive)
REMARK    1  A    between atoms: C_1  and  C_2
REMARK    2  A    between atoms: C_6  and  C_7
REMARK    3  A    between atoms: C_10  and  C_11
REMARK    4  A    between atoms: C_14  and  C_15
REMARK    5  A    between atoms: N_17  and  C_18
REMARK    6  A    between atoms: C_18  and  C_19
REMARK                            x       y       z     vdW  Elec       q    Type
REMARK                         _______ _______ _______ _____ _____    ______ ____
ROOT
ATOM      1  C   UNL     1       1.128   9.444  19.423  0.00  0.00    +0.000 A 
ATOM      2  C   UNL     1       1.296   8.466  20.418  0.00  0.00    +0.000 A 
ATOM      3  C   UNL     1       1.976   7.265  20.155  0.00  0.00    +0.000 A 
ATOM      4  C   UNL     1       2.509   7.026  18.884  0.00  0.00    +0.000 A 
ATOM      5  C   UNL     1       2.330   7.989  17.881  0.00  0.00    +0.000 A 
ATOM      6  C   UNL     1       1.653   9.187  18.149  0.00  0.00    +0.000 A 
ENDROOT
BRANCH   1  10
ATOM      7  C   UNL     1      -1.082  11.910  20.627  0.00  0.00    +0.000 A 
ATOM      8  N   UNL     1      -0.324  12.706  19.895  0.00  0.00    +0.000 NA
ATOM      9  N   UNL     1       0.645  11.911  19.320  0.00  0.00    +0.000 NA
ATOM     10  C   UNL     1       0.417  10.681  19.729  0.00  0.00    +0.000 A 
ATOM     11  O   UNL     1      -0.670  10.601  20.569  0.00  0.00    +0.000 OA
BRANCH   7  17
ATOM     12  C   UNL     1      -5.679  13.801  21.064  0.00  0.00    +0.000 C 
ATOM     13  C   UNL     1      -4.471  13.178  21.699  0.00  0.00    +0.000 A 
ATOM     14  C   UNL     1      -4.412  12.968  23.080  0.00  0.00    +0.000 A 
ATOM     15  C   UNL     1      -3.286  12.383  23.657  0.00  0.00    +0.000 A 
ATOM     16  C   UNL     1      -2.202  12.008  22.861  0.00  0.00    +0.000 A 
ATOM     17  C   UNL     1      -2.222  12.228  21.476  0.00  0.00    +0.000 A 
ATOM     18  C   UNL     1      -3.373  12.803  20.908  0.00  0.00    +0.000 A 
ENDBRANCH   7  17
ENDBRANCH   1  10
BRANCH   4  19
ATOM     19  C   UNL     1       3.245   5.775  18.530  0.00  0.00    +0.000 C 
ATOM     20  O   UNL     1       2.628   4.834  18.041  0.00  0.00    +0.000 OA
ATOM     21  N   UNL     1       4.608   5.759  18.734  0.00  0.00    +0.000 N 
ATOM     22  H   UNL     1       5.085   6.565  19.112  0.00  0.00    +0.000 HD
BRANCH  21  23
ATOM     23  C   UNL     1       5.418   4.613  18.357  0.00  0.00    +0.000 C 
BRANCH  23  24
ATOM     24  C   UNL     1       5.913   4.700  16.939  0.00  0.00    +0.000 A 
ATOM     25  C   UNL     1       5.300   3.992  15.901  0.00  0.00    +0.000 A 
ATOM     26  C   UNL     1       5.804   4.082  14.603  0.00  0.00    +0.000 A 
ATOM     27  C   UNL     1       6.916   4.876  14.385  0.00  0.00    +0.000 A 
ATOM     28  N   UNL     1       7.546   5.565  15.362  0.00  0.00    +0.000 NA
ATOM     29  C   UNL     1       7.036   5.455  16.611  0.00  0.00    +0.000 A 
ENDBRANCH  23  24
ENDBRANCH  21  23
ENDBRANCH   4  19
TORSDOF 5
ENDMDL
MODEL 6
REMARK VINA RESULT:      -8.5      0.535      1.298
REMARK  Name = 
REMARK  6 active torsions:
REMARK  status: ('A' for Active; 'I' for Inactive)
REMARK    1  A    between atoms: C_1  and  C_2
REMARK    2  A    between atoms: C_6  and  C_7
REMARK    3  A    between atoms: C_10  and  C_11
REMARK    4  A    between atoms: C_14  and  C_15
REMARK    5  A    between atoms: N_17  and  C_18
REMARK    6  A    between atoms: C_18  and  C_19
REMARK                            x       y       z     vdW  Elec       q    Type
REMARK                         _______ _______ _______ _____ _____    ______ ____
ROOT
ATOM      1  C   UNL     1       3.709   6.614  18.044  0.00  0.00    +0.000 A 
ATOM      2  C   UNL     1       3.334   7.794  17.379  0.00  0.00    +0.000 A 
ATOM      3  C   UNL     1       2.392   8.677  17.932  0.00  0.00    +0.000 A 
ATOM      4  C   UNL     1       1.810   8.393  19.173  0.00  0.00    +0.000 A 
ATOM      5  C   UNL     1       2.166   7.209  19.834  0.00  0.00    +0.000 A 
ATOM      6  C   UNL     1       3.110   6.333  19.280  0.00  0.00    +0.000 A 
ENDROOT
BRANCH   1  10
ATOM      7  C   UNL     1       5.820   4.820  15.866  0.00  0.00    +0.000 A 
ATOM      8  N   UNL     1       6.210   4.246  16.989  0.00  0.00    +0.000 NA
ATOM      9  N   UNL     1       5.484   4.831  18.005  0.00  0.00    +0.000 NA
ATOM     10  C   UNL     1       4.692   5.718  17.442  0.00  0.00    +0.000 A 
ATOM     11  O   UNL     1       4.851   5.771  16.076  0.00  0.00    +0.000 OA
BRANCH   7  17
ATOM     12  C   UNL     1       5.395   2.370  11.540  0.00  0.00    +0.000 C 
ATOM     13  C   UNL     1       6.095   3.395  12.383  0.00  0.00    +0.000 A 
ATOM     14  C   UNL     1       7.207   4.087  11.896  0.00  0.00    +0.000 A 
ATOM     15  C   UNL     1       7.847   5.042  12.687  0.00  0.00    +0.000 A 
ATOM     16  C   UNL     1       7.384   5.309  13.978  0.00  0.00    +0.000 A 
ATOM     17  C   UNL     1       6.285   4.613  14.501  0.00  0.00    +0.000 A 
ATOM     18  C   UNL     1       5.642   3.666  13.684  0.00  0.00    +0.000 A 
ENDBRANCH   7  17
ENDBRANCH   1  10
BRANCH   4  19
ATOM     19  C   UNL     1       0.803   9.283  19.824  0.00  0.00    +0.000 C 
ATOM     20  O   UNL     1       0.755   9.338  21.049  0.00  0.00    +0.000 OA
ATOM     21  N   UNL     1      -0.005  10.039  19.003  0.00  0.00    +0.000 N 
ATOM     22  H   UNL     1       0.085   9.987  17.998  0.00  0.00    +0.000 HD
BRANCH  21  23
ATOM     23  C   UNL     1      -0.968  10.983  19.545  0.00  0.00    +0.000 C 
BRANCH  23  24
ATOM     24  C   UNL     1      -2.217  11.073  18.713  0.00  0.00    +0.000 A 
ATOM     25  C   UNL     1      -3.284  11.902  19.074  0.00  0.00    +0.000 A 
ATOM     26  C   UNL     1      -4.435  11.940  18.286  0.00  0.00    +0.000 A 
ATOM     27  C   UNL     1      -4.486  11.138  17.160  0.00  0.00    +0.000 A 
ATOM     28  N   UNL     1      -3.483  10.313  16.784  0.00  0.00    +0.000 NA
ATOM     29  C   UNL     1      -2.381  10.296  17.569  0.00  0.00    +0.000 A 
ENDBRANCH  23  24
ENDBRANCH  21  23
ENDBRANCH   4  19
TORSDOF 5
ENDMDL
MODEL 7
REMARK VINA RESULT:      -8.5      4.518      6.537
REMARK  Name = 
REMARK  6 active torsions:
REMARK  status: ('A' for Active; 'I' for Inactive)
REMARK    1  A    between atoms: C_1  and  C_2
REMARK    2  A    between atoms: C_6  and  C_7
REMARK    3  A    between atoms: C_10  and  C_11
REMARK    4  A    between atoms: C_14  and  C_15
REMARK    5  A    between atoms: N_17  and  C_18
REMARK    6  A    between atoms: C_18  and  C_19
REMARK                            x       y       z     vdW  Elec       q    Type
REMARK                         _______ _______ _______ _____ _____    ______ ____
ROOT
ATOM      1  C   UNL     1       0.457   9.316  21.081  0.00  0.00    +0.000 A 
ATOM      2  C   UNL     1      -0.001  10.471  20.423  0.00  0.00    +0.000 A 
ATOM      3  C   UNL     1      -0.777  11.433  21.091  0.00  0.00    +0.000 A 
ATOM      4  C   UNL     1      -1.102  11.257  22.440  0.00  0.00    +0.000 A 
ATOM      5  C   UNL     1      -0.664  10.099  23.098  0.00  0.00    +0.000 A 
ATOM      6  C   UNL     1       0.113   9.143  22.428  0.00  0.00    +0.000 A 
ENDROOT
BRANCH   1  10
ATOM      7  C   UNL     1       2.122   6.424  19.949  0.00  0.00    +0.000 A 
ATOM      8  N   UNL     1       2.556   7.246  19.011  0.00  0.00    +0.000 NA
ATOM      9  N   UNL     1       1.997   8.478  19.276  0.00  0.00    +0.000 NA
ATOM     10  C   UNL     1       1.262   8.336  20.358  0.00  0.00    +0.000 A 
ATOM     11  O   UNL     1       1.290   7.049  20.845  0.00  0.00    +0.000 OA
BRANCH   7  17
ATOM     12  C   UNL     1       3.462   2.045  17.968  0.00  0.00    +0.000 C 
ATOM     13  C   UNL     1       3.003   2.842  19.153  0.00  0.00    +0.000 A 
ATOM     14  C   UNL     1       2.753   2.224  20.381  0.00  0.00    +0.000 A 
ATOM     15  C   UNL     1       2.332   2.977  21.477  0.00  0.00    +0.000 A 
ATOM     16  C   UNL     1       2.148   4.356  21.354  0.00  0.00    +0.000 A 
ATOM     17  C   UNL     1       2.368   4.999  20.128  0.00  0.00    +0.000 A 
ATOM     18  C   UNL     1       2.809   4.228  19.037  0.00  0.00    +0.000 A 
ENDBRANCH   7  17
ENDBRANCH   1  10
BRANCH   4  19
ATOM     19  C   UNL     1      -1.921  12.235  23.217  0.00  0.00    +0.000 C 
ATOM     20  O   UNL     1      -1.478  13.361  23.420  0.00  0.00    +0.000 OA
ATOM     21  N   UNL     1      -3.170  11.829  23.637  0.00  0.00    +0.000 N 
ATOM     22  H   UNL     1      -3.511  10.902  23.424  0.00  0.00    +0.000 HD
BRANCH  21  23
ATOM     23  C   UNL     1      -4.065  12.732  24.339  0.00  0.00    +0.000 C 
BRANCH  23  24
ATOM     24  C   UNL     1      -5.412  12.838  23.677  0.00  0.00    +0.000 A 
ATOM     25  C   UNL     1      -5.542  13.138  22.318  0.00  0.00    +0.000 A 
ATOM     26  C   UNL     1      -6.810  13.249  21.748  0.00  0.00    +0.000 A 
ATOM     27  C   UNL     1      -7.914  13.064  22.560  0.00  0.00    +0.000 A 
ATOM     28  N   UNL     1      -7.832  12.786  23.880  0.00  0.00    +0.000 NA
ATOM     29  C   UNL     1      -6.589  12.688  24.406  0.00  0.00    +0.000 A 
ENDBRANCH  23  24
ENDBRANCH  21  23
ENDBRANCH   4  19
TORSDOF 5
ENDMDL
MODEL 8
REMARK VINA RESULT:      -8.5      2.684     11.046
REMARK  Name = 
REMARK  6 active torsions:
REMARK  status: ('A' for Active; 'I' for Inactive)
REMARK    1  A    between atoms: C_1  and  C_2
REMARK    2  A    between atoms: C_6  and  C_7
REMARK    3  A    between atoms: C_10  and  C_11
REMARK    4  A    between atoms: C_14  and  C_15
REMARK    5  A    between atoms: N_17  and  C_18
REMARK    6  A    between atoms: C_18  and  C_19
REMARK                            x       y       z     vdW  Elec       q    Type
REMARK                         _______ _______ _______ _____ _____    ______ ____
ROOT
ATOM      1  C   UNL     1       1.254   9.253  20.186  0.00  0.00    +0.000 A 
ATOM      2  C   UNL     1       1.677   9.227  18.845  0.00  0.00    +0.000 A 
ATOM      3  C   UNL     1       2.196   8.058  18.265  0.00  0.00    +0.000 A 
ATOM      4  C   UNL     1       2.294   6.885  19.021  0.00  0.00    +0.000 A 
ATOM      5  C   UNL     1       1.891   6.907  20.363  0.00  0.00    +0.000 A 
ATOM      6  C   UNL     1       1.370   8.076  20.937  0.00  0.00    +0.000 A 
ENDROOT
BRANCH   1  10
ATOM      7  C   UNL     1      -0.776  11.794  21.542  0.00  0.00    +0.000 A 
ATOM      8  N   UNL     1       0.366  12.458  21.567  0.00  0.00    +0.000 NA
ATOM      9  N   UNL     1       1.329  11.609  21.064  0.00  0.00    +0.000 NA
ATOM     10  C   UNL     1       0.719  10.484  20.758  0.00  0.00    +0.000 A 
ATOM     11  O   UNL     1      -0.628  10.525  21.037  0.00  0.00    +0.000 OA
BRANCH   7  17
ATOM     12  C   UNL     1      -5.167  13.926  20.505  0.00  0.00    +0.000 C 
ATOM     13  C   UNL     1      -4.250  13.266  21.493  0.00  0.00    +0.000 A 
ATOM     14  C   UNL     1      -4.630  13.103  22.828  0.00  0.00    +0.000 A 
ATOM     15  C   UNL     1      -3.771  12.482  23.736  0.00  0.00    +0.000 A 
ATOM     16  C   UNL     1      -2.519  12.026  23.319  0.00  0.00    +0.000 A 
ATOM     17  C   UNL     1      -2.101  12.198  21.992  0.00  0.00    +0.000 A 
ATOM     18  C   UNL     1      -2.985  12.810  21.086  0.00  0.00    +0.000 A 
ENDBRANCH   7  17
ENDBRANCH   1  10
BRANCH   4  19
ATOM     19  C   UNL     1       2.834   5.604  18.474  0.00  0.00    +0.000 C 
ATOM     20  O   UNL     1       2.071   4.820  17.918  0.00  0.00    +0.000 OA
ATOM     21  N   UNL     1       4.190   5.385  18.586  0.00  0.00    +0.000 N 
ATOM     22  H   UNL     1       4.790   6.069  19.025  0.00  0.00    +0.000 HD
BRANCH  21  23
ATOM     23  C   UNL     1       4.817   4.200  18.025  0.00  0.00    +0.000 C 
BRANCH  23  24
ATOM     24  C   UNL     1       5.579   4.496  16.762  0.00  0.00    +0.000 A 
ATOM     25  C   UNL     1       5.203   3.950  15.531  0.00  0.00    +0.000 A 
ATOM     26  C   UNL     1       5.951   4.231  14.387  0.00  0.00    +0.000 A 
ATOM     27  C   UNL     1       7.060   5.048  14.512  0.00  0.00    +0.000 A 
ATOM     28  N   UNL     1       7.465   5.585  15.685  0.00  0.00    +0.000 NA
ATOM     29  C   UNL     1       6.722   5.291  16.777  0.00  0.00    +0.000 A 
ENDBRANCH  23  24
ENDBRANCH  21  23
ENDBRANCH   4  19
TORSDOF 5
ENDMDL
MODEL 9
REMARK VINA RESULT:      -8.5      0.850      1.346
REMARK  Name = 
REMARK  6 active torsions:
REMARK  status: ('A' for Active; 'I' for Inactive)
REMARK    1  A    between atoms: C_1  and  C_2
REMARK    2  A    between atoms: C_6  and  C_7
REMARK    3  A    between atoms: C_10  and  C_11
REMARK    4  A    between atoms: C_14  and  C_15
REMARK    5  A    between atoms: N_17  and  C_18
REMARK    6  A    between atoms: C_18  and  C_19
REMARK                            x       y       z     vdW  Elec       q    Type
REMARK                         _______ _______ _______ _____ _____    ______ ____
ROOT
ATOM      1  C   UNL     1       3.339   6.617  18.270  0.00  0.00    +0.000 A 
ATOM      2  C   UNL     1       2.980   7.770  17.549  0.00  0.00    +0.000 A 
ATOM      3  C   UNL     1       2.134   8.744  18.102  0.00  0.00    +0.000 A 
ATOM      4  C   UNL     1       1.634   8.583  19.399  0.00  0.00    +0.000 A 
ATOM      5  C   UNL     1       1.973   7.428  20.118  0.00  0.00    +0.000 A 
ATOM      6  C   UNL     1       2.820   6.459  19.562  0.00  0.00    +0.000 A 
ENDROOT
BRANCH   1  10
ATOM      7  C   UNL     1       5.368   4.705  16.115  0.00  0.00    +0.000 A 
ATOM      8  N   UNL     1       5.508   3.952  17.191  0.00  0.00    +0.000 NA
ATOM      9  N   UNL     1       4.770   4.550  18.191  0.00  0.00    +0.000 NA
ATOM     10  C   UNL     1       4.221   5.624  17.666  0.00  0.00    +0.000 A 
ATOM     11  O   UNL     1       4.559   5.791  16.342  0.00  0.00    +0.000 OA
BRANCH   7  17
ATOM     12  C   UNL     1       5.266   2.572  11.606  0.00  0.00    +0.000 C 
ATOM     13  C   UNL     1       5.927   3.497  12.584  0.00  0.00    +0.000 A 
ATOM     14  C   UNL     1       7.117   4.155  12.260  0.00  0.00    +0.000 A 
ATOM     15  C   UNL     1       7.719   5.018  13.177  0.00  0.00    +0.000 A 
ATOM     16  C   UNL     1       7.140   5.226  14.431  0.00  0.00    +0.000 A 
ATOM     17  C   UNL     1       5.960   4.561  14.792  0.00  0.00    +0.000 A 
ATOM     18  C   UNL     1       5.357   3.708  13.850  0.00  0.00    +0.000 A 
ENDBRANCH   7  17
ENDBRANCH   1  10
BRANCH   4  19
ATOM     19  C   UNL     1       0.731   9.575  20.055  0.00  0.00    +0.000 C 
ATOM     20  O   UNL     1       0.191   9.284  21.117  0.00  0.00    +0.000 OA
ATOM     21  N   UNL     1       0.581  10.803  19.444  0.00  0.00    +0.000 N 
ATOM     22  H   UNL     1       1.067  11.015  18.585  0.00  0.00    +0.000 HD
BRANCH  21  23
ATOM     23  C   UNL     1      -0.222  11.855  20.042  0.00  0.00    +0.000 C 
BRANCH  23  24
ATOM     24  C   UNL     1      -1.647  11.835  19.561  0.00  0.00    +0.000 A 
ATOM     25  C   UNL     1      -2.010  11.211  18.363  0.00  0.00    +0.000 A 
ATOM     26  C   UNL     1      -3.340  11.235  17.941  0.00  0.00    +0.000 A 
ATOM     27  C   UNL     1      -4.268  11.890  18.730  0.00  0.00    +0.000 A 
ATOM     28  N   UNL     1      -3.956  12.516  19.887  0.00  0.00    +0.000 NA
ATOM     29  C   UNL     1      -2.658  12.479  20.269  0.00  0.00    +0.000 A 
ENDBRANCH  23  24
ENDBRANCH  21  23
ENDBRANCH   4  19
TORSDOF 5
ENDMDL
