MODEL 1
REMARK VINA RESULT:      -8.8      0.000      0.000
REMARK  Name = 
REMARK  6 active torsions:
REMARK  status: ('A' for Active; 'I' for Inactive)
REMARK    1  A    between atoms: C_2  and  C_15
REMARK    2  A    between atoms: N_3  and  C_4
REMARK    3  A    between atoms: C_4  and  C_5
REMARK    4  A    between atoms: C_5  and  C_6
REMARK    5  A    between atoms: C_19  and  C_20
REMARK    6  A    between atoms: C_20  and  N_21
REMARK                            x       y       z     vdW  Elec       q    Type
REMARK                         _______ _______ _______ _____ _____    ______ ____
ROOT
ATOM      1  C   UNL     1       2.674   6.946  19.426  0.00  0.00    +0.000 A 
ATOM      2  C   UNL     1       2.659   7.755  18.285  0.00  0.00    +0.000 A 
ATOM      3  C   UNL     1       3.508   7.458  17.217  0.00  0.00    +0.000 A 
ATOM      4  C   UNL     1       4.402   6.384  17.302  0.00  0.00    +0.000 A 
ATOM      5  C   UNL     1       4.459   5.578  18.453  0.00  0.00    +0.000 A 
ATOM      6  C   UNL     1       3.562   5.856  19.497  0.00  0.00    +0.000 A 
ENDROOT
BRANCH   1   8
ATOM      7  O   UNL     1       1.197   6.338  21.153  0.00  0.00    +0.000 OA
ATOM      8  C   UNL     1       1.837   7.241  20.623  0.00  0.00    +0.000 C 
ATOM      9  N   UNL     1       1.815   8.541  21.083  0.00  0.00    +0.000 N 
ATOM     10  H   UNL     1       2.308   9.273  20.594  0.00  0.00    +0.000 HD
BRANCH   9  11
ATOM     11  C   UNL     1       1.099   8.867  22.305  0.00  0.00    +0.000 C 
BRANCH  11  12
ATOM     12  C   UNL     1      -0.350   9.310  22.086  0.00  0.00    +0.000 C 
BRANCH  12  13
ATOM     13  C   UNL     1      -0.480  10.612  21.362  0.00  0.00    +0.000 A 
ATOM     14  C   UNL     1      -0.262  11.865  21.899  0.00  0.00    +0.000 A 
ATOM     15  N   UNL     1      -0.489  12.808  20.918  0.00  0.00    +0.000 N 
ATOM     16  C   UNL     1      -0.871  12.186  19.753  0.00  0.00    +0.000 A 
ATOM     17  C   UNL     1      -1.215  12.741  18.517  0.00  0.00    +0.000 A 
ATOM     18  C   UNL     1      -1.560  11.867  17.486  0.00  0.00    +0.000 A 
ATOM     19  C   UNL     1      -1.567  10.490  17.690  0.00  0.00    +0.000 A 
ATOM     20  C   UNL     1      -1.231   9.951  18.937  0.00  0.00    +0.000 A 
ATOM     21  C   UNL     1      -0.867  10.812  19.995  0.00  0.00    +0.000 A 
ATOM     22  H   UNL     1      -0.414  13.805  21.044  0.00  0.00    +0.000 HD
ENDBRANCH  12  13
ENDBRANCH  11  12
ENDBRANCH   9  11
ENDBRANCH   1   8
BRANCH   5  23
ATOM     23  C   UNL     1       5.406   4.371  18.541  0.00  0.00    +0.000 C 
BRANCH  23  24
ATOM     24  N   UNL     1       4.657   3.126  18.515  0.00  0.00    +0.000 N 
ATOM     25  C   UNL     1       3.538   3.108  17.722  0.00  0.00    +0.000 C 
ATOM     26  O   UNL     1       3.416   3.447  16.562  0.00  0.00    +0.000 OA
ATOM     27  C   UNL     1       2.425   2.800  18.613  0.00  0.00    +0.000 A 
ATOM     28  C   UNL     1       1.133   3.270  18.489  0.00  0.00    +0.000 A 
ATOM     29  C   UNL     1       0.374   3.346  19.658  0.00  0.00    +0.000 A 
ATOM     30  C   UNL     1       0.903   2.923  20.895  0.00  0.00    +0.000 A 
ATOM     31  C   UNL     1       2.210   2.439  20.992  0.00  0.00    +0.000 A 
ATOM     32  C   UNL     1       2.956   2.416  19.830  0.00  0.00    +0.000 A 
ATOM     33  C   UNL     1       4.410   2.512  19.719  0.00  0.00    +0.000 C 
ATOM     34  O   UNL     1       5.189   2.240  20.614  0.00  0.00    +0.000 OA
ENDBRANCH  23  24
ENDBRANCH   5  23
TORSDOF 6
ENDMDL
MODEL 2
REMARK VINA RESULT:      -8.7      3.019      9.594
REMARK  Name = 
REMARK  6 active torsions:
REMARK  status: ('A' for Active; 'I' for Inactive)
REMARK    1  A    between atoms: C_2  and  C_15
REMARK    2  A    between atoms: N_3  and  C_4
REMARK    3  A    between atoms: C_4  and  C_5
REMARK    4  A    between atoms: C_5  and  C_6
REMARK    5  A    between atoms: C_19  and  C_20
REMARK    6  A    between atoms: C_20  and  N_21
REMARK                            x       y       z     vdW  Elec       q    Type
REMARK                         _______ _______ _______ _____ _____    ______ ____
ROOT
ATOM      1  C   UNL     1       1.582   8.762  19.513  0.00  0.00    +0.000 A 
ATOM      2  C   UNL     1       1.414   7.978  20.658  0.00  0.00    +0.000 A 
ATOM      3  C   UNL     1       0.726   8.498  21.757  0.00  0.00    +0.000 A 
ATOM      4  C   UNL     1       0.247   9.813  21.732  0.00  0.00    +0.000 A 
ATOM      5  C   UNL     1       0.434  10.632  20.605  0.00  0.00    +0.000 A 
ATOM      6  C   UNL     1       1.079  10.077  19.487  0.00  0.00    +0.000 A 
ENDROOT
BRANCH   1   8
ATOM      7  O   UNL     1       2.219   8.858  17.250  0.00  0.00    +0.000 OA
ATOM      8  C   UNL     1       2.353   8.289  18.329  0.00  0.00    +0.000 C 
ATOM      9  N   UNL     1       3.193   7.209  18.504  0.00  0.00    +0.000 N 
ATOM     10  H   UNL     1       3.242   6.727  19.389  0.00  0.00    +0.000 HD
BRANCH   9  11
ATOM     11  C   UNL     1       4.047   6.768  17.413  0.00  0.00    +0.000 C 
BRANCH  11  12
ATOM     12  C   UNL     1       3.901   5.286  17.060  0.00  0.00    +0.000 C 
BRANCH  12  13
ATOM     13  C   UNL     1       4.026   4.371  18.237  0.00  0.00    +0.000 A 
ATOM     14  C   UNL     1       5.171   3.714  18.637  0.00  0.00    +0.000 A 
ATOM     15  N   UNL     1       4.879   2.964  19.757  0.00  0.00    +0.000 N 
ATOM     16  C   UNL     1       3.551   3.110  20.082  0.00  0.00    +0.000 A 
ATOM     17  C   UNL     1       2.818   2.529  21.120  0.00  0.00    +0.000 A 
ATOM     18  C   UNL     1       1.467   2.860  21.226  0.00  0.00    +0.000 A 
ATOM     19  C   UNL     1       0.873   3.735  20.320  0.00  0.00    +0.000 A 
ATOM     20  C   UNL     1       1.619   4.299  19.279  0.00  0.00    +0.000 A 
ATOM     21  C   UNL     1       2.991   3.990  19.155  0.00  0.00    +0.000 A 
ATOM     22  H   UNL     1       5.534   2.375  20.248  0.00  0.00    +0.000 HD
ENDBRANCH  12  13
ENDBRANCH  11  12
ENDBRANCH   9  11
ENDBRANCH   1   8
BRANCH   5  23
ATOM     23  C   UNL     1      -0.126  12.062  20.549  0.00  0.00    +0.000 C 
BRANCH  23  24
ATOM     24  N   UNL     1       0.721  12.915  19.734  0.00  0.00    +0.000 N 
ATOM     25  C   UNL     1       1.623  13.699  20.409  0.00  0.00    +0.000 C 
ATOM     26  O   UNL     1       2.417  13.381  21.272  0.00  0.00    +0.000 OA
ATOM     27  C   UNL     1       1.300  15.074  20.050  0.00  0.00    +0.000 A 
ATOM     28  C   UNL     1       1.432  16.179  20.869  0.00  0.00    +0.000 A 
ATOM     29  C   UNL     1       0.600  17.267  20.599  0.00  0.00    +0.000 A 
ATOM     30  C   UNL     1      -0.301  17.240  19.514  0.00  0.00    +0.000 A 
ATOM     31  C   UNL     1      -0.406  16.115  18.693  0.00  0.00    +0.000 A 
ATOM     32  C   UNL     1       0.395  15.035  19.007  0.00  0.00    +0.000 A 
ATOM     33  C   UNL     1       0.118  13.627  18.725  0.00  0.00    +0.000 C 
ATOM     34  O   UNL     1      -0.638  13.234  17.857  0.00  0.00    +0.000 OA
ENDBRANCH  23  24
ENDBRANCH   5  23
TORSDOF 6
ENDMDL
MODEL 3
REMARK VINA RESULT:      -8.6      5.791      7.780
REMARK  Name = 
REMARK  6 active torsions:
REMARK  status: ('A' for Active; 'I' for Inactive)
REMARK    1  A    between atoms: C_2  and  C_15
REMARK    2  A    between atoms: N_3  and  C_4
REMARK    3  A    between atoms: C_4  and  C_5
REMARK    4  A    between atoms: C_5  and  C_6
REMARK    5  A    between atoms: C_19  and  C_20
REMARK    6  A    between atoms: C_20  and  N_21
REMARK                            x       y       z     vdW  Elec       q    Type
REMARK                         _______ _______ _______ _____ _____    ______ ____
ROOT
ATOM      1  C   UNL     1       6.591   6.346  17.529  0.00  0.00    +0.000 A 
ATOM      2  C   UNL     1       6.847   5.267  16.676  0.00  0.00    +0.000 A 
ATOM      3  C   UNL     1       5.780   4.580  16.092  0.00  0.00    +0.000 A 
ATOM      4  C   UNL     1       4.461   4.939  16.391  0.00  0.00    +0.000 A 
ATOM      5  C   UNL     1       4.179   5.998  17.272  0.00  0.00    +0.000 A 
ATOM      6  C   UNL     1       5.261   6.713  17.809  0.00  0.00    +0.000 A 
ENDROOT
BRANCH   1   8
ATOM      7  O   UNL     1       8.418   6.484  19.005  0.00  0.00    +0.000 OA
ATOM      8  C   UNL     1       7.679   7.083  18.229  0.00  0.00    +0.000 C 
ATOM      9  N   UNL     1       7.804   8.433  17.973  0.00  0.00    +0.000 N 
ATOM     10  H   UNL     1       7.148   8.910  17.373  0.00  0.00    +0.000 HD
BRANCH   9  11
ATOM     11  C   UNL     1       8.909   9.183  18.547  0.00  0.00    +0.000 C 
BRANCH  11  12
ATOM     12  C   UNL     1       9.089  10.585  17.960  0.00  0.00    +0.000 C 
BRANCH  12  13
ATOM     13  C   UNL     1       9.960  11.477  18.787  0.00  0.00    +0.000 A 
ATOM     14  C   UNL     1      10.261  11.308  20.122  0.00  0.00    +0.000 A 
ATOM     15  N   UNL     1      11.086  12.339  20.521  0.00  0.00    +0.000 N 
ATOM     16  C   UNL     1      11.310  13.191  19.465  0.00  0.00    +0.000 A 
ATOM     17  C   UNL     1      12.063  14.367  19.413  0.00  0.00    +0.000 A 
ATOM     18  C   UNL     1      12.130  15.042  18.194  0.00  0.00    +0.000 A 
ATOM     19  C   UNL     1      11.462  14.558  17.073  0.00  0.00    +0.000 A 
ATOM     20  C   UNL     1      10.702  13.385  17.145  0.00  0.00    +0.000 A 
ATOM     21  C   UNL     1      10.627  12.676  18.364  0.00  0.00    +0.000 A 
ATOM     22  H   UNL     1      11.447  12.466  21.454  0.00  0.00    +0.000 HD
ENDBRANCH  12  13
ENDBRANCH  11  12
ENDBRANCH   9  11
ENDBRANCH   1   8
BRANCH   5  23
ATOM     23  C   UNL     1       2.734   6.428  17.575  0.00  0.00    +0.000 C 
BRANCH  23  24
ATOM     24  N   UNL     1       2.083   5.468  18.448  0.00  0.00    +0.000 N 
ATOM     25  C   UNL     1       2.742   5.161  19.611  0.00  0.00    +0.000 C 
ATOM     26  O   UNL     1       3.216   5.909  20.443  0.00  0.00    +0.000 OA
ATOM     27  C   UNL     1       2.974   3.722  19.568  0.00  0.00    +0.000 A 
ATOM     28  C   UNL     1       4.066   3.060  20.096  0.00  0.00    +0.000 A 
ATOM     29  C   UNL     1       4.406   1.838  19.514  0.00  0.00    +0.000 A 
ATOM     30  C   UNL     1       3.638   1.299  18.460  0.00  0.00    +0.000 A 
ATOM     31  C   UNL     1       2.531   1.983  17.952  0.00  0.00    +0.000 A 
ATOM     32  C   UNL     1       2.242   3.210  18.515  0.00  0.00    +0.000 A 
ATOM     33  C   UNL     1       1.567   4.334  17.867  0.00  0.00    +0.000 C 
ATOM     34  O   UNL     1       0.833   4.234  16.903  0.00  0.00    +0.000 OA
ENDBRANCH  23  24
ENDBRANCH   5  23
TORSDOF 6
ENDMDL
MODEL 4
REMARK VINA RESULT:      -8.6      3.262      9.938
REMARK  Name = 
REMARK  6 active torsions:
REMARK  status: ('A' for Active; 'I' for Inactive)
REMARK    1  A    between atoms: C_2  and  C_15
REMARK    2  A    between atoms: N_3  and  C_4
REMARK    3  A    between atoms: C_4  and  C_5
REMARK    4  A    between atoms: C_5  and  C_6
REMARK    5  A    between atoms: C_19  and  C_20
REMARK    6  A    between atoms: C_20  and  N_21
REMARK                            x       y       z     vdW  Elec       q    Type
REMARK                         _______ _______ _______ _____ _____    ______ ____
ROOT
ATOM      1  C   UNL     1      -0.445  10.570  18.421  0.00  0.00    +0.000 A 
ATOM      2  C   UNL     1      -1.442  10.024  17.607  0.00  0.00    +0.000 A 
ATOM      3  C   UNL     1      -2.746  10.519  17.684  0.00  0.00    +0.000 A 
ATOM      4  C   UNL     1      -3.066  11.525  18.603  0.00  0.00    +0.000 A 
ATOM      5  C   UNL     1      -2.087  12.065  19.456  0.00  0.00    +0.000 A 
ATOM      6  C   UNL     1      -0.770  11.596  19.328  0.00  0.00    +0.000 A 
ENDROOT
BRANCH   1   8
ATOM      7  O   UNL     1       1.817  10.646  19.061  0.00  0.00    +0.000 OA
ATOM      8  C   UNL     1       0.951  10.049  18.430  0.00  0.00    +0.000 C 
ATOM      9  N   UNL     1       1.210   8.903  17.708  0.00  0.00    +0.000 N 
ATOM     10  H   UNL     1       0.490   8.465  17.154  0.00  0.00    +0.000 HD
BRANCH   9  11
ATOM     11  C   UNL     1       2.528   8.292  17.762  0.00  0.00    +0.000 C 
BRANCH  11  12
ATOM     12  C   UNL     1       2.680   7.221  18.846  0.00  0.00    +0.000 C 
BRANCH  12  13
ATOM     13  C   UNL     1       2.969   5.856  18.307  0.00  0.00    +0.000 A 
ATOM     14  C   UNL     1       3.902   5.545  17.340  0.00  0.00    +0.000 A 
ATOM     15  N   UNL     1       3.863   4.185  17.113  0.00  0.00    +0.000 N 
ATOM     16  C   UNL     1       2.901   3.607  17.909  0.00  0.00    +0.000 A 
ATOM     17  C   UNL     1       2.505   2.270  18.001  0.00  0.00    +0.000 A 
ATOM     18  C   UNL     1       1.496   1.953  18.909  0.00  0.00    +0.000 A 
ATOM     19  C   UNL     1       0.902   2.941  19.690  0.00  0.00    +0.000 A 
ATOM     20  C   UNL     1       1.302   4.277  19.577  0.00  0.00    +0.000 A 
ATOM     21  C   UNL     1       2.329   4.624  18.674  0.00  0.00    +0.000 A 
ATOM     22  H   UNL     1       4.434   3.692  16.444  0.00  0.00    +0.000 HD
ENDBRANCH  12  13
ENDBRANCH  11  12
ENDBRANCH   9  11
ENDBRANCH   1   8
BRANCH   5  23
ATOM     23  C   UNL     1      -2.417  13.201  20.439  0.00  0.00    +0.000 C 
BRANCH  23  24
ATOM     24  N   UNL     1      -2.341  12.732  21.811  0.00  0.00    +0.000 N 
ATOM     25  C   UNL     1      -3.502  12.792  22.539  0.00  0.00    +0.000 C 
ATOM     26  O   UNL     1      -4.611  12.391  22.244  0.00  0.00    +0.000 OA
ATOM     27  C   UNL     1      -3.210  13.646  23.683  0.00  0.00    +0.000 A 
ATOM     28  C   UNL     1      -4.099  14.501  24.306  0.00  0.00    +0.000 A 
ATOM     29  C   UNL     1      -3.556  15.599  24.974  0.00  0.00    +0.000 A 
ATOM     30  C   UNL     1      -2.160  15.794  25.034  0.00  0.00    +0.000 A 
ATOM     31  C   UNL     1      -1.281  14.908  24.406  0.00  0.00    +0.000 A 
ATOM     32  C   UNL     1      -1.844  13.854  23.714  0.00  0.00    +0.000 A 
ATOM     33  C   UNL     1      -1.272  13.155  22.565  0.00  0.00    +0.000 C 
ATOM     34  O   UNL     1      -0.086  13.129  22.295  0.00  0.00    +0.000 OA
ENDBRANCH  23  24
ENDBRANCH   5  23
TORSDOF 6
ENDMDL
MODEL 5
REMARK VINA RESULT:      -8.6      3.359      9.573
REMARK  Name = 
REMARK  6 active torsions:
REMARK  status: ('A' for Active; 'I' for Inactive)
REMARK    1  A    between atoms: C_2  and  C_15
REMARK    2  A    between atoms: N_3  and  C_4
REMARK    3  A    between atoms: C_4  and  C_5
REMARK    4  A    between atoms: C_5  and  C_6
REMARK    5  A    between atoms: C_19  and  C_20
REMARK    6  A    between atoms: C_20  and  N_21
REMARK                            x       y       z     vdW  Elec       q    Type
REMARK                         _______ _______ _______ _____ _____    ______ ____
ROOT
ATOM      1  C   UNL     1       0.899   8.847  20.884  0.00  0.00    +0.000 A 
ATOM      2  C   UNL     1       0.159   8.662  22.056  0.00  0.00    +0.000 A 
ATOM      3  C   UNL     1      -0.507   9.746  22.632  0.00  0.00    +0.000 A 
ATOM      4  C   UNL     1      -0.400  11.022  22.067  0.00  0.00    +0.000 A 
ATOM      5  C   UNL     1       0.367  11.239  20.908  0.00  0.00    +0.000 A 
ATOM      6  C   UNL     1       0.986  10.130  20.310  0.00  0.00    +0.000 A 
ENDROOT
BRANCH   1   8
ATOM      7  O   UNL     1       2.240   7.941  19.177  0.00  0.00    +0.000 OA
ATOM      8  C   UNL     1       1.679   7.747  20.251  0.00  0.00    +0.000 C 
ATOM      9  N   UNL     1       1.729   6.538  20.912  0.00  0.00    +0.000 N 
ATOM     10  H   UNL     1       1.213   6.391  21.766  0.00  0.00    +0.000 HD
BRANCH   9  11
ATOM     11  C   UNL     1       2.558   5.461  20.395  0.00  0.00    +0.000 C 
BRANCH  11  12
ATOM     12  C   UNL     1       1.976   4.753  19.169  0.00  0.00    +0.000 C 
BRANCH  12  13
ATOM     13  C   UNL     1       3.007   4.098  18.306  0.00  0.00    +0.000 A 
ATOM     14  C   UNL     1       3.259   2.743  18.229  0.00  0.00    +0.000 A 
ATOM     15  N   UNL     1       4.284   2.538  17.328  0.00  0.00    +0.000 N 
ATOM     16  C   UNL     1       4.716   3.746  16.832  0.00  0.00    +0.000 A 
ATOM     17  C   UNL     1       5.735   4.019  15.915  0.00  0.00    +0.000 A 
ATOM     18  C   UNL     1       5.961   5.353  15.574  0.00  0.00    +0.000 A 
ATOM     19  C   UNL     1       5.199   6.373  16.137  0.00  0.00    +0.000 A 
ATOM     20  C   UNL     1       4.190   6.082  17.062  0.00  0.00    +0.000 A 
ATOM     21  C   UNL     1       3.932   4.740  17.416  0.00  0.00    +0.000 A 
ATOM     22  H   UNL     1       4.677   1.641  17.092  0.00  0.00    +0.000 HD
ENDBRANCH  12  13
ENDBRANCH  11  12
ENDBRANCH   9  11
ENDBRANCH   1   8
BRANCH   5  23
ATOM     23  C   UNL     1       0.457  12.628  20.254  0.00  0.00    +0.000 C 
BRANCH  23  24
ATOM     24  N   UNL     1       1.823  13.122  20.283  0.00  0.00    +0.000 N 
ATOM     25  C   UNL     1       2.047  14.242  21.044  0.00  0.00    +0.000 C 
ATOM     26  O   UNL     1       1.721  14.464  22.193  0.00  0.00    +0.000 OA
ATOM     27  C   UNL     1       2.577  15.244  20.127  0.00  0.00    +0.000 A 
ATOM     28  C   UNL     1       2.364  16.607  20.205  0.00  0.00    +0.000 A 
ATOM     29  C   UNL     1       2.454  17.328  19.013  0.00  0.00    +0.000 A 
ATOM     30  C   UNL     1       2.783  16.687  17.800  0.00  0.00    +0.000 A 
ATOM     31  C   UNL     1       3.005  15.309  17.751  0.00  0.00    +0.000 A 
ATOM     32  C   UNL     1       2.868  14.611  18.934  0.00  0.00    +0.000 A 
ATOM     33  C   UNL     1       2.490  13.206  19.085  0.00  0.00    +0.000 C 
ATOM     34  O   UNL     1       2.618  12.362  18.219  0.00  0.00    +0.000 OA
ENDBRANCH  23  24
ENDBRANCH   5  23
TORSDOF 6
ENDMDL
MODEL 6
REMARK VINA RESULT:      -8.5      1.057      1.707
REMARK  Name = 
REMARK  6 active torsions:
REMARK  status: ('A' for Active; 'I' for Inactive)
REMARK    1  A    between atoms: C_2  and  C_15
REMARK    2  A    between atoms: N_3  and  C_4
REMARK    3  A    between atoms: C_4  and  C_5
REMARK    4  A    between atoms: C_5  and  C_6
REMARK    5  A    between atoms: C_19  and  C_20
REMARK    6  A    between atoms: C_20  and  N_21
REMARK                            x       y       z     vdW  Elec       q    Type
REMARK                         _______ _______ _______ _____ _____    ______ ____
ROOT
ATOM      1  C   UNL     1       2.810   6.958  19.175  0.00  0.00    +0.000 A 
ATOM      2  C   UNL     1       2.907   7.715  18.003  0.00  0.00    +0.000 A 
ATOM      3  C   UNL     1       3.824   7.347  17.016  0.00  0.00    +0.000 A 
ATOM      4  C   UNL     1       4.674   6.253  17.215  0.00  0.00    +0.000 A 
ATOM      5  C   UNL     1       4.619   5.497  18.400  0.00  0.00    +0.000 A 
ATOM      6  C   UNL     1       3.655   5.847  19.359  0.00  0.00    +0.000 A 
ENDROOT
BRANCH   1   8
ATOM      7  O   UNL     1       1.463   6.457  21.038  0.00  0.00    +0.000 OA
ATOM      8  C   UNL     1       1.895   7.329  20.290  0.00  0.00    +0.000 C 
ATOM      9  N   UNL     1       1.565   8.661  20.430  0.00  0.00    +0.000 N 
ATOM     10  H   UNL     1       1.891   9.349  19.767  0.00  0.00    +0.000 HD
BRANCH   9  11
ATOM     11  C   UNL     1       0.759   9.097  21.559  0.00  0.00    +0.000 C 
BRANCH  11  12
ATOM     12  C   UNL     1      -0.630   9.614  21.177  0.00  0.00    +0.000 C 
BRANCH  12  13
ATOM     13  C   UNL     1      -0.620  10.596  20.049  0.00  0.00    +0.000 A 
ATOM     14  C   UNL     1      -1.100  10.374  18.775  0.00  0.00    +0.000 A 
ATOM     15  N   UNL     1      -0.904  11.516  18.027  0.00  0.00    +0.000 N 
ATOM     16  C   UNL     1      -0.283  12.474  18.793  0.00  0.00    +0.000 A 
ATOM     17  C   UNL     1       0.122  13.767  18.449  0.00  0.00    +0.000 A 
ATOM     18  C   UNL     1       0.730  14.541  19.437  0.00  0.00    +0.000 A 
ATOM     19  C   UNL     1       0.931  14.035  20.718  0.00  0.00    +0.000 A 
ATOM     20  C   UNL     1       0.530  12.734  21.043  0.00  0.00    +0.000 A 
ATOM     21  C   UNL     1      -0.099  11.933  20.066  0.00  0.00    +0.000 A 
ATOM     22  H   UNL     1      -1.153  11.623  17.056  0.00  0.00    +0.000 HD
ENDBRANCH  12  13
ENDBRANCH  11  12
ENDBRANCH   9  11
ENDBRANCH   1   8
BRANCH   5  23
ATOM     23  C   UNL     1       5.517   4.268  18.612  0.00  0.00    +0.000 C 
BRANCH  23  24
ATOM     24  N   UNL     1       4.732   3.046  18.587  0.00  0.00    +0.000 N 
ATOM     25  C   UNL     1       3.630   3.049  17.769  0.00  0.00    +0.000 C 
ATOM     26  O   UNL     1       3.544   3.374  16.601  0.00  0.00    +0.000 OA
ATOM     27  C   UNL     1       2.490   2.788  18.639  0.00  0.00    +0.000 A 
ATOM     28  C   UNL     1       1.215   3.295  18.479  0.00  0.00    +0.000 A 
ATOM     29  C   UNL     1       0.433   3.410  19.630  0.00  0.00    +0.000 A 
ATOM     30  C   UNL     1       0.922   2.991  20.884  0.00  0.00    +0.000 A 
ATOM     31  C   UNL     1       2.212   2.470  21.017  0.00  0.00    +0.000 A 
ATOM     32  C   UNL     1       2.981   2.406  19.873  0.00  0.00    +0.000 A 
ATOM     33  C   UNL     1       4.440   2.458  19.794  0.00  0.00    +0.000 C 
ATOM     34  O   UNL     1       5.190   2.176  20.709  0.00  0.00    +0.000 OA
ENDBRANCH  23  24
ENDBRANCH   5  23
TORSDOF 6
ENDMDL
MODEL 7
REMARK VINA RESULT:      -8.5      5.063      8.228
REMARK  Name = 
REMARK  6 active torsions:
REMARK  status: ('A' for Active; 'I' for Inactive)
REMARK    1  A    between atoms: C_2  and  C_15
REMARK    2  A    between atoms: N_3  and  C_4
REMARK    3  A    between atoms: C_4  and  C_5
REMARK    4  A    between atoms: C_5  and  C_6
REMARK    5  A    between atoms: C_19  and  C_20
REMARK    6  A    between atoms: C_20  and  N_21
REMARK                            x       y       z     vdW  Elec       q    Type
REMARK                         _______ _______ _______ _____ _____    ______ ____
ROOT
ATOM      1  C   UNL     1       5.581   5.417  17.799  0.00  0.00    +0.000 A 
ATOM      2  C   UNL     1       5.453   4.131  17.266  0.00  0.00    +0.000 A 
ATOM      3  C   UNL     1       4.181   3.604  17.029  0.00  0.00    +0.000 A 
ATOM      4  C   UNL     1       3.038   4.340  17.364  0.00  0.00    +0.000 A 
ATOM      5  C   UNL     1       3.142   5.622  17.933  0.00  0.00    +0.000 A 
ATOM      6  C   UNL     1       4.427   6.159  18.115  0.00  0.00    +0.000 A 
ENDROOT
BRANCH   1   8
ATOM      7  O   UNL     1       7.821   5.291  18.504  0.00  0.00    +0.000 OA
ATOM      8  C   UNL     1       6.904   6.015  18.129  0.00  0.00    +0.000 C 
ATOM      9  N   UNL     1       7.038   7.382  18.002  0.00  0.00    +0.000 N 
ATOM     10  H   UNL     1       6.251   7.959  17.745  0.00  0.00    +0.000 HD
BRANCH   9  11
ATOM     11  C   UNL     1       8.333   8.009  18.211  0.00  0.00    +0.000 C 
BRANCH  11  12
ATOM     12  C   UNL     1       8.357   9.512  17.924  0.00  0.00    +0.000 C 
BRANCH  12  13
ATOM     13  C   UNL     1       9.148  10.303  18.917  0.00  0.00    +0.000 A 
ATOM     14  C   UNL     1       8.991  10.275  20.288  0.00  0.00    +0.000 A 
ATOM     15  N   UNL     1       9.900  11.145  20.852  0.00  0.00    +0.000 N 
ATOM     16  C   UNL     1      10.637  11.755  19.863  0.00  0.00    +0.000 A 
ATOM     17  C   UNL     1      11.650  12.712  19.968  0.00  0.00    +0.000 A 
ATOM     18  C   UNL     1      12.243  13.161  18.789  0.00  0.00    +0.000 A 
ATOM     19  C   UNL     1      11.830  12.674  17.551  0.00  0.00    +0.000 A 
ATOM     20  C   UNL     1      10.806  11.725  17.463  0.00  0.00    +0.000 A 
ATOM     21  C   UNL     1      10.196  11.244  18.642  0.00  0.00    +0.000 A 
ATOM     22  H   UNL     1       9.993  11.328  21.839  0.00  0.00    +0.000 HD
ENDBRANCH  12  13
ENDBRANCH  11  12
ENDBRANCH   9  11
ENDBRANCH   1   8
BRANCH   5  23
ATOM     23  C   UNL     1       1.895   6.457  18.265  0.00  0.00    +0.000 C 
BRANCH  23  24
ATOM     24  N   UNL     1       2.264   7.686  18.945  0.00  0.00    +0.000 N 
ATOM     25  C   UNL     1       1.805   7.831  20.229  0.00  0.00    +0.000 C 
ATOM     26  O   UNL     1       1.872   7.051  21.159  0.00  0.00    +0.000 OA
ATOM     27  C   UNL     1       0.998   9.045  20.228  0.00  0.00    +0.000 A 
ATOM     28  C   UNL     1      -0.128   9.272  20.995  0.00  0.00    +0.000 A 
ATOM     29  C   UNL     1      -1.057  10.188  20.498  0.00  0.00    +0.000 A 
ATOM     30  C   UNL     1      -0.826  10.870  19.285  0.00  0.00    +0.000 A 
ATOM     31  C   UNL     1       0.328  10.630  18.533  0.00  0.00    +0.000 A 
ATOM     32  C   UNL     1       1.209   9.688  19.023  0.00  0.00    +0.000 A 
ATOM     33  C   UNL     1       2.130   8.861  18.245  0.00  0.00    +0.000 C 
ATOM     34  O   UNL     1       2.532   9.138  17.131  0.00  0.00    +0.000 OA
ENDBRANCH  23  24
ENDBRANCH   5  23
TORSDOF 6
ENDMDL
MODEL 8
REMARK VINA RESULT:      -8.5      2.614      3.431
REMARK  Name = 
REMARK  6 active torsions:
REMARK  status: ('A' for Active; 'I' for Inactive)
REMARK    1  A    between atoms: C_2  and  C_15
REMARK    2  A    between atoms: N_3  and  C_4
REMARK    3  A    between atoms: C_4  and  C_5
REMARK    4  A    between atoms: C_5  and  C_6
REMARK    5  A    between atoms: C_19  and  C_20
REMARK    6  A    between atoms: C_20  and  N_21
REMARK                            x       y       z     vdW  Elec       q    Type
REMARK                         _______ _______ _______ _____ _____    ______ ____
ROOT
ATOM      1  C   UNL     1       1.509   8.519  19.239  0.00  0.00    +0.000 A 
ATOM      2  C   UNL     1       1.441   8.082  20.567  0.00  0.00    +0.000 A 
ATOM      3  C   UNL     1       2.128   6.928  20.950  0.00  0.00    +0.000 A 
ATOM      4  C   UNL     1       2.843   6.185  20.005  0.00  0.00    +0.000 A 
ATOM      5  C   UNL     1       2.897   6.585  18.658  0.00  0.00    +0.000 A 
ATOM      6  C   UNL     1       2.247   7.777  18.298  0.00  0.00    +0.000 A 
ENDROOT
BRANCH   1   8
ATOM      7  O   UNL     1       0.418   9.772  17.574  0.00  0.00    +0.000 OA
ATOM      8  C   UNL     1       0.755   9.707  18.752  0.00  0.00    +0.000 C 
ATOM      9  N   UNL     1       0.471  10.702  19.664  0.00  0.00    +0.000 N 
ATOM     10  H   UNL     1       0.809  10.647  20.614  0.00  0.00    +0.000 HD
BRANCH   9  11
ATOM     11  C   UNL     1      -0.349  11.837  19.272  0.00  0.00    +0.000 C 
BRANCH  11  12
ATOM     12  C   UNL     1      -1.792  11.774  19.779  0.00  0.00    +0.000 C 
BRANCH  12  13
ATOM     13  C   UNL     1      -2.813  11.727  18.687  0.00  0.00    +0.000 A 
ATOM     14  C   UNL     1      -2.562  11.497  17.350  0.00  0.00    +0.000 A 
ATOM     15  N   UNL     1      -3.759  11.538  16.665  0.00  0.00    +0.000 N 
ATOM     16  C   UNL     1      -4.786  11.813  17.538  0.00  0.00    +0.000 A 
ATOM     17  C   UNL     1      -6.153  11.964  17.288  0.00  0.00    +0.000 A 
ATOM     18  C   UNL     1      -6.986  12.235  18.373  0.00  0.00    +0.000 A 
ATOM     19  C   UNL     1      -6.466  12.357  19.659  0.00  0.00    +0.000 A 
ATOM     20  C   UNL     1      -5.093  12.215  19.891  0.00  0.00    +0.000 A 
ATOM     21  C   UNL     1      -4.229  11.929  18.812  0.00  0.00    +0.000 A 
ATOM     22  H   UNL     1      -3.863  11.414  15.670  0.00  0.00    +0.000 HD
ENDBRANCH  12  13
ENDBRANCH  11  12
ENDBRANCH   9  11
ENDBRANCH   1   8
BRANCH   5  23
ATOM     23  C   UNL     1       3.715   5.800  17.619  0.00  0.00    +0.000 C 
BRANCH  23  24
ATOM     24  N   UNL     1       3.401   4.384  17.680  0.00  0.00    +0.000 N 
ATOM     25  C   UNL     1       2.072   4.059  17.772  0.00  0.00    +0.000 C 
ATOM     26  O   UNL     1       1.140   4.448  17.096  0.00  0.00    +0.000 OA
ATOM     27  C   UNL     1       1.933   3.301  19.010  0.00  0.00    +0.000 A 
ATOM     28  C   UNL     1       0.834   3.308  19.847  0.00  0.00    +0.000 A 
ATOM     29  C   UNL     1       1.061   3.003  21.190  0.00  0.00    +0.000 A 
ATOM     30  C   UNL     1       2.352   2.669  21.650  0.00  0.00    +0.000 A 
ATOM     31  C   UNL     1       3.445   2.657  20.780  0.00  0.00    +0.000 A 
ATOM     32  C   UNL     1       3.203   3.006  19.466  0.00  0.00    +0.000 A 
ATOM     33  C   UNL     1       4.152   3.607  18.530  0.00  0.00    +0.000 C 
ATOM     34  O   UNL     1       5.361   3.533  18.632  0.00  0.00    +0.000 OA
ENDBRANCH  23  24
ENDBRANCH   5  23
TORSDOF 6
ENDMDL
MODEL 9
REMARK VINA RESULT:      -8.5      2.100      8.477
REMARK  Name = 
REMARK  6 active torsions:
REMARK  status: ('A' for Active; 'I' for Inactive)
REMARK    1  A    between atoms: C_2  and  C_15
REMARK    2  A    between atoms: N_3  and  C_4
REMARK    3  A    between atoms: C_4  and  C_5
REMARK    4  A    between atoms: C_5  and  C_6
REMARK    5  A    between atoms: C_19  and  C_20
REMARK    6  A    between atoms: C_20  and  N_21
REMARK                            x       y       z     vdW  Elec       q    Type
REMARK                         _______ _______ _______ _____ _____    ______ ____
ROOT
ATOM      1  C   UNL     1       1.798   6.624  19.833  0.00  0.00    +0.000 A 
ATOM      2  C   UNL     1       2.253   6.756  18.517  0.00  0.00    +0.000 A 
ATOM      3  C   UNL     1       2.392   8.028  17.958  0.00  0.00    +0.000 A 
ATOM      4  C   UNL     1       2.037   9.165  18.692  0.00  0.00    +0.000 A 
ATOM      5  C   UNL     1       1.544   9.056  20.005  0.00  0.00    +0.000 A 
ATOM      6  C   UNL     1       1.461   7.774  20.572  0.00  0.00    +0.000 A 
ENDROOT
BRANCH   1   8
ATOM      7  O   UNL     1       0.536   4.682  20.241  0.00  0.00    +0.000 OA
ATOM      8  C   UNL     1       1.573   5.297  20.470  0.00  0.00    +0.000 C 
ATOM      9  N   UNL     1       2.556   4.814  21.308  0.00  0.00    +0.000 N 
ATOM     10  H   UNL     1       3.373   5.367  21.521  0.00  0.00    +0.000 HD
BRANCH   9  11
ATOM     11  C   UNL     1       2.438   3.481  21.876  0.00  0.00    +0.000 C 
BRANCH  11  12
ATOM     12  C   UNL     1       3.240   2.409  21.133  0.00  0.00    +0.000 C 
BRANCH  12  13
ATOM     13  C   UNL     1       3.245   2.581  19.647  0.00  0.00    +0.000 A 
ATOM     14  C   UNL     1       2.387   1.970  18.756  0.00  0.00    +0.000 A 
ATOM     15  N   UNL     1       2.715   2.378  17.480  0.00  0.00    +0.000 N 
ATOM     16  C   UNL     1       3.791   3.233  17.527  0.00  0.00    +0.000 A 
ATOM     17  C   UNL     1       4.468   3.872  16.485  0.00  0.00    +0.000 A 
ATOM     18  C   UNL     1       5.536   4.704  16.818  0.00  0.00    +0.000 A 
ATOM     19  C   UNL     1       5.915   4.883  18.146  0.00  0.00    +0.000 A 
ATOM     20  C   UNL     1       5.234   4.226  19.177  0.00  0.00    +0.000 A 
ATOM     21  C   UNL     1       4.142   3.387  18.869  0.00  0.00    +0.000 A 
ATOM     22  H   UNL     1       2.254   2.073  16.637  0.00  0.00    +0.000 HD
ENDBRANCH  12  13
ENDBRANCH  11  12
ENDBRANCH   9  11
ENDBRANCH   1   8
BRANCH   5  23
ATOM     23  C   UNL     1       1.190  10.299  20.836  0.00  0.00    +0.000 C 
BRANCH  23  24
ATOM     24  N   UNL     1      -0.225  10.317  21.159  0.00  0.00    +0.000 N 
ATOM     25  C   UNL     1      -1.046  10.947  20.258  0.00  0.00    +0.000 C 
ATOM     26  O   UNL     1      -1.110  10.807  19.052  0.00  0.00    +0.000 OA
ATOM     27  C   UNL     1      -1.706  12.014  21.001  0.00  0.00    +0.000 A 
ATOM     28  C   UNL     1      -2.078  13.245  20.494  0.00  0.00    +0.000 A 
ATOM     29  C   UNL     1      -2.171  14.300  21.404  0.00  0.00    +0.000 A 
ATOM     30  C   UNL     1      -1.929  14.096  22.779  0.00  0.00    +0.000 A 
ATOM     31  C   UNL     1      -1.565  12.838  23.267  0.00  0.00    +0.000 A 
ATOM     32  C   UNL     1      -1.437  11.821  22.342  0.00  0.00    +0.000 A 
ATOM     33  C   UNL     1      -0.576  10.644  22.447  0.00  0.00    +0.000 C 
ATOM     34  O   UNL     1      -0.154  10.191  23.494  0.00  0.00    +0.000 OA
ENDBRANCH  23  24
ENDBRANCH   5  23
TORSDOF 6
ENDMDL
