MODEL 1
REMARK VINA RESULT:      -7.9      0.000      0.000
REMARK  Name = 
REMARK  6 active torsions:
REMARK  status: ('A' for Active; 'I' for Inactive)
REMARK    1  A    between atoms: C_1  and  N_2
REMARK    2  A    between atoms: C_6  and  C_7
REMARK    3  A    between atoms: C_7  and  C_8
REMARK    4  A    between atoms: C_8  and  C_9
REMARK    5  A    between atoms: C_14  and  N_15
REMARK    6  A    between atoms: C_20  and  C_21
REMARK                            x       y       z     vdW  Elec       q    Type
REMARK                         _______ _______ _______ _____ _____    ______ ____
ROOT
ATOM      1  C   UNL     1       2.365   5.222  19.750  0.00  0.00    +0.000 A 
ATOM      2  C   UNL     1       1.261   4.699  20.471  0.00  0.00    +0.000 A 
ATOM      3  C   UNL     1       1.108   3.339  20.746  0.00  0.00    +0.000 A 
ATOM      4  C   UNL     1       2.056   2.435  20.293  0.00  0.00    +0.000 A 
ATOM      5  C   UNL     1       3.184   2.901  19.622  0.00  0.00    +0.000 A 
ATOM      6  C   UNL     1       3.354   4.275  19.374  0.00  0.00    +0.000 A 
ENDROOT
BRANCH   6   7
ATOM      7  N   UNL     1       4.540   4.679  18.728  0.00  0.00    +0.000 N 
ATOM      8  C   UNL     1       5.703   5.146  19.500  0.00  0.00    +0.000 C 
ATOM      9  C   UNL     1       6.662   5.373  18.343  0.00  0.00    +0.000 C 
ATOM     10  C   UNL     1       6.267   4.739  17.224  0.00  0.00    +0.000 C 
ATOM     11  C   UNL     1       6.865   5.739  16.415  0.00  0.00    +0.000 C 
ATOM     12  C   UNL     1       7.244   6.410  17.529  0.00  0.00    +0.000 C 
ATOM     13  C   UNL     1       4.858   4.290  17.418  0.00  0.00    +0.000 C 
ATOM     14  O   UNL     1       4.122   3.728  16.617  0.00  0.00    +0.000 OA
BRANCH  12  15
ATOM     15  C   UNL     1       7.890   7.757  17.773  0.00  0.00    +0.000 C 
ATOM     16  F   UNL     1       8.690   7.783  18.862  0.00  0.00    +0.000 F 
ATOM     17  F   UNL     1       8.627   8.147  16.700  0.00  0.00    +0.000 F 
ATOM     18  F   UNL     1       6.946   8.724  17.922  0.00  0.00    +0.000 F 
ENDBRANCH  12  15
ENDBRANCH   6   7
BRANCH   1  19
ATOM     19  C   UNL     1       2.353   6.804  19.345  0.00  0.00    +0.000 C 
ATOM     20  C   UNL     1       3.633   7.362  18.598  0.00  0.00    +0.000 C 
ATOM     21  C   UNL     1       2.891   7.201  17.267  0.00  0.00    +0.000 C 
ATOM     22  C   UNL     1       1.575   7.245  18.048  0.00  0.00    +0.000 C 
BRANCH  19  23
ATOM     23  C   UNL     1       1.932   7.652  20.574  0.00  0.00    +0.000 C 
BRANCH  23  29
ATOM     24  C   UNL     1      -0.536   8.829  22.206  0.00  0.00    +0.000 C 
ATOM     25  N   UNL     1       0.040   9.338  20.991  0.00  0.00    +0.000 N 
ATOM     26  C   UNL     1      -0.447  10.402  20.288  0.00  0.00    +0.000 A 
ATOM     27  N   UNL     1       0.287  10.598  19.222  0.00  0.00    +0.000 NA
ATOM     28  N   UNL     1       1.273   9.641  19.217  0.00  0.00    +0.000 NA
ATOM     29  C   UNL     1       1.122   8.875  20.283  0.00  0.00    +0.000 A 
ENDBRANCH  23  29
ENDBRANCH  19  23
ENDBRANCH   1  19
TORSDOF 5
ENDMDL
MODEL 2
REMARK VINA RESULT:      -7.6      7.567     11.813
REMARK  Name = 
REMARK  6 active torsions:
REMARK  status: ('A' for Active; 'I' for Inactive)
REMARK    1  A    between atoms: C_1  and  N_2
REMARK    2  A    between atoms: C_6  and  C_7
REMARK    3  A    between atoms: C_7  and  C_8
REMARK    4  A    between atoms: C_8  and  C_9
REMARK    5  A    between atoms: C_14  and  N_15
REMARK    6  A    between atoms: C_20  and  C_21
REMARK                            x       y       z     vdW  Elec       q    Type
REMARK                         _______ _______ _______ _____ _____    ______ ____
ROOT
ATOM      1  C   UNL     1      -2.210  14.172  22.988  0.00  0.00    +0.000 A 
ATOM      2  C   UNL     1      -1.423  14.554  24.103  0.00  0.00    +0.000 A 
ATOM      3  C   UNL     1      -1.922  15.312  25.163  0.00  0.00    +0.000 A 
ATOM      4  C   UNL     1      -3.242  15.734  25.145  0.00  0.00    +0.000 A 
ATOM      5  C   UNL     1      -4.073  15.345  24.097  0.00  0.00    +0.000 A 
ATOM      6  C   UNL     1      -3.578  14.554  23.045  0.00  0.00    +0.000 A 
ENDROOT
BRANCH   6   7
ATOM      7  N   UNL     1      -4.485  14.163  22.040  0.00  0.00    +0.000 N 
ATOM      8  C   UNL     1      -5.348  12.983  22.215  0.00  0.00    +0.000 C 
ATOM      9  C   UNL     1      -6.123  13.078  20.911  0.00  0.00    +0.000 C 
ATOM     10  C   UNL     1      -6.027  14.297  20.351  0.00  0.00    +0.000 C 
ATOM     11  C   UNL     1      -6.152  13.740  19.054  0.00  0.00    +0.000 C 
ATOM     12  C   UNL     1      -6.218  12.499  19.595  0.00  0.00    +0.000 C 
ATOM     13  C   UNL     1      -4.935  15.041  21.043  0.00  0.00    +0.000 C 
ATOM     14  O   UNL     1      -4.500  16.158  20.794  0.00  0.00    +0.000 OA
BRANCH  12  15
ATOM     15  C   UNL     1      -6.242  11.102  19.015  0.00  0.00    +0.000 C 
ATOM     16  F   UNL     1      -5.038  10.686  18.560  0.00  0.00    +0.000 F 
ATOM     17  F   UNL     1      -6.680  10.200  19.931  0.00  0.00    +0.000 F 
ATOM     18  F   UNL     1      -7.130  11.021  17.988  0.00  0.00    +0.000 F 
ENDBRANCH  12  15
ENDBRANCH   6   7
BRANCH   1  19
ATOM     19  C   UNL     1      -1.477  13.431  21.730  0.00  0.00    +0.000 C 
ATOM     20  C   UNL     1      -1.606  14.127  20.314  0.00  0.00    +0.000 C 
ATOM     21  C   UNL     1      -0.220  14.746  20.525  0.00  0.00    +0.000 C 
ATOM     22  C   UNL     1       0.073  13.634  21.535  0.00  0.00    +0.000 C 
BRANCH  19  23
ATOM     23  C   UNL     1      -1.857  11.927  21.720  0.00  0.00    +0.000 C 
BRANCH  23  29
ATOM     24  C   UNL     1       0.019  10.141  19.868  0.00  0.00    +0.000 C 
ATOM     25  N   UNL     1      -0.010  10.191  21.304  0.00  0.00    +0.000 N 
ATOM     26  C   UNL     1       0.741   9.399  22.124  0.00  0.00    +0.000 A 
ATOM     27  N   UNL     1       0.467   9.675  23.374  0.00  0.00    +0.000 NA
ATOM     28  N   UNL     1      -0.487  10.663  23.380  0.00  0.00    +0.000 NA
ATOM     29  C   UNL     1      -0.781  10.974  22.130  0.00  0.00    +0.000 A 
ENDBRANCH  23  29
ENDBRANCH  19  23
ENDBRANCH   1  19
TORSDOF 5
ENDMDL
MODEL 3
REMARK VINA RESULT:      -7.6      7.230     10.357
REMARK  Name = 
REMARK  6 active torsions:
REMARK  status: ('A' for Active; 'I' for Inactive)
REMARK    1  A    between atoms: C_1  and  N_2
REMARK    2  A    between atoms: C_6  and  C_7
REMARK    3  A    between atoms: C_7  and  C_8
REMARK    4  A    between atoms: C_8  and  C_9
REMARK    5  A    between atoms: C_14  and  N_15
REMARK    6  A    between atoms: C_20  and  C_21
REMARK                            x       y       z     vdW  Elec       q    Type
REMARK                         _______ _______ _______ _____ _____    ______ ____
ROOT
ATOM      1  C   UNL     1      -2.401  14.475  22.354  0.00  0.00    +0.000 A 
ATOM      2  C   UNL     1      -2.527  15.688  23.077  0.00  0.00    +0.000 A 
ATOM      3  C   UNL     1      -1.529  16.664  23.107  0.00  0.00    +0.000 A 
ATOM      4  C   UNL     1      -0.344  16.456  22.418  0.00  0.00    +0.000 A 
ATOM      5  C   UNL     1      -0.188  15.304  21.652  0.00  0.00    +0.000 A 
ATOM      6  C   UNL     1      -1.207  14.336  21.596  0.00  0.00    +0.000 A 
ENDROOT
BRANCH   6   7
ATOM      7  N   UNL     1      -0.998  13.215  20.768  0.00  0.00    +0.000 N 
ATOM      8  C   UNL     1      -1.065  13.331  19.302  0.00  0.00    +0.000 C 
ATOM      9  C   UNL     1      -0.712  11.897  18.947  0.00  0.00    +0.000 C 
ATOM     10  C   UNL     1      -0.132  11.248  19.974  0.00  0.00    +0.000 C 
ATOM     11  C   UNL     1      -0.673  10.014  19.533  0.00  0.00    +0.000 C 
ATOM     12  C   UNL     1      -1.292  10.652  18.511  0.00  0.00    +0.000 C 
ATOM     13  C   UNL     1      -0.323  12.066  21.207  0.00  0.00    +0.000 C 
ATOM     14  O   UNL     1       0.006  11.798  22.354  0.00  0.00    +0.000 OA
BRANCH  12  15
ATOM     15  C   UNL     1      -2.284  10.221  17.453  0.00  0.00    +0.000 C 
ATOM     16  F   UNL     1      -3.334   9.529  17.948  0.00  0.00    +0.000 F 
ATOM     17  F   UNL     1      -2.770  11.293  16.773  0.00  0.00    +0.000 F 
ATOM     18  F   UNL     1      -1.679   9.451  16.510  0.00  0.00    +0.000 F 
ENDBRANCH  12  15
ENDBRANCH   6   7
BRANCH   1  19
ATOM     19  C   UNL     1      -3.560  13.338  22.528  0.00  0.00    +0.000 C 
ATOM     20  C   UNL     1      -3.222  12.106  23.462  0.00  0.00    +0.000 C 
ATOM     21  C   UNL     1      -3.981  12.797  24.600  0.00  0.00    +0.000 C 
ATOM     22  C   UNL     1      -4.735  13.608  23.543  0.00  0.00    +0.000 C 
BRANCH  19  23
ATOM     23  C   UNL     1      -4.100  12.929  21.132  0.00  0.00    +0.000 C 
BRANCH  23  29
ATOM     24  C   UNL     1      -6.194  15.157  20.242  0.00  0.00    +0.000 C 
ATOM     25  N   UNL     1      -6.466  13.806  20.653  0.00  0.00    +0.000 N 
ATOM     26  C   UNL     1      -7.715  13.276  20.798  0.00  0.00    +0.000 A 
ATOM     27  N   UNL     1      -7.623  12.035  21.205  0.00  0.00    +0.000 NA
ATOM     28  N   UNL     1      -6.287  11.742  21.337  0.00  0.00    +0.000 NA
ATOM     29  C   UNL     1      -5.585  12.814  21.009  0.00  0.00    +0.000 A 
ENDBRANCH  23  29
ENDBRANCH  19  23
ENDBRANCH   1  19
TORSDOF 5
ENDMDL
MODEL 4
REMARK VINA RESULT:      -7.6      0.555      1.100
REMARK  Name = 
REMARK  6 active torsions:
REMARK  status: ('A' for Active; 'I' for Inactive)
REMARK    1  A    between atoms: C_1  and  N_2
REMARK    2  A    between atoms: C_6  and  C_7
REMARK    3  A    between atoms: C_7  and  C_8
REMARK    4  A    between atoms: C_8  and  C_9
REMARK    5  A    between atoms: C_14  and  N_15
REMARK    6  A    between atoms: C_20  and  C_21
REMARK                            x       y       z     vdW  Elec       q    Type
REMARK                         _______ _______ _______ _____ _____    ______ ____
ROOT
ATOM      1  C   UNL     1       2.374   5.315  19.770  0.00  0.00    +0.000 A 
ATOM      2  C   UNL     1       1.274   4.799  20.500  0.00  0.00    +0.000 A 
ATOM      3  C   UNL     1       1.118   3.441  20.785  0.00  0.00    +0.000 A 
ATOM      4  C   UNL     1       2.061   2.532  20.332  0.00  0.00    +0.000 A 
ATOM      5  C   UNL     1       3.187   2.990  19.652  0.00  0.00    +0.000 A 
ATOM      6  C   UNL     1       3.359   4.362  19.394  0.00  0.00    +0.000 A 
ENDROOT
BRANCH   6   7
ATOM      7  N   UNL     1       4.542   4.759  18.739  0.00  0.00    +0.000 N 
ATOM      8  C   UNL     1       5.720   5.205  19.502  0.00  0.00    +0.000 C 
ATOM      9  C   UNL     1       6.668   5.433  18.337  0.00  0.00    +0.000 C 
ATOM     10  C   UNL     1       6.253   4.815  17.216  0.00  0.00    +0.000 C 
ATOM     11  C   UNL     1       6.854   5.815  16.411  0.00  0.00    +0.000 C 
ATOM     12  C   UNL     1       7.253   6.471  17.527  0.00  0.00    +0.000 C 
ATOM     13  C   UNL     1       4.841   4.379  17.422  0.00  0.00    +0.000 C 
ATOM     14  O   UNL     1       4.090   3.834  16.624  0.00  0.00    +0.000 OA
BRANCH  12  15
ATOM     15  C   UNL     1       7.917   7.808  17.776  0.00  0.00    +0.000 C 
ATOM     16  F   UNL     1       8.708   7.821  18.873  0.00  0.00    +0.000 F 
ATOM     17  F   UNL     1       8.669   8.187  16.710  0.00  0.00    +0.000 F 
ATOM     18  F   UNL     1       6.987   8.789  17.917  0.00  0.00    +0.000 F 
ENDBRANCH  12  15
ENDBRANCH   6   7
BRANCH   1  19
ATOM     19  C   UNL     1       2.365   6.894  19.355  0.00  0.00    +0.000 C 
ATOM     20  C   UNL     1       3.521   7.389  18.394  0.00  0.00    +0.000 C 
ATOM     21  C   UNL     1       2.554   7.258  17.211  0.00  0.00    +0.000 C 
ATOM     22  C   UNL     1       1.396   7.365  18.205  0.00  0.00    +0.000 C 
BRANCH  19  23
ATOM     23  C   UNL     1       2.200   7.765  20.628  0.00  0.00    +0.000 C 
BRANCH  23  29
ATOM     24  C   UNL     1       1.702  10.531  19.130  0.00  0.00    +0.000 C 
ATOM     25  N   UNL     1       0.820   9.850  20.038  0.00  0.00    +0.000 N 
ATOM     26  C   UNL     1      -0.379  10.339  20.468  0.00  0.00    +0.000 A 
ATOM     27  N   UNL     1      -0.927   9.492  21.303  0.00  0.00    +0.000 NA
ATOM     28  N   UNL     1      -0.069   8.426  21.432  0.00  0.00    +0.000 NA
ATOM     29  C   UNL     1       0.990   8.643  20.672  0.00  0.00    +0.000 A 
ENDBRANCH  23  29
ENDBRANCH  19  23
ENDBRANCH   1  19
TORSDOF 5
ENDMDL
MODEL 5
REMARK VINA RESULT:      -7.5      7.810     10.663
REMARK  Name = 
REMARK  6 active torsions:
REMARK  status: ('A' for Active; 'I' for Inactive)
REMARK    1  A    between atoms: C_1  and  N_2
REMARK    2  A    between atoms: C_6  and  C_7
REMARK    3  A    between atoms: C_7  and  C_8
REMARK    4  A    between atoms: C_8  and  C_9
REMARK    5  A    between atoms: C_14  and  N_15
REMARK    6  A    between atoms: C_20  and  C_21
REMARK                            x       y       z     vdW  Elec       q    Type
REMARK                         _______ _______ _______ _____ _____    ______ ____
ROOT
ATOM      1  C   UNL     1      -1.014  11.056  20.817  0.00  0.00    +0.000 A 
ATOM      2  C   UNL     1      -0.367   9.884  20.348  0.00  0.00    +0.000 A 
ATOM      3  C   UNL     1       0.248   8.962  21.196  0.00  0.00    +0.000 A 
ATOM      4  C   UNL     1       0.252   9.184  22.564  0.00  0.00    +0.000 A 
ATOM      5  C   UNL     1      -0.410  10.293  23.083  0.00  0.00    +0.000 A 
ATOM      6  C   UNL     1      -1.058  11.205  22.230  0.00  0.00    +0.000 A 
ENDROOT
BRANCH   6   7
ATOM      7  N   UNL     1      -1.744  12.282  22.826  0.00  0.00    +0.000 N 
ATOM      8  C   UNL     1      -3.027  12.074  23.518  0.00  0.00    +0.000 C 
ATOM      9  C   UNL     1      -3.257  13.498  23.994  0.00  0.00    +0.000 C 
ATOM     10  C   UNL     1      -2.130  14.233  23.964  0.00  0.00    +0.000 C 
ATOM     11  C   UNL     1      -2.875  15.413  23.717  0.00  0.00    +0.000 C 
ATOM     12  C   UNL     1      -4.020  14.688  23.711  0.00  0.00    +0.000 C 
ATOM     13  C   UNL     1      -1.110  13.484  23.175  0.00  0.00    +0.000 C 
ATOM     14  O   UNL     1       0.022  13.834  22.869  0.00  0.00    +0.000 OA
BRANCH  12  15
ATOM     15  C   UNL     1      -5.464  15.011  23.397  0.00  0.00    +0.000 C 
ATOM     16  F   UNL     1      -5.812  16.281  23.704  0.00  0.00    +0.000 F 
ATOM     17  F   UNL     1      -5.735  14.807  22.081  0.00  0.00    +0.000 F 
ATOM     18  F   UNL     1      -6.302  14.173  24.062  0.00  0.00    +0.000 F 
ENDBRANCH  12  15
ENDBRANCH   6   7
BRANCH   1  19
ATOM     19  C   UNL     1      -1.550  12.144  19.724  0.00  0.00    +0.000 C 
ATOM     20  C   UNL     1      -2.864  11.768  18.925  0.00  0.00    +0.000 C 
ATOM     21  C   UNL     1      -3.671  12.626  19.906  0.00  0.00    +0.000 C 
ATOM     22  C   UNL     1      -2.381  13.380  20.236  0.00  0.00    +0.000 C 
BRANCH  19  23
ATOM     23  C   UNL     1      -0.375  12.588  18.814  0.00  0.00    +0.000 C 
BRANCH  23  29
ATOM     24  C   UNL     1       0.056  15.743  18.853  0.00  0.00    +0.000 C 
ATOM     25  N   UNL     1       0.888  14.732  19.449  0.00  0.00    +0.000 N 
ATOM     26  C   UNL     1       2.071  14.977  20.083  0.00  0.00    +0.000 A 
ATOM     27  N   UNL     1       2.593  13.847  20.492  0.00  0.00    +0.000 NA
ATOM     28  N   UNL     1       1.741  12.838  20.114  0.00  0.00    +0.000 NA
ATOM     29  C   UNL     1       0.712  13.370  19.478  0.00  0.00    +0.000 A 
ENDBRANCH  23  29
ENDBRANCH  19  23
ENDBRANCH   1  19
TORSDOF 5
ENDMDL
MODEL 6
REMARK VINA RESULT:      -7.5      8.294     11.485
REMARK  Name = 
REMARK  6 active torsions:
REMARK  status: ('A' for Active; 'I' for Inactive)
REMARK    1  A    between atoms: C_1  and  N_2
REMARK    2  A    between atoms: C_6  and  C_7
REMARK    3  A    between atoms: C_7  and  C_8
REMARK    4  A    between atoms: C_8  and  C_9
REMARK    5  A    between atoms: C_14  and  N_15
REMARK    6  A    between atoms: C_20  and  C_21
REMARK                            x       y       z     vdW  Elec       q    Type
REMARK                         _______ _______ _______ _____ _____    ______ ____
ROOT
ATOM      1  C   UNL     1      -5.419  13.162  22.207  0.00  0.00    +0.000 A 
ATOM      2  C   UNL     1      -5.659  13.268  23.601  0.00  0.00    +0.000 A 
ATOM      3  C   UNL     1      -6.832  12.814  24.208  0.00  0.00    +0.000 A 
ATOM      4  C   UNL     1      -7.829  12.242  23.434  0.00  0.00    +0.000 A 
ATOM      5  C   UNL     1      -7.625  12.069  22.067  0.00  0.00    +0.000 A 
ATOM      6  C   UNL     1      -6.430  12.497  21.461  0.00  0.00    +0.000 A 
ENDROOT
BRANCH   6   7
ATOM      7  N   UNL     1      -6.273  12.253  20.082  0.00  0.00    +0.000 N 
ATOM      8  C   UNL     1      -5.937  10.910  19.583  0.00  0.00    +0.000 C 
ATOM      9  C   UNL     1      -5.959  11.212  18.094  0.00  0.00    +0.000 C 
ATOM     10  C   UNL     1      -6.611  12.357  17.818  0.00  0.00    +0.000 C 
ATOM     11  C   UNL     1      -5.789  12.583  16.686  0.00  0.00    +0.000 C 
ATOM     12  C   UNL     1      -5.098  11.451  16.964  0.00  0.00    +0.000 C 
ATOM     13  C   UNL     1      -6.813  13.095  19.099  0.00  0.00    +0.000 C 
ATOM     14  O   UNL     1      -7.313  14.199  19.268  0.00  0.00    +0.000 OA
BRANCH  12  15
ATOM     15  C   UNL     1      -3.856  10.811  16.383  0.00  0.00    +0.000 C 
ATOM     16  F   UNL     1      -2.762  11.602  16.446  0.00  0.00    +0.000 F 
ATOM     17  F   UNL     1      -3.567   9.643  17.014  0.00  0.00    +0.000 F 
ATOM     18  F   UNL     1      -4.053  10.469  15.082  0.00  0.00    +0.000 F 
ENDBRANCH  12  15
ENDBRANCH   6   7
BRANCH   1  19
ATOM     19  C   UNL     1      -4.088  13.877  21.588  0.00  0.00    +0.000 C 
ATOM     20  C   UNL     1      -4.310  15.203  20.752  0.00  0.00    +0.000 C 
ATOM     21  C   UNL     1      -3.946  16.016  21.999  0.00  0.00    +0.000 C 
ATOM     22  C   UNL     1      -3.210  14.784  22.532  0.00  0.00    +0.000 C 
BRANCH  19  23
ATOM     23  C   UNL     1      -3.224  12.819  20.854  0.00  0.00    +0.000 C 
BRANCH  23  29
ATOM     24  C   UNL     1      -0.307  11.947  19.920  0.00  0.00    +0.000 C 
ATOM     25  N   UNL     1      -0.900  11.786  21.219  0.00  0.00    +0.000 N 
ATOM     26  C   UNL     1      -0.307  11.146  22.269  0.00  0.00    +0.000 A 
ATOM     27  N   UNL     1      -1.114  11.151  23.300  0.00  0.00    +0.000 NA
ATOM     28  N   UNL     1      -2.264  11.800  22.922  0.00  0.00    +0.000 NA
ATOM     29  C   UNL     1      -2.140  12.180  21.662  0.00  0.00    +0.000 A 
ENDBRANCH  23  29
ENDBRANCH  19  23
ENDBRANCH   1  19
TORSDOF 5
ENDMDL
MODEL 7
REMARK VINA RESULT:      -7.4      3.670      6.471
REMARK  Name = 
REMARK  6 active torsions:
REMARK  status: ('A' for Active; 'I' for Inactive)
REMARK    1  A    between atoms: C_1  and  N_2
REMARK    2  A    between atoms: C_6  and  C_7
REMARK    3  A    between atoms: C_7  and  C_8
REMARK    4  A    between atoms: C_8  and  C_9
REMARK    5  A    between atoms: C_14  and  N_15
REMARK    6  A    between atoms: C_20  and  C_21
REMARK                            x       y       z     vdW  Elec       q    Type
REMARK                         _______ _______ _______ _____ _____    ______ ____
ROOT
ATOM      1  C   UNL     1      -0.590  11.646  18.916  0.00  0.00    +0.000 A 
ATOM      2  C   UNL     1      -1.727  12.445  18.632  0.00  0.00    +0.000 A 
ATOM      3  C   UNL     1      -2.885  11.937  18.042  0.00  0.00    +0.000 A 
ATOM      4  C   UNL     1      -2.949  10.597  17.696  0.00  0.00    +0.000 A 
ATOM      5  C   UNL     1      -1.880   9.757  17.997  0.00  0.00    +0.000 A 
ATOM      6  C   UNL     1      -0.726  10.263  18.622  0.00  0.00    +0.000 A 
ENDROOT
BRANCH   6   7
ATOM      7  N   UNL     1       0.300   9.349  18.936  0.00  0.00    +0.000 N 
ATOM      8  C   UNL     1       1.444   9.152  18.031  0.00  0.00    +0.000 C 
ATOM      9  C   UNL     1       2.223   8.153  18.869  0.00  0.00    +0.000 C 
ATOM     10  C   UNL     1       1.824   8.147  20.154  0.00  0.00    +0.000 C 
ATOM     11  C   UNL     1       2.157   6.776  20.280  0.00  0.00    +0.000 C 
ATOM     12  C   UNL     1       2.535   6.750  18.979  0.00  0.00    +0.000 C 
ATOM     13  C   UNL     1       0.538   8.900  20.243  0.00  0.00    +0.000 C 
ATOM     14  O   UNL     1      -0.173   9.074  21.223  0.00  0.00    +0.000 OA
BRANCH  12  15
ATOM     15  C   UNL     1       2.967   5.650  18.034  0.00  0.00    +0.000 C 
ATOM     16  F   UNL     1       3.759   6.084  17.027  0.00  0.00    +0.000 F 
ATOM     17  F   UNL     1       3.632   4.669  18.698  0.00  0.00    +0.000 F 
ATOM     18  F   UNL     1       1.888   5.034  17.484  0.00  0.00    +0.000 F 
ENDBRANCH  12  15
ENDBRANCH   6   7
BRANCH   1  19
ATOM     19  C   UNL     1       0.767  12.381  19.452  0.00  0.00    +0.000 C 
ATOM     20  C   UNL     1       2.089  12.142  18.615  0.00  0.00    +0.000 C 
ATOM     21  C   UNL     1       1.854  13.485  17.916  0.00  0.00    +0.000 C 
ATOM     22  C   UNL     1       0.987  13.902  19.106  0.00  0.00    +0.000 C 
BRANCH  19  23
ATOM     23  C   UNL     1       0.936  12.115  20.971  0.00  0.00    +0.000 C 
BRANCH  23  29
ATOM     24  C   UNL     1      -1.930  12.061  22.358  0.00  0.00    +0.000 C 
ATOM     25  N   UNL     1      -0.928  13.088  22.445  0.00  0.00    +0.000 N 
ATOM     26  C   UNL     1      -1.088  14.274  23.102  0.00  0.00    +0.000 A 
ATOM     27  N   UNL     1      -0.005  14.997  22.975  0.00  0.00    +0.000 NA
ATOM     28  N   UNL     1       0.885  14.279  22.214  0.00  0.00    +0.000 NA
ATOM     29  C   UNL     1       0.327  13.126  21.888  0.00  0.00    +0.000 A 
ENDBRANCH  23  29
ENDBRANCH  19  23
ENDBRANCH   1  19
TORSDOF 5
ENDMDL
MODEL 8
REMARK VINA RESULT:      -7.4      6.074      9.653
REMARK  Name = 
REMARK  6 active torsions:
REMARK  status: ('A' for Active; 'I' for Inactive)
REMARK    1  A    between atoms: C_1  and  N_2
REMARK    2  A    between atoms: C_6  and  C_7
REMARK    3  A    between atoms: C_7  and  C_8
REMARK    4  A    between atoms: C_8  and  C_9
REMARK    5  A    between atoms: C_14  and  N_15
REMARK    6  A    between atoms: C_20  and  C_21
REMARK                            x       y       z     vdW  Elec       q    Type
REMARK                         _______ _______ _______ _____ _____    ______ ____
ROOT
ATOM      1  C   UNL     1      -2.047  13.318  20.495  0.00  0.00    +0.000 A 
ATOM      2  C   UNL     1      -3.320  12.784  20.817  0.00  0.00    +0.000 A 
ATOM      3  C   UNL     1      -4.223  13.426  21.666  0.00  0.00    +0.000 A 
ATOM      4  C   UNL     1      -3.878  14.637  22.245  0.00  0.00    +0.000 A 
ATOM      5  C   UNL     1      -2.660  15.231  21.925  0.00  0.00    +0.000 A 
ATOM      6  C   UNL     1      -1.765  14.598  21.044  0.00  0.00    +0.000 A 
ENDROOT
BRANCH   6   7
ATOM      7  N   UNL     1      -0.569  15.275  20.732  0.00  0.00    +0.000 N 
ATOM      8  C   UNL     1      -0.496  16.198  19.586  0.00  0.00    +0.000 C 
ATOM      9  C   UNL     1       0.940  16.662  19.765  0.00  0.00    +0.000 C 
ATOM     10  C   UNL     1       1.408  16.403  20.999  0.00  0.00    +0.000 C 
ATOM     11  C   UNL     1       2.726  16.259  20.497  0.00  0.00    +0.000 C 
ATOM     12  C   UNL     1       2.271  16.486  19.242  0.00  0.00    +0.000 C 
ATOM     13  C   UNL     1       0.460  15.464  21.667  0.00  0.00    +0.000 C 
ATOM     14  O   UNL     1       0.556  14.946  22.771  0.00  0.00    +0.000 OA
BRANCH  12  15
ATOM     15  C   UNL     1       2.907  16.432  17.870  0.00  0.00    +0.000 C 
ATOM     16  F   UNL     1       2.273  17.194  16.950  0.00  0.00    +0.000 F 
ATOM     17  F   UNL     1       4.207  16.825  17.918  0.00  0.00    +0.000 F 
ATOM     18  F   UNL     1       2.943  15.155  17.405  0.00  0.00    +0.000 F 
ENDBRANCH  12  15
ENDBRANCH   6   7
BRANCH   1  19
ATOM     19  C   UNL     1      -1.011  12.401  19.627  0.00  0.00    +0.000 C 
ATOM     20  C   UNL     1      -1.597  11.088  18.967  0.00  0.00    +0.000 C 
ATOM     21  C   UNL     1      -1.744  11.852  17.647  0.00  0.00    +0.000 C 
ATOM     22  C   UNL     1      -0.680  12.831  18.148  0.00  0.00    +0.000 C 
BRANCH  19  23
ATOM     23  C   UNL     1       0.282  12.159  20.450  0.00  0.00    +0.000 C 
BRANCH  23  29
ATOM     24  C   UNL     1       1.068   9.072  20.457  0.00  0.00    +0.000 C 
ATOM     25  N   UNL     1       0.493   9.838  21.530  0.00  0.00    +0.000 N 
ATOM     26  C   UNL     1       0.116   9.321  22.736  0.00  0.00    +0.000 A 
ATOM     27  N   UNL     1      -0.391  10.270  23.482  0.00  0.00    +0.000 NA
ATOM     28  N   UNL     1      -0.355  11.434  22.752  0.00  0.00    +0.000 NA
ATOM     29  C   UNL     1       0.175  11.174  21.569  0.00  0.00    +0.000 A 
ENDBRANCH  23  29
ENDBRANCH  19  23
ENDBRANCH   1  19
TORSDOF 5
ENDMDL
MODEL 9
REMARK VINA RESULT:      -7.4      8.213     10.917
REMARK  Name = 
REMARK  6 active torsions:
REMARK  status: ('A' for Active; 'I' for Inactive)
REMARK    1  A    between atoms: C_1  and  N_2
REMARK    2  A    between atoms: C_6  and  C_7
REMARK    3  A    between atoms: C_7  and  C_8
REMARK    4  A    between atoms: C_8  and  C_9
REMARK    5  A    between atoms: C_14  and  N_15
REMARK    6  A    between atoms: C_20  and  C_21
REMARK                            x       y       z     vdW  Elec       q    Type
REMARK                         _______ _______ _______ _____ _____    ______ ____
ROOT
ATOM      1  C   UNL     1      -1.137  11.450  20.871  0.00  0.00    +0.000 A 
ATOM      2  C   UNL     1      -0.529  10.297  20.312  0.00  0.00    +0.000 A 
ATOM      3  C   UNL     1      -0.025   9.251  21.087  0.00  0.00    +0.000 A 
ATOM      4  C   UNL     1      -0.097   9.323  22.469  0.00  0.00    +0.000 A 
ATOM      5  C   UNL     1      -0.728  10.410  23.069  0.00  0.00    +0.000 A 
ATOM      6  C   UNL     1      -1.264  11.448  22.286  0.00  0.00    +0.000 A 
ENDROOT
BRANCH   6   7
ATOM      7  N   UNL     1      -1.926  12.497  22.957  0.00  0.00    +0.000 N 
ATOM      8  C   UNL     1      -3.220  12.274  23.623  0.00  0.00    +0.000 C 
ATOM      9  C   UNL     1      -3.414  13.665  24.204  0.00  0.00    +0.000 C 
ATOM     10  C   UNL     1      -2.266  14.366  24.237  0.00  0.00    +0.000 C 
ATOM     11  C   UNL     1      -2.975  15.583  24.076  0.00  0.00    +0.000 C 
ATOM     12  C   UNL     1      -4.139  14.894  24.006  0.00  0.00    +0.000 C 
ATOM     13  C   UNL     1      -1.260  13.650  23.401  0.00  0.00    +0.000 C 
ATOM     14  O   UNL     1      -0.116  13.989  23.131  0.00  0.00    +0.000 OA
BRANCH  12  15
ATOM     15  C   UNL     1      -5.571  15.282  23.707  0.00  0.00    +0.000 C 
ATOM     16  F   UNL     1      -6.463  14.301  23.973  0.00  0.00    +0.000 F 
ATOM     17  F   UNL     1      -5.936  16.385  24.412  0.00  0.00    +0.000 F 
ATOM     18  F   UNL     1      -5.712  15.635  22.402  0.00  0.00    +0.000 F 
ENDBRANCH  12  15
ENDBRANCH   6   7
BRANCH   1  19
ATOM     19  C   UNL     1      -1.537  12.682  19.876  0.00  0.00    +0.000 C 
ATOM     20  C   UNL     1      -0.541  13.910  19.820  0.00  0.00    +0.000 C 
ATOM     21  C   UNL     1       0.071  13.319  18.546  0.00  0.00    +0.000 C 
ATOM     22  C   UNL     1      -1.229  12.539  18.337  0.00  0.00    +0.000 C 
BRANCH  19  23
ATOM     23  C   UNL     1      -3.013  13.089  20.123  0.00  0.00    +0.000 C 
BRANCH  23  29
ATOM     24  C   UNL     1      -6.056  12.635  20.948  0.00  0.00    +0.000 C 
ATOM     25  N   UNL     1      -5.348  12.056  19.838  0.00  0.00    +0.000 N 
ATOM     26  C   UNL     1      -5.872  11.133  18.981  0.00  0.00    +0.000 A 
ATOM     27  N   UNL     1      -4.969  10.790  18.097  0.00  0.00    +0.000 NA
ATOM     28  N   UNL     1      -3.824  11.495  18.381  0.00  0.00    +0.000 NA
ATOM     29  C   UNL     1      -4.049  12.257  19.437  0.00  0.00    +0.000 A 
ENDBRANCH  23  29
ENDBRANCH  19  23
ENDBRANCH   1  19
TORSDOF 5
ENDMDL
