MODEL 1
REMARK VINA RESULT:      -8.3      0.000      0.000
REMARK  Name = 
REMARK  4 active torsions:
REMARK  status: ('A' for Active; 'I' for Inactive)
REMARK    1  A    between atoms: C_2  and  C_16
REMARK    2  A    between atoms: N_3  and  C_4
REMARK    3  A    between atoms: N_7  and  C_8
REMARK    4  A    between atoms: C_19  and  N_20
REMARK                            x       y       z     vdW  Elec       q    Type
REMARK                         _______ _______ _______ _____ _____    ______ ____
ROOT
ATOM      1  O   UNL     1       1.579   8.699  18.874  0.00  0.00    +0.000 OA
ATOM      2  C   UNL     1       1.439   8.441  20.064  0.00  0.00    +0.000 C 
ATOM      3  N   UNL     1       1.844   7.283  20.694  0.00  0.00    +0.000 N 
ATOM      4  H   UNL     1       1.589   7.130  21.660  0.00  0.00    +0.000 HD
ENDROOT
BRANCH   2   5
ATOM      5  C   UNL     1       0.729   9.405  20.945  0.00  0.00    +0.000 A 
ATOM      6  C   UNL     1       0.720  10.751  20.576  0.00  0.00    +0.000 A 
ATOM      7  C   UNL     1       0.020  11.679  21.347  0.00  0.00    +0.000 A 
ATOM      8  C   UNL     1      -0.686  11.280  22.490  0.00  0.00    +0.000 A 
ATOM      9  C   UNL     1      -0.615   9.940  22.888  0.00  0.00    +0.000 A 
ATOM     10  C   UNL     1       0.074   9.001  22.116  0.00  0.00    +0.000 A 
BRANCH   8  11
ATOM     11  N   UNL     1      -1.392  12.191  23.292  0.00  0.00    +0.000 N 
ATOM     12  C   UNL     1      -2.598  12.811  22.952  0.00  0.00    +0.000 A 
ATOM     13  N   UNL     1      -3.470  12.178  22.150  0.00  0.00    +0.000 NA
ATOM     14  C   UNL     1      -4.618  12.810  21.859  0.00  0.00    +0.000 A 
ATOM     15  C   UNL     1      -4.933  14.053  22.347  0.00  0.00    +0.000 A 
ATOM     16  C   UNL     1      -3.985  14.621  23.161  0.00  0.00    +0.000 A 
ATOM     17  N   UNL     1      -2.818  14.027  23.478  0.00  0.00    +0.000 NA
ATOM     18  H   UNL     1      -0.805  12.898  23.720  0.00  0.00    +0.000 HD
ENDBRANCH   8  11
ENDBRANCH   2   5
BRANCH   3  19
ATOM     19  C   UNL     1       2.471   6.235  20.056  0.00  0.00    +0.000 A 
ATOM     20  C   UNL     1       2.425   4.843  20.232  0.00  0.00    +0.000 A 
ATOM     21  N   UNL     1       3.194   4.194  19.348  0.00  0.00    +0.000 NA
ATOM     22  N   UNL     1       3.850   5.185  18.687  0.00  0.00    +0.000 N 
ATOM     23  C   UNL     1       3.334   6.420  19.009  0.00  0.00    +0.000 A 
BRANCH  22  24
ATOM     24  C   UNL     1       4.874   4.889  17.750  0.00  0.00    +0.000 A 
ATOM     25  C   UNL     1       4.489   4.367  16.501  0.00  0.00    +0.000 A 
ATOM     26  C   UNL     1       5.443   4.124  15.510  0.00  0.00    +0.000 A 
ATOM     27  C   UNL     1       6.789   4.370  15.764  0.00  0.00    +0.000 A 
ATOM     28  C   UNL     1       7.185   4.842  17.015  0.00  0.00    +0.000 A 
ATOM     29  C   UNL     1       6.238   5.098  18.012  0.00  0.00    +0.000 A 
ATOM     30 CL   UNL     1       6.895   5.515  19.562  0.00  0.00    +0.000 Cl
ENDBRANCH  22  24
ENDBRANCH   3  19
TORSDOF 4
ENDMDL
MODEL 2
REMARK VINA RESULT:      -8.2      7.047      8.576
REMARK  Name = 
REMARK  4 active torsions:
REMARK  status: ('A' for Active; 'I' for Inactive)
REMARK    1  A    between atoms: C_2  and  C_16
REMARK    2  A    between atoms: N_3  and  C_4
REMARK    3  A    between atoms: N_7  and  C_8
REMARK    4  A    between atoms: C_19  and  N_20
REMARK                            x       y       z     vdW  Elec       q    Type
REMARK                         _______ _______ _______ _____ _____    ______ ____
ROOT
ATOM      1  O   UNL     1       8.580   7.291  18.916  0.00  0.00    +0.000 OA
ATOM      2  C   UNL     1       8.041   8.173  18.259  0.00  0.00    +0.000 C 
ATOM      3  N   UNL     1       6.993   8.002  17.380  0.00  0.00    +0.000 N 
ATOM      4  H   UNL     1       6.689   8.782  16.813  0.00  0.00    +0.000 HD
ENDROOT
BRANCH   2   5
ATOM      5  C   UNL     1       8.555   9.566  18.339  0.00  0.00    +0.000 A 
ATOM      6  C   UNL     1       8.065  10.502  17.426  0.00  0.00    +0.000 A 
ATOM      7  C   UNL     1       8.483  11.832  17.503  0.00  0.00    +0.000 A 
ATOM      8  C   UNL     1       9.386  12.247  18.491  0.00  0.00    +0.000 A 
ATOM      9  C   UNL     1       9.923  11.287  19.356  0.00  0.00    +0.000 A 
ATOM     10  C   UNL     1       9.501   9.956  19.296  0.00  0.00    +0.000 A 
BRANCH   8  11
ATOM     11  N   UNL     1       9.833  13.575  18.587  0.00  0.00    +0.000 N 
ATOM     12  C   UNL     1       9.015  14.705  18.674  0.00  0.00    +0.000 A 
ATOM     13  N   UNL     1       7.811  14.613  19.261  0.00  0.00    +0.000 NA
ATOM     14  C   UNL     1       7.065  15.727  19.329  0.00  0.00    +0.000 A 
ATOM     15  C   UNL     1       7.482  16.938  18.836  0.00  0.00    +0.000 A 
ATOM     16  C   UNL     1       8.727  16.939  18.257  0.00  0.00    +0.000 A 
ATOM     17  N   UNL     1       9.508  15.846  18.164  0.00  0.00    +0.000 NA
ATOM     18  H   UNL     1      10.584  13.800  17.944  0.00  0.00    +0.000 HD
ENDBRANCH   8  11
ENDBRANCH   2   5
BRANCH   3  19
ATOM     19  C   UNL     1       6.400   6.787  17.112  0.00  0.00    +0.000 A 
ATOM     20  C   UNL     1       6.659   5.785  16.163  0.00  0.00    +0.000 A 
ATOM     21  N   UNL     1       5.830   4.740  16.290  0.00  0.00    +0.000 NA
ATOM     22  N   UNL     1       4.940   5.134  17.240  0.00  0.00    +0.000 N 
ATOM     23  C   UNL     1       5.342   6.307  17.837  0.00  0.00    +0.000 A 
BRANCH  22  24
ATOM     24  C   UNL     1       3.809   4.340  17.558  0.00  0.00    +0.000 A 
ATOM     25  C   UNL     1       3.934   2.943  17.445  0.00  0.00    +0.000 A 
ATOM     26  C   UNL     1       2.880   2.104  17.815  0.00  0.00    +0.000 A 
ATOM     27  C   UNL     1       1.684   2.649  18.271  0.00  0.00    +0.000 A 
ATOM     28  C   UNL     1       1.533   4.034  18.341  0.00  0.00    +0.000 A 
ATOM     29  C   UNL     1       2.585   4.883  17.983  0.00  0.00    +0.000 A 
ATOM     30 CL   UNL     1       2.191   6.572  17.959  0.00  0.00    +0.000 Cl
ENDBRANCH  22  24
ENDBRANCH   3  19
TORSDOF 4
ENDMDL
MODEL 3
REMARK VINA RESULT:      -8.0      1.308      1.699
REMARK  Name = 
REMARK  4 active torsions:
REMARK  status: ('A' for Active; 'I' for Inactive)
REMARK    1  A    between atoms: C_2  and  C_16
REMARK    2  A    between atoms: N_3  and  C_4
REMARK    3  A    between atoms: N_7  and  C_8
REMARK    4  A    between atoms: C_19  and  N_20
REMARK                            x       y       z     vdW  Elec       q    Type
REMARK                         _______ _______ _______ _____ _____    ______ ____
ROOT
ATOM      1  O   UNL     1       1.859   8.586  18.674  0.00  0.00    +0.000 OA
ATOM      2  C   UNL     1       1.585   8.345  19.844  0.00  0.00    +0.000 C 
ATOM      3  N   UNL     1       1.910   7.194  20.530  0.00  0.00    +0.000 N 
ATOM      4  H   UNL     1       1.548   7.056  21.463  0.00  0.00    +0.000 HD
ENDROOT
BRANCH   2   5
ATOM      5  C   UNL     1       0.787   9.324  20.627  0.00  0.00    +0.000 A 
ATOM      6  C   UNL     1       0.234  10.414  19.951  0.00  0.00    +0.000 A 
ATOM      7  C   UNL     1      -0.566  11.326  20.640  0.00  0.00    +0.000 A 
ATOM      8  C   UNL     1      -0.833  11.162  22.006  0.00  0.00    +0.000 A 
ATOM      9  C   UNL     1      -0.219  10.105  22.688  0.00  0.00    +0.000 A 
ATOM     10  C   UNL     1       0.575   9.179  22.004  0.00  0.00    +0.000 A 
BRANCH   8  11
ATOM     11  N   UNL     1      -1.626  12.068  22.729  0.00  0.00    +0.000 N 
ATOM     12  C   UNL     1      -1.258  13.370  23.082  0.00  0.00    +0.000 A 
ATOM     13  N   UNL     1      -0.421  14.064  22.293  0.00  0.00    +0.000 NA
ATOM     14  C   UNL     1      -0.104  15.313  22.670  0.00  0.00    +0.000 A 
ATOM     15  C   UNL     1      -0.599  15.900  23.807  0.00  0.00    +0.000 A 
ATOM     16  C   UNL     1      -1.449  15.118  24.549  0.00  0.00    +0.000 A 
ATOM     17  N   UNL     1      -1.792  13.860  24.213  0.00  0.00    +0.000 NA
ATOM     18  H   UNL     1      -2.080  11.658  23.537  0.00  0.00    +0.000 HD
ENDBRANCH   8  11
ENDBRANCH   2   5
BRANCH   3  19
ATOM     19  C   UNL     1       2.599   6.135  19.980  0.00  0.00    +0.000 A 
ATOM     20  C   UNL     1       2.644   4.764  20.281  0.00  0.00    +0.000 A 
ATOM     21  N   UNL     1       3.446   4.088  19.448  0.00  0.00    +0.000 NA
ATOM     22  N   UNL     1       4.032   5.055  18.691  0.00  0.00    +0.000 N 
ATOM     23  C   UNL     1       3.440   6.278  18.909  0.00  0.00    +0.000 A 
BRANCH  22  24
ATOM     24  C   UNL     1       5.065   4.741  17.771  0.00  0.00    +0.000 A 
ATOM     25  C   UNL     1       4.699   4.133  16.556  0.00  0.00    +0.000 A 
ATOM     26  C   UNL     1       5.660   3.866  15.579  0.00  0.00    +0.000 A 
ATOM     27  C   UNL     1       6.996   4.175  15.814  0.00  0.00    +0.000 A 
ATOM     28  C   UNL     1       7.376   4.734  17.034  0.00  0.00    +0.000 A 
ATOM     29  C   UNL     1       6.421   5.014  18.017  0.00  0.00    +0.000 A 
ATOM     30 CL   UNL     1       7.063   5.546  19.537  0.00  0.00    +0.000 Cl
ENDBRANCH  22  24
ENDBRANCH   3  19
TORSDOF 4
ENDMDL
MODEL 4
REMARK VINA RESULT:      -8.0      3.515     10.738
REMARK  Name = 
REMARK  4 active torsions:
REMARK  status: ('A' for Active; 'I' for Inactive)
REMARK    1  A    between atoms: C_2  and  C_16
REMARK    2  A    between atoms: N_3  and  C_4
REMARK    3  A    between atoms: N_7  and  C_8
REMARK    4  A    between atoms: C_19  and  N_20
REMARK                            x       y       z     vdW  Elec       q    Type
REMARK                         _______ _______ _______ _____ _____    ______ ____
ROOT
ATOM      1  O   UNL     1       1.021  11.652  19.049  0.00  0.00    +0.000 OA
ATOM      2  C   UNL     1       0.647  10.601  19.558  0.00  0.00    +0.000 C 
ATOM      3  N   UNL     1      -0.371  10.465  20.477  0.00  0.00    +0.000 N 
ATOM      4  H   UNL     1      -0.532   9.565  20.909  0.00  0.00    +0.000 HD
ENDROOT
BRANCH   2   5
ATOM      5  C   UNL     1       1.353   9.335  19.229  0.00  0.00    +0.000 A 
ATOM      6  C   UNL     1       1.860   9.180  17.937  0.00  0.00    +0.000 A 
ATOM      7  C   UNL     1       2.575   8.030  17.605  0.00  0.00    +0.000 A 
ATOM      8  C   UNL     1       2.801   7.023  18.553  0.00  0.00    +0.000 A 
ATOM      9  C   UNL     1       2.230   7.157  19.823  0.00  0.00    +0.000 A 
ATOM     10  C   UNL     1       1.523   8.312  20.170  0.00  0.00    +0.000 A 
BRANCH   8  11
ATOM     11  N   UNL     1       3.508   5.848  18.246  0.00  0.00    +0.000 N 
ATOM     12  C   UNL     1       3.024   4.545  18.390  0.00  0.00    +0.000 A 
ATOM     13  N   UNL     1       1.709   4.304  18.256  0.00  0.00    +0.000 NA
ATOM     14  C   UNL     1       1.293   3.035  18.395  0.00  0.00    +0.000 A 
ATOM     15  C   UNL     1       2.145   1.992  18.657  0.00  0.00    +0.000 A 
ATOM     16  C   UNL     1       3.470   2.332  18.773  0.00  0.00    +0.000 A 
ATOM     17  N   UNL     1       3.933   3.590  18.646  0.00  0.00    +0.000 NA
ATOM     18  H   UNL     1       4.465   5.849  18.581  0.00  0.00    +0.000 HD
ENDBRANCH   8  11
ENDBRANCH   2   5
BRANCH   3  19
ATOM     19  C   UNL     1      -1.119  11.515  20.963  0.00  0.00    +0.000 A 
ATOM     20  C   UNL     1      -2.118  12.322  20.394  0.00  0.00    +0.000 A 
ATOM     21  N   UNL     1      -2.599  13.222  21.262  0.00  0.00    +0.000 NA
ATOM     22  N   UNL     1      -1.804  13.086  22.357  0.00  0.00    +0.000 N 
ATOM     23  C   UNL     1      -0.994  11.980  22.246  0.00  0.00    +0.000 A 
BRANCH  22  24
ATOM     24  C   UNL     1      -1.914  13.975  23.457  0.00  0.00    +0.000 A 
ATOM     25  C   UNL     1      -0.915  14.953  23.613  0.00  0.00    +0.000 A 
ATOM     26  C   UNL     1      -1.005  15.903  24.633  0.00  0.00    +0.000 A 
ATOM     27  C   UNL     1      -2.074  15.869  25.523  0.00  0.00    +0.000 A 
ATOM     28  C   UNL     1      -3.045  14.875  25.406  0.00  0.00    +0.000 A 
ATOM     29  C   UNL     1      -2.969  13.924  24.383  0.00  0.00    +0.000 A 
ATOM     30 CL   UNL     1      -4.148  12.654  24.470  0.00  0.00    +0.000 Cl
ENDBRANCH  22  24
ENDBRANCH   3  19
TORSDOF 4
ENDMDL
MODEL 5
REMARK VINA RESULT:      -7.9      2.910     10.916
REMARK  Name = 
REMARK  4 active torsions:
REMARK  status: ('A' for Active; 'I' for Inactive)
REMARK    1  A    between atoms: C_2  and  C_16
REMARK    2  A    between atoms: N_3  and  C_4
REMARK    3  A    between atoms: N_7  and  C_8
REMARK    4  A    between atoms: C_19  and  N_20
REMARK                            x       y       z     vdW  Elec       q    Type
REMARK                         _______ _______ _______ _____ _____    ______ ____
ROOT
ATOM      1  O   UNL     1       1.227   8.545  22.025  0.00  0.00    +0.000 OA
ATOM      2  C   UNL     1       1.249   8.693  20.809  0.00  0.00    +0.000 C 
ATOM      3  N   UNL     1       0.729   9.763  20.114  0.00  0.00    +0.000 N 
ATOM      4  H   UNL     1       0.712   9.737  19.104  0.00  0.00    +0.000 HD
ENDROOT
BRANCH   2   5
ATOM      5  C   UNL     1       1.832   7.627  19.951  0.00  0.00    +0.000 A 
ATOM      6  C   UNL     1       2.240   7.970  18.661  0.00  0.00    +0.000 A 
ATOM      7  C   UNL     1       2.842   7.011  17.845  0.00  0.00    +0.000 A 
ATOM      8  C   UNL     1       3.051   5.703  18.303  0.00  0.00    +0.000 A 
ATOM      9  C   UNL     1       2.576   5.353  19.573  0.00  0.00    +0.000 A 
ATOM     10  C   UNL     1       1.984   6.309  20.402  0.00  0.00    +0.000 A 
BRANCH   8  11
ATOM     11  N   UNL     1       3.643   4.713  17.502  0.00  0.00    +0.000 N 
ATOM     12  C   UNL     1       4.904   4.797  16.904  0.00  0.00    +0.000 A 
ATOM     13  N   UNL     1       5.876   5.512  17.495  0.00  0.00    +0.000 NA
ATOM     14  C   UNL     1       7.072   5.555  16.887  0.00  0.00    +0.000 A 
ATOM     15  C   UNL     1       7.338   4.903  15.710  0.00  0.00    +0.000 A 
ATOM     16  C   UNL     1       6.288   4.194  15.181  0.00  0.00    +0.000 A 
ATOM     17  N   UNL     1       5.070   4.125  15.753  0.00  0.00    +0.000 NA
ATOM     18  H   UNL     1       3.014   4.314  16.814  0.00  0.00    +0.000 HD
ENDBRANCH   8  11
ENDBRANCH   2   5
BRANCH   3  19
ATOM     19  C   UNL     1       0.095  10.834  20.706  0.00  0.00    +0.000 A 
ATOM     20  C   UNL     1       0.543  12.098  21.125  0.00  0.00    +0.000 A 
ATOM     21  N   UNL     1      -0.448  12.844  21.632  0.00  0.00    +0.000 NA
ATOM     22  N   UNL     1      -1.514  12.001  21.670  0.00  0.00    +0.000 N 
ATOM     23  C   UNL     1      -1.243  10.830  20.999  0.00  0.00    +0.000 A 
BRANCH  22  24
ATOM     24  C   UNL     1      -2.734  12.388  22.281  0.00  0.00    +0.000 A 
ATOM     25  C   UNL     1      -2.814  12.327  23.685  0.00  0.00    +0.000 A 
ATOM     26  C   UNL     1      -3.961  12.764  24.350  0.00  0.00    +0.000 A 
ATOM     27  C   UNL     1      -5.049  13.238  23.623  0.00  0.00    +0.000 A 
ATOM     28  C   UNL     1      -4.998  13.259  22.230  0.00  0.00    +0.000 A 
ATOM     29  C   UNL     1      -3.851  12.832  21.553  0.00  0.00    +0.000 A 
ATOM     30 CL   UNL     1      -4.000  12.754  19.827  0.00  0.00    +0.000 Cl
ENDBRANCH  22  24
ENDBRANCH   3  19
TORSDOF 4
ENDMDL
MODEL 6
REMARK VINA RESULT:      -7.8      1.311      1.782
REMARK  Name = 
REMARK  4 active torsions:
REMARK  status: ('A' for Active; 'I' for Inactive)
REMARK    1  A    between atoms: C_2  and  C_16
REMARK    2  A    between atoms: N_3  and  C_4
REMARK    3  A    between atoms: N_7  and  C_8
REMARK    4  A    between atoms: C_19  and  N_20
REMARK                            x       y       z     vdW  Elec       q    Type
REMARK                         _______ _______ _______ _____ _____    ______ ____
ROOT
ATOM      1  O   UNL     1       1.198   9.261  19.041  0.00  0.00    +0.000 OA
ATOM      2  C   UNL     1       1.000   9.008  20.224  0.00  0.00    +0.000 C 
ATOM      3  N   UNL     1       1.378   7.856  20.879  0.00  0.00    +0.000 N 
ATOM      4  H   UNL     1       1.076   7.707  21.832  0.00  0.00    +0.000 HD
ENDROOT
BRANCH   2   5
ATOM      5  C   UNL     1       0.241   9.973  21.062  0.00  0.00    +0.000 A 
ATOM      6  C   UNL     1      -0.244   9.534  22.296  0.00  0.00    +0.000 A 
ATOM      7  C   UNL     1      -0.915  10.425  23.135  0.00  0.00    +0.000 A 
ATOM      8  C   UNL     1      -1.103  11.763  22.763  0.00  0.00    +0.000 A 
ATOM      9  C   UNL     1      -0.673  12.174  21.497  0.00  0.00    +0.000 A 
ATOM     10  C   UNL     1       0.010  11.293  20.654  0.00  0.00    +0.000 A 
BRANCH   8  11
ATOM     11  N   UNL     1      -1.783  12.680  23.582  0.00  0.00    +0.000 N 
ATOM     12  C   UNL     1      -3.069  13.176  23.355  0.00  0.00    +0.000 A 
ATOM     13  N   UNL     1      -3.975  12.415  22.717  0.00  0.00    +0.000 NA
ATOM     14  C   UNL     1      -5.199  12.932  22.531  0.00  0.00    +0.000 A 
ATOM     15  C   UNL     1      -5.558  14.183  22.964  0.00  0.00    +0.000 A 
ATOM     16  C   UNL     1      -4.571  14.887  23.608  0.00  0.00    +0.000 A 
ATOM     17  N   UNL     1      -3.328  14.411  23.816  0.00  0.00    +0.000 NA
ATOM     18  H   UNL     1      -1.211  13.462  23.879  0.00  0.00    +0.000 HD
ENDBRANCH   8  11
ENDBRANCH   2   5
BRANCH   3  19
ATOM     19  C   UNL     1       2.042   6.808  20.280  0.00  0.00    +0.000 A 
ATOM     20  C   UNL     1       2.207   5.457  20.625  0.00  0.00    +0.000 A 
ATOM     21  N   UNL     1       2.922   4.784  19.714  0.00  0.00    +0.000 NA
ATOM     22  N   UNL     1       3.340   5.743  18.844  0.00  0.00    +0.000 N 
ATOM     23  C   UNL     1       2.715   6.943  19.094  0.00  0.00    +0.000 A 
BRANCH  22  24
ATOM     24  C   UNL     1       4.250   5.438  17.799  0.00  0.00    +0.000 A 
ATOM     25  C   UNL     1       5.314   6.331  17.575  0.00  0.00    +0.000 A 
ATOM     26  C   UNL     1       6.284   6.050  16.610  0.00  0.00    +0.000 A 
ATOM     27  C   UNL     1       6.187   4.894  15.842  0.00  0.00    +0.000 A 
ATOM     28  C   UNL     1       5.110   4.027  16.024  0.00  0.00    +0.000 A 
ATOM     29  C   UNL     1       4.137   4.294  16.993  0.00  0.00    +0.000 A 
ATOM     30 CL   UNL     1       2.775   3.220  16.983  0.00  0.00    +0.000 Cl
ENDBRANCH  22  24
ENDBRANCH   3  19
TORSDOF 4
ENDMDL
MODEL 7
REMARK VINA RESULT:      -7.8      1.313      1.447
REMARK  Name = 
REMARK  4 active torsions:
REMARK  status: ('A' for Active; 'I' for Inactive)
REMARK    1  A    between atoms: C_2  and  C_16
REMARK    2  A    between atoms: N_3  and  C_4
REMARK    3  A    between atoms: N_7  and  C_8
REMARK    4  A    between atoms: C_19  and  N_20
REMARK                            x       y       z     vdW  Elec       q    Type
REMARK                         _______ _______ _______ _____ _____    ______ ____
ROOT
ATOM      1  O   UNL     1       1.442   9.233  19.206  0.00  0.00    +0.000 OA
ATOM      2  C   UNL     1       1.150   8.901  20.349  0.00  0.00    +0.000 C 
ATOM      3  N   UNL     1       1.430   7.686  20.936  0.00  0.00    +0.000 N 
ATOM      4  H   UNL     1       1.056   7.480  21.852  0.00  0.00    +0.000 HD
ENDROOT
BRANCH   2   5
ATOM      5  C   UNL     1       0.379   9.837  21.210  0.00  0.00    +0.000 A 
ATOM      6  C   UNL     1       0.169  11.137  20.745  0.00  0.00    +0.000 A 
ATOM      7  C   UNL     1      -0.595  12.029  21.499  0.00  0.00    +0.000 A 
ATOM      8  C   UNL     1      -1.165  11.638  22.718  0.00  0.00    +0.000 A 
ATOM      9  C   UNL     1      -0.890  10.356  23.206  0.00  0.00    +0.000 A 
ATOM     10  C   UNL     1      -0.136   9.451  22.453  0.00  0.00    +0.000 A 
BRANCH   8  11
ATOM     11  N   UNL     1      -1.930  12.516  23.504  0.00  0.00    +0.000 N 
ATOM     12  C   UNL     1      -3.174  13.048  23.153  0.00  0.00    +0.000 A 
ATOM     13  N   UNL     1      -4.002  12.344  22.363  0.00  0.00    +0.000 NA
ATOM     14  C   UNL     1      -5.189  12.894  22.062  0.00  0.00    +0.000 A 
ATOM     15  C   UNL     1      -5.585  14.122  22.526  0.00  0.00    +0.000 A 
ATOM     16  C   UNL     1      -4.677  14.767  23.329  0.00  0.00    +0.000 A 
ATOM     17  N   UNL     1      -3.474  14.257  23.656  0.00  0.00    +0.000 NA
ATOM     18  H   UNL     1      -1.390  13.268  23.918  0.00  0.00    +0.000 HD
ENDBRANCH   8  11
ENDBRANCH   2   5
BRANCH   3  19
ATOM     19  C   UNL     1       2.086   6.654  20.300  0.00  0.00    +0.000 A 
ATOM     20  C   UNL     1       2.412   5.345  20.688  0.00  0.00    +0.000 A 
ATOM     21  N   UNL     1       3.043   4.670  19.718  0.00  0.00    +0.000 NA
ATOM     22  N   UNL     1       3.249   5.599  18.746  0.00  0.00    +0.000 N 
ATOM     23  C   UNL     1       2.568   6.763  19.022  0.00  0.00    +0.000 A 
BRANCH  22  24
ATOM     24  C   UNL     1       4.021   5.297  17.595  0.00  0.00    +0.000 A 
ATOM     25  C   UNL     1       4.666   6.362  16.939  0.00  0.00    +0.000 A 
ATOM     26  C   UNL     1       5.499   6.120  15.845  0.00  0.00    +0.000 A 
ATOM     27  C   UNL     1       5.675   4.822  15.377  0.00  0.00    +0.000 A 
ATOM     28  C   UNL     1       5.002   3.765  15.990  0.00  0.00    +0.000 A 
ATOM     29  C   UNL     1       4.172   3.994  17.092  0.00  0.00    +0.000 A 
ATOM     30 CL   UNL     1       3.275   2.613  17.637  0.00  0.00    +0.000 Cl
ENDBRANCH  22  24
ENDBRANCH   3  19
TORSDOF 4
ENDMDL
MODEL 8
REMARK VINA RESULT:      -7.8      1.836      2.501
REMARK  Name = 
REMARK  4 active torsions:
REMARK  status: ('A' for Active; 'I' for Inactive)
REMARK    1  A    between atoms: C_2  and  C_16
REMARK    2  A    between atoms: N_3  and  C_4
REMARK    3  A    between atoms: N_7  and  C_8
REMARK    4  A    between atoms: C_19  and  N_20
REMARK                            x       y       z     vdW  Elec       q    Type
REMARK                         _______ _______ _______ _____ _____    ______ ____
ROOT
ATOM      1  O   UNL     1       0.094  10.161  18.253  0.00  0.00    +0.000 OA
ATOM      2  C   UNL     1       0.332  10.005  19.445  0.00  0.00    +0.000 C 
ATOM      3  N   UNL     1       1.202   9.082  19.983  0.00  0.00    +0.000 N 
ATOM      4  H   UNL     1       1.249   8.971  20.986  0.00  0.00    +0.000 HD
ENDROOT
BRANCH   2   5
ATOM      5  C   UNL     1      -0.395  10.825  20.450  0.00  0.00    +0.000 A 
ATOM      6  C   UNL     1      -0.395  10.392  21.777  0.00  0.00    +0.000 A 
ATOM      7  C   UNL     1      -1.020  11.161  22.759  0.00  0.00    +0.000 A 
ATOM      8  C   UNL     1      -1.645  12.373  22.436  0.00  0.00    +0.000 A 
ATOM      9  C   UNL     1      -1.699  12.763  21.093  0.00  0.00    +0.000 A 
ATOM     10  C   UNL     1      -1.065  12.005  20.103  0.00  0.00    +0.000 A 
BRANCH   8  11
ATOM     11  N   UNL     1      -2.292  13.164  23.400  0.00  0.00    +0.000 N 
ATOM     12  C   UNL     1      -3.649  13.497  23.403  0.00  0.00    +0.000 A 
ATOM     13  N   UNL     1      -4.545  12.649  22.871  0.00  0.00    +0.000 NA
ATOM     14  C   UNL     1      -5.838  13.009  22.905  0.00  0.00    +0.000 A 
ATOM     15  C   UNL     1      -6.273  14.186  23.459  0.00  0.00    +0.000 A 
ATOM     16  C   UNL     1      -5.289  14.988  23.981  0.00  0.00    +0.000 A 
ATOM     17  N   UNL     1      -3.980  14.670  23.967  0.00  0.00    +0.000 NA
ATOM     18  H   UNL     1      -1.779  14.003  23.649  0.00  0.00    +0.000 HD
ENDBRANCH   8  11
ENDBRANCH   2   5
BRANCH   3  19
ATOM     19  C   UNL     1       1.937   8.186  19.236  0.00  0.00    +0.000 A 
ATOM     20  C   UNL     1       2.691   8.314  18.059  0.00  0.00    +0.000 A 
ATOM     21  N   UNL     1       3.270   7.161  17.700  0.00  0.00    +0.000 NA
ATOM     22  N   UNL     1       2.770   6.250  18.577  0.00  0.00    +0.000 N 
ATOM     23  C   UNL     1       2.069   6.869  19.586  0.00  0.00    +0.000 A 
BRANCH  22  24
ATOM     24  C   UNL     1       3.046   4.866  18.433  0.00  0.00    +0.000 A 
ATOM     25  C   UNL     1       1.987   4.021  18.050  0.00  0.00    +0.000 A 
ATOM     26  C   UNL     1       2.211   2.662  17.822  0.00  0.00    +0.000 A 
ATOM     27  C   UNL     1       3.483   2.126  17.999  0.00  0.00    +0.000 A 
ATOM     28  C   UNL     1       4.529   2.946  18.424  0.00  0.00    +0.000 A 
ATOM     29  C   UNL     1       4.318   4.310  18.648  0.00  0.00    +0.000 A 
ATOM     30 CL   UNL     1       5.665   5.159  19.336  0.00  0.00    +0.000 Cl
ENDBRANCH  22  24
ENDBRANCH   3  19
TORSDOF 4
ENDMDL
MODEL 9
REMARK VINA RESULT:      -7.8      7.228      9.029
REMARK  Name = 
REMARK  4 active torsions:
REMARK  status: ('A' for Active; 'I' for Inactive)
REMARK    1  A    between atoms: C_2  and  C_16
REMARK    2  A    between atoms: N_3  and  C_4
REMARK    3  A    between atoms: N_7  and  C_8
REMARK    4  A    between atoms: C_19  and  N_20
REMARK                            x       y       z     vdW  Elec       q    Type
REMARK                         _______ _______ _______ _____ _____    ______ ____
ROOT
ATOM      1  O   UNL     1       8.582   7.457  18.961  0.00  0.00    +0.000 OA
ATOM      2  C   UNL     1       8.080   8.317  18.247  0.00  0.00    +0.000 C 
ATOM      3  N   UNL     1       7.073   8.119  17.327  0.00  0.00    +0.000 N 
ATOM      4  H   UNL     1       6.801   8.879  16.719  0.00  0.00    +0.000 HD
ENDROOT
BRANCH   2   5
ATOM      5  C   UNL     1       8.601   9.709  18.299  0.00  0.00    +0.000 A 
ATOM      6  C   UNL     1       9.714   9.965  19.101  0.00  0.00    +0.000 A 
ATOM      7  C   UNL     1      10.266  11.247  19.134  0.00  0.00    +0.000 A 
ATOM      8  C   UNL     1       9.723  12.285  18.366  0.00  0.00    +0.000 A 
ATOM      9  C   UNL     1       8.567  12.034  17.619  0.00  0.00    +0.000 A 
ATOM     10  C   UNL     1       8.014  10.751  17.569  0.00  0.00    +0.000 A 
BRANCH   8  11
ATOM     11  N   UNL     1      10.250  13.587  18.387  0.00  0.00    +0.000 N 
ATOM     12  C   UNL     1      10.022  14.542  19.382  0.00  0.00    +0.000 A 
ATOM     13  N   UNL     1       9.801  14.147  20.647  0.00  0.00    +0.000 NA
ATOM     14  C   UNL     1       9.597  15.101  21.569  0.00  0.00    +0.000 A 
ATOM     15  C   UNL     1       9.611  16.441  21.276  0.00  0.00    +0.000 A 
ATOM     16  C   UNL     1       9.848  16.751  19.960  0.00  0.00    +0.000 A 
ATOM     17  N   UNL     1      10.055  15.829  19.000  0.00  0.00    +0.000 NA
ATOM     18  H   UNL     1      10.187  14.066  17.495  0.00  0.00    +0.000 HD
ENDBRANCH   8  11
ENDBRANCH   2   5
BRANCH   3  19
ATOM     19  C   UNL     1       6.483   6.899  17.078  0.00  0.00    +0.000 A 
ATOM     20  C   UNL     1       6.765   5.869  16.165  0.00  0.00    +0.000 A 
ATOM     21  N   UNL     1       5.929   4.831  16.299  0.00  0.00    +0.000 NA
ATOM     22  N   UNL     1       5.014   5.254  17.211  0.00  0.00    +0.000 N 
ATOM     23  C   UNL     1       5.403   6.443  17.786  0.00  0.00    +0.000 A 
BRANCH  22  24
ATOM     24  C   UNL     1       3.872   4.473  17.521  0.00  0.00    +0.000 A 
ATOM     25  C   UNL     1       3.978   3.075  17.393  0.00  0.00    +0.000 A 
ATOM     26  C   UNL     1       2.912   2.248  17.753  0.00  0.00    +0.000 A 
ATOM     27  C   UNL     1       1.723   2.804  18.214  0.00  0.00    +0.000 A 
ATOM     28  C   UNL     1       1.591   4.190  18.298  0.00  0.00    +0.000 A 
ATOM     29  C   UNL     1       2.655   5.029  17.950  0.00  0.00    +0.000 A 
ATOM     30 CL   UNL     1       2.285   6.723  17.944  0.00  0.00    +0.000 Cl
ENDBRANCH  22  24
ENDBRANCH   3  19
TORSDOF 4
ENDMDL
