MODEL 1
REMARK VINA RESULT:      -9.0      0.000      0.000
REMARK  Name = 
REMARK  3 active torsions:
REMARK  status: ('A' for Active; 'I' for Inactive)
REMARK    1  A    between atoms: C_6  and  S_7
REMARK    2  A    between atoms: S_7  and  N_10
REMARK    3  A    between atoms: N_16  and  C_17
REMARK                            x       y       z     vdW  Elec       q    Type
REMARK                         _______ _______ _______ _____ _____    ______ ____
ROOT
ATOM      1  N   UNL     1       2.354   3.891  19.080  0.00  0.00    +0.000 NA
ATOM      2  C   UNL     1       1.868   4.601  17.883  0.00  0.00    +0.000 C 
ATOM      3  C   UNL     1       2.233   6.109  17.930  0.00  0.00    +0.000 C 
ATOM      4  N   UNL     1       2.006   6.734  19.249  0.00  0.00    +0.000 N 
ATOM      5  C   UNL     1       1.776   8.083  19.518  0.00  0.00    +0.000 C 
ATOM      6  O   UNL     1       1.770   8.480  20.682  0.00  0.00    +0.000 OA
ATOM      7  N   UNL     1       1.537   8.900  18.436  0.00  0.00    +0.000 N 
ATOM      8  C   UNL     1       2.477   5.935  20.397  0.00  0.00    +0.000 C 
ATOM      9  C   UNL     1       1.947   4.503  20.353  0.00  0.00    +0.000 C 
ATOM     10  H   UNL     1       1.349   8.464  17.551  0.00  0.00    +0.000 HD
ENDROOT
BRANCH   7  11
ATOM     11  C   UNL     1       1.277  10.295  18.496  0.00  0.00    +0.000 A 
ATOM     12  C   UNL     1       2.250  11.276  18.272  0.00  0.00    +0.000 A 
ATOM     13  C   UNL     1       1.951  12.635  18.411  0.00  0.00    +0.000 A 
ATOM     14  C   UNL     1       0.666  13.033  18.760  0.00  0.00    +0.000 A 
ATOM     15  C   UNL     1      -0.324  12.071  18.948  0.00  0.00    +0.000 A 
ATOM     16  C   UNL     1      -0.024  10.710  18.808  0.00  0.00    +0.000 A 
ENDBRANCH   7  11
BRANCH   1  17
ATOM     17  S   UNL     1       3.583   2.762  19.021  0.00  0.00    +0.000 S 
ATOM     18  O   UNL     1       3.136   1.618  18.259  0.00  0.00    +0.000 OA
ATOM     19  O   UNL     1       4.123   2.612  20.355  0.00  0.00    +0.000 OA
BRANCH  17  25
ATOM     20  O   UNL     1       7.774   5.428  13.290  0.00  0.00    +0.000 OA
ATOM     21  C   UNL     1       7.198   5.105  14.316  0.00  0.00    +0.000 C 
ATOM     22  C   UNL     1       6.017   4.134  14.432  0.00  0.00    +0.000 C 
ATOM     23  C   UNL     1       5.770   4.113  15.911  0.00  0.00    +0.000 A 
ATOM     24  C   UNL     1       4.836   3.403  16.645  0.00  0.00    +0.000 A 
ATOM     25  C   UNL     1       4.816   3.601  18.033  0.00  0.00    +0.000 A 
ATOM     26  C   UNL     1       5.693   4.517  18.656  0.00  0.00    +0.000 A 
ATOM     27  C   UNL     1       6.639   5.218  17.899  0.00  0.00    +0.000 A 
ATOM     28  C   UNL     1       6.655   4.990  16.538  0.00  0.00    +0.000 A 
ATOM     29  N   UNL     1       7.493   5.561  15.595  0.00  0.00    +0.000 N 
ATOM     30  H   UNL     1       8.234   6.221  15.779  0.00  0.00    +0.000 HD
ENDBRANCH  17  25
ENDBRANCH   1  17
TORSDOF 3
ENDMDL
MODEL 2
REMARK VINA RESULT:      -8.2      5.051     11.082
REMARK  Name = 
REMARK  3 active torsions:
REMARK  status: ('A' for Active; 'I' for Inactive)
REMARK    1  A    between atoms: C_6  and  S_7
REMARK    2  A    between atoms: S_7  and  N_10
REMARK    3  A    between atoms: N_16  and  C_17
REMARK                            x       y       z     vdW  Elec       q    Type
REMARK                         _______ _______ _______ _____ _____    ______ ____
ROOT
ATOM      1  N   UNL     1      -0.735  10.789  20.749  0.00  0.00    +0.000 NA
ATOM      2  C   UNL     1      -0.452   9.416  21.207  0.00  0.00    +0.000 C 
ATOM      3  C   UNL     1       0.913   8.909  20.670  0.00  0.00    +0.000 C 
ATOM      4  N   UNL     1       1.147   9.228  19.247  0.00  0.00    +0.000 N 
ATOM      5  C   UNL     1       1.984   8.557  18.356  0.00  0.00    +0.000 C 
ATOM      6  O   UNL     1       2.204   9.039  17.246  0.00  0.00    +0.000 OA
ATOM      7  N   UNL     1       2.504   7.354  18.778  0.00  0.00    +0.000 N 
ATOM      8  C   UNL     1       0.791  10.606  18.860  0.00  0.00    +0.000 C 
ATOM      9  C   UNL     1      -0.627  10.974  19.294  0.00  0.00    +0.000 C 
ATOM     10  H   UNL     1       2.109   6.935  19.600  0.00  0.00    +0.000 HD
ENDROOT
BRANCH   7  11
ATOM     11  C   UNL     1       3.369   6.518  18.023  0.00  0.00    +0.000 A 
ATOM     12  C   UNL     1       4.522   6.978  17.376  0.00  0.00    +0.000 A 
ATOM     13  C   UNL     1       5.300   6.121  16.590  0.00  0.00    +0.000 A 
ATOM     14  C   UNL     1       4.943   4.785  16.455  0.00  0.00    +0.000 A 
ATOM     15  C   UNL     1       3.820   4.302  17.123  0.00  0.00    +0.000 A 
ATOM     16  C   UNL     1       3.042   5.161  17.910  0.00  0.00    +0.000 A 
ENDBRANCH   7  11
BRANCH   1  17
ATOM     17  S   UNL     1      -0.760  12.098  21.785  0.00  0.00    +0.000 S 
ATOM     18  O   UNL     1      -0.181  13.240  21.116  0.00  0.00    +0.000 OA
ATOM     19  O   UNL     1      -0.281  11.660  23.078  0.00  0.00    +0.000 OA
BRANCH  17  25
ATOM     20  O   UNL     1      -7.787  13.121  24.449  0.00  0.00    +0.000 OA
ATOM     21  C   UNL     1      -6.722  13.009  23.863  0.00  0.00    +0.000 C 
ATOM     22  C   UNL     1      -5.382  12.590  24.480  0.00  0.00    +0.000 C 
ATOM     23  C   UNL     1      -4.470  12.601  23.289  0.00  0.00    +0.000 A 
ATOM     24  C   UNL     1      -3.124  12.292  23.199  0.00  0.00    +0.000 A 
ATOM     25  C   UNL     1      -2.513  12.416  21.942  0.00  0.00    +0.000 A 
ATOM     26  C   UNL     1      -3.237  12.873  20.818  0.00  0.00    +0.000 A 
ATOM     27  C   UNL     1      -4.600  13.169  20.925  0.00  0.00    +0.000 A 
ATOM     28  C   UNL     1      -5.185  13.019  22.166  0.00  0.00    +0.000 A 
ATOM     29  N   UNL     1      -6.506  13.248  22.512  0.00  0.00    +0.000 N 
ATOM     30  H   UNL     1      -7.241  13.546  21.889  0.00  0.00    +0.000 HD
ENDBRANCH  17  25
ENDBRANCH   1  17
TORSDOF 3
ENDMDL
MODEL 3
REMARK VINA RESULT:      -8.1      1.357      1.518
REMARK  Name = 
REMARK  3 active torsions:
REMARK  status: ('A' for Active; 'I' for Inactive)
REMARK    1  A    between atoms: C_6  and  S_7
REMARK    2  A    between atoms: S_7  and  N_10
REMARK    3  A    between atoms: N_16  and  C_17
REMARK                            x       y       z     vdW  Elec       q    Type
REMARK                         _______ _______ _______ _____ _____    ______ ____
ROOT
ATOM      1  N   UNL     1       3.124   4.804  18.793  0.00  0.00    +0.000 NA
ATOM      2  C   UNL     1       3.045   5.923  17.836  0.00  0.00    +0.000 C 
ATOM      3  C   UNL     1       2.888   7.284  18.565  0.00  0.00    +0.000 C 
ATOM      4  N   UNL     1       1.916   7.253  19.678  0.00  0.00    +0.000 N 
ATOM      5  C   UNL     1       1.203   8.326  20.209  0.00  0.00    +0.000 C 
ATOM      6  O   UNL     1       0.555   8.176  21.243  0.00  0.00    +0.000 OA
ATOM      7  N   UNL     1       1.251   9.510  19.509  0.00  0.00    +0.000 N 
ATOM      8  C   UNL     1       2.029   6.074  20.559  0.00  0.00    +0.000 C 
ATOM      9  C   UNL     1       2.025   4.766  19.769  0.00  0.00    +0.000 C 
ATOM     10  H   UNL     1       1.621   9.490  18.575  0.00  0.00    +0.000 HD
ENDROOT
BRANCH   7  11
ATOM     11  C   UNL     1       0.593  10.715  19.877  0.00  0.00    +0.000 A 
ATOM     12  C   UNL     1       1.111  11.630  20.801  0.00  0.00    +0.000 A 
ATOM     13  C   UNL     1       0.387  12.766  21.175  0.00  0.00    +0.000 A 
ATOM     14  C   UNL     1      -0.861  13.012  20.615  0.00  0.00    +0.000 A 
ATOM     15  C   UNL     1      -1.374  12.132  19.665  0.00  0.00    +0.000 A 
ATOM     16  C   UNL     1      -0.648  10.994  19.290  0.00  0.00    +0.000 A 
ENDBRANCH   7  11
BRANCH   1  17
ATOM     17  S   UNL     1       4.517   3.916  19.030  0.00  0.00    +0.000 S 
ATOM     18  O   UNL     1       4.208   2.510  18.903  0.00  0.00    +0.000 OA
ATOM     19  O   UNL     1       5.191   4.436  20.201  0.00  0.00    +0.000 OA
BRANCH  17  25
ATOM     20  O   UNL     1       7.357   4.559  12.027  0.00  0.00    +0.000 OA
ATOM     21  C   UNL     1       7.015   4.584  13.199  0.00  0.00    +0.000 C 
ATOM     22  C   UNL     1       5.909   3.740  13.843  0.00  0.00    +0.000 C 
ATOM     23  C   UNL     1       5.975   4.178  15.277  0.00  0.00    +0.000 A 
ATOM     24  C   UNL     1       5.232   3.760  16.368  0.00  0.00    +0.000 A 
ATOM     25  C   UNL     1       5.497   4.368  17.603  0.00  0.00    +0.000 A 
ATOM     26  C   UNL     1       6.461   5.394  17.723  0.00  0.00    +0.000 A 
ATOM     27  C   UNL     1       7.210   5.795  16.612  0.00  0.00    +0.000 A 
ATOM     28  C   UNL     1       6.949   5.167  15.412  0.00  0.00    +0.000 A 
ATOM     29  N   UNL     1       7.558   5.393  14.189  0.00  0.00    +0.000 N 
ATOM     30  H   UNL     1       8.304   6.047  14.007  0.00  0.00    +0.000 HD
ENDBRANCH  17  25
ENDBRANCH   1  17
TORSDOF 3
ENDMDL
MODEL 4
REMARK VINA RESULT:      -8.1      1.902      2.363
REMARK  Name = 
REMARK  3 active torsions:
REMARK  status: ('A' for Active; 'I' for Inactive)
REMARK    1  A    between atoms: C_6  and  S_7
REMARK    2  A    between atoms: S_7  and  N_10
REMARK    3  A    between atoms: N_16  and  C_17
REMARK                            x       y       z     vdW  Elec       q    Type
REMARK                         _______ _______ _______ _____ _____    ______ ____
ROOT
ATOM      1  N   UNL     1       3.507   4.577  19.667  0.00  0.00    +0.000 NA
ATOM      2  C   UNL     1       2.586   4.601  20.818  0.00  0.00    +0.000 C 
ATOM      3  C   UNL     1       1.483   5.678  20.640  0.00  0.00    +0.000 C 
ATOM      4  N   UNL     1       1.990   6.968  20.128  0.00  0.00    +0.000 N 
ATOM      5  C   UNL     1       1.416   8.228  20.293  0.00  0.00    +0.000 C 
ATOM      6  O   UNL     1       1.864   9.188  19.668  0.00  0.00    +0.000 OA
ATOM      7  N   UNL     1       0.374   8.324  21.187  0.00  0.00    +0.000 N 
ATOM      8  C   UNL     1       2.945   6.852  19.009  0.00  0.00    +0.000 C 
ATOM      9  C   UNL     1       4.084   5.885  19.327  0.00  0.00    +0.000 C 
ATOM     10  H   UNL     1       0.213   7.549  21.805  0.00  0.00    +0.000 HD
ENDROOT
BRANCH   7  11
ATOM     11  C   UNL     1      -0.340   9.511  21.500  0.00  0.00    +0.000 A 
ATOM     12  C   UNL     1      -0.787  10.424  20.537  0.00  0.00    +0.000 A 
ATOM     13  C   UNL     1      -1.426  11.611  20.909  0.00  0.00    +0.000 A 
ATOM     14  C   UNL     1      -1.643  11.894  22.252  0.00  0.00    +0.000 A 
ATOM     15  C   UNL     1      -1.239  10.978  23.222  0.00  0.00    +0.000 A 
ATOM     16  C   UNL     1      -0.600   9.789  22.848  0.00  0.00    +0.000 A 
ENDBRANCH   7  11
BRANCH   1  17
ATOM     17  S   UNL     1       3.572   3.301  18.592  0.00  0.00    +0.000 S 
ATOM     18  O   UNL     1       2.356   3.276  17.813  0.00  0.00    +0.000 OA
ATOM     19  O   UNL     1       4.030   2.129  19.309  0.00  0.00    +0.000 OA
BRANCH  17  25
ATOM     20  O   UNL     1       7.714   5.088  12.496  0.00  0.00    +0.000 OA
ATOM     21  C   UNL     1       7.186   4.858  13.572  0.00  0.00    +0.000 C 
ATOM     22  C   UNL     1       5.774   4.305  13.795  0.00  0.00    +0.000 C 
ATOM     23  C   UNL     1       5.707   4.209  15.291  0.00  0.00    +0.000 A 
ATOM     24  C   UNL     1       4.683   3.757  16.106  0.00  0.00    +0.000 A 
ATOM     25  C   UNL     1       4.890   3.805  17.492  0.00  0.00    +0.000 A 
ATOM     26  C   UNL     1       6.084   4.326  18.037  0.00  0.00    +0.000 A 
ATOM     27  C   UNL     1       7.113   4.766  17.198  0.00  0.00    +0.000 A 
ATOM     28  C   UNL     1       6.896   4.690  15.837  0.00  0.00    +0.000 A 
ATOM     29  N   UNL     1       7.761   5.062  14.821  0.00  0.00    +0.000 N 
ATOM     30  H   UNL     1       8.692   5.430  14.937  0.00  0.00    +0.000 HD
ENDBRANCH  17  25
ENDBRANCH   1  17
TORSDOF 3
ENDMDL
MODEL 5
REMARK VINA RESULT:      -7.9      4.183      6.802
REMARK  Name = 
REMARK  3 active torsions:
REMARK  status: ('A' for Active; 'I' for Inactive)
REMARK    1  A    between atoms: C_6  and  S_7
REMARK    2  A    between atoms: S_7  and  N_10
REMARK    3  A    between atoms: N_16  and  C_17
REMARK                            x       y       z     vdW  Elec       q    Type
REMARK                         _______ _______ _______ _____ _____    ______ ____
ROOT
ATOM      1  N   UNL     1       6.348   4.949  17.528  0.00  0.00    +0.000 NA
ATOM      2  C   UNL     1       7.463   5.025  18.489  0.00  0.00    +0.000 C 
ATOM      3  C   UNL     1       7.639   6.465  19.040  0.00  0.00    +0.000 C 
ATOM      4  N   UNL     1       7.542   7.514  18.003  0.00  0.00    +0.000 N 
ATOM      5  C   UNL     1       8.093   8.794  18.041  0.00  0.00    +0.000 C 
ATOM      6  O   UNL     1       7.788   9.615  17.176  0.00  0.00    +0.000 OA
ATOM      7  N   UNL     1       8.987   9.056  19.054  0.00  0.00    +0.000 N 
ATOM      8  C   UNL     1       6.429   7.335  17.051  0.00  0.00    +0.000 C 
ATOM      9  C   UNL     1       6.419   5.935  16.440  0.00  0.00    +0.000 C 
ATOM     10  H   UNL     1       9.340   8.278  19.582  0.00  0.00    +0.000 HD
ENDROOT
BRANCH   7  11
ATOM     11  C   UNL     1       9.660  10.290  19.264  0.00  0.00    +0.000 A 
ATOM     12  C   UNL     1      10.443  10.922  18.291  0.00  0.00    +0.000 A 
ATOM     13  C   UNL     1      11.136  12.102  18.577  0.00  0.00    +0.000 A 
ATOM     14  C   UNL     1      11.042  12.677  19.840  0.00  0.00    +0.000 A 
ATOM     15  C   UNL     1      10.236  12.081  20.808  0.00  0.00    +0.000 A 
ATOM     16  C   UNL     1       9.541  10.900  20.520  0.00  0.00    +0.000 A 
ENDBRANCH   7  11
BRANCH   1  17
ATOM     17  S   UNL     1       4.932   4.126  17.853  0.00  0.00    +0.000 S 
ATOM     18  O   UNL     1       5.176   3.166  18.906  0.00  0.00    +0.000 OA
ATOM     19  O   UNL     1       4.342   3.727  16.593  0.00  0.00    +0.000 OA
BRANCH  17  25
ATOM     20  O   UNL     1       0.700  10.335  18.873  0.00  0.00    +0.000 OA
ATOM     21  C   UNL     1       1.332   9.291  18.874  0.00  0.00    +0.000 C 
ATOM     22  C   UNL     1       2.160   8.726  17.714  0.00  0.00    +0.000 C 
ATOM     23  C   UNL     1       2.715   7.466  18.309  0.00  0.00    +0.000 A 
ATOM     24  C   UNL     1       3.560   6.520  17.755  0.00  0.00    +0.000 A 
ATOM     25  C   UNL     1       3.901   5.413  18.545  0.00  0.00    +0.000 A 
ATOM     26  C   UNL     1       3.374   5.251  19.846  0.00  0.00    +0.000 A 
ATOM     27  C   UNL     1       2.531   6.224  20.395  0.00  0.00    +0.000 A 
ATOM     28  C   UNL     1       2.227   7.315  19.607  0.00  0.00    +0.000 A 
ATOM     29  N   UNL     1       1.422   8.395  19.931  0.00  0.00    +0.000 N 
ATOM     30  H   UNL     1       0.953   8.544  20.812  0.00  0.00    +0.000 HD
ENDBRANCH  17  25
ENDBRANCH   1  17
TORSDOF 3
ENDMDL
MODEL 6
REMARK VINA RESULT:      -7.9      4.683     10.773
REMARK  Name = 
REMARK  3 active torsions:
REMARK  status: ('A' for Active; 'I' for Inactive)
REMARK    1  A    between atoms: C_6  and  S_7
REMARK    2  A    between atoms: S_7  and  N_10
REMARK    3  A    between atoms: N_16  and  C_17
REMARK                            x       y       z     vdW  Elec       q    Type
REMARK                         _______ _______ _______ _____ _____    ______ ____
ROOT
ATOM      1  N   UNL     1      -0.347  11.184  19.967  0.00  0.00    +0.000 NA
ATOM      2  C   UNL     1      -0.408   9.893  20.677  0.00  0.00    +0.000 C 
ATOM      3  C   UNL     1       0.895   9.074  20.479  0.00  0.00    +0.000 C 
ATOM      4  N   UNL     1       1.395   9.079  19.088  0.00  0.00    +0.000 N 
ATOM      5  C   UNL     1       2.207   8.125  18.478  0.00  0.00    +0.000 C 
ATOM      6  O   UNL     1       2.678   8.348  17.363  0.00  0.00    +0.000 OA
ATOM      7  N   UNL     1       2.414   6.952  19.168  0.00  0.00    +0.000 N 
ATOM      8  C   UNL     1       1.375  10.402  18.434  0.00  0.00    +0.000 C 
ATOM      9  C   UNL     1       0.008  11.075  18.544  0.00  0.00    +0.000 C 
ATOM     10  H   UNL     1       1.828   6.765  19.962  0.00  0.00    +0.000 HD
ENDROOT
BRANCH   7  11
ATOM     11  C   UNL     1       3.201   5.858  18.720  0.00  0.00    +0.000 A 
ATOM     12  C   UNL     1       4.541   5.669  19.078  0.00  0.00    +0.000 A 
ATOM     13  C   UNL     1       5.287   4.609  18.552  0.00  0.00    +0.000 A 
ATOM     14  C   UNL     1       4.695   3.711  17.671  0.00  0.00    +0.000 A 
ATOM     15  C   UNL     1       3.352   3.862  17.334  0.00  0.00    +0.000 A 
ATOM     16  C   UNL     1       2.606   4.924  17.862  0.00  0.00    +0.000 A 
ENDBRANCH   7  11
BRANCH   1  17
ATOM     17  S   UNL     1      -0.269  12.648  20.765  0.00  0.00    +0.000 S 
ATOM     18  O   UNL     1      -0.263  13.716  19.791  0.00  0.00    +0.000 OA
ATOM     19  O   UNL     1       0.754  12.554  21.784  0.00  0.00    +0.000 OA
BRANCH  17  25
ATOM     20  O   UNL     1      -7.682  12.819  22.355  0.00  0.00    +0.000 OA
ATOM     21  C   UNL     1      -6.465  12.779  22.275  0.00  0.00    +0.000 C 
ATOM     22  C   UNL     1      -5.635  12.793  20.986  0.00  0.00    +0.000 C 
ATOM     23  C   UNL     1      -4.232  12.759  21.514  0.00  0.00    +0.000 A 
ATOM     24  C   UNL     1      -3.026  12.772  20.834  0.00  0.00    +0.000 A 
ATOM     25  C   UNL     1      -1.851  12.706  21.596  0.00  0.00    +0.000 A 
ATOM     26  C   UNL     1      -1.896  12.596  23.004  0.00  0.00    +0.000 A 
ATOM     27  C   UNL     1      -3.124  12.596  23.676  0.00  0.00    +0.000 A 
ATOM     28  C   UNL     1      -4.266  12.684  22.907  0.00  0.00    +0.000 A 
ATOM     29  N   UNL     1      -5.580  12.704  23.343  0.00  0.00    +0.000 N 
ATOM     30  H   UNL     1      -5.889  12.674  24.303  0.00  0.00    +0.000 HD
ENDBRANCH  17  25
ENDBRANCH   1  17
TORSDOF 3
ENDMDL
MODEL 7
REMARK VINA RESULT:      -7.6      1.705      2.085
REMARK  Name = 
REMARK  3 active torsions:
REMARK  status: ('A' for Active; 'I' for Inactive)
REMARK    1  A    between atoms: C_6  and  S_7
REMARK    2  A    between atoms: S_7  and  N_10
REMARK    3  A    between atoms: N_16  and  C_17
REMARK                            x       y       z     vdW  Elec       q    Type
REMARK                         _______ _______ _______ _____ _____    ______ ____
ROOT
ATOM      1  N   UNL     1       3.968   5.385  19.237  0.00  0.00    +0.000 NA
ATOM      2  C   UNL     1       3.063   5.676  20.364  0.00  0.00    +0.000 C 
ATOM      3  C   UNL     1       1.866   6.557  19.916  0.00  0.00    +0.000 C 
ATOM      4  N   UNL     1       2.249   7.673  19.027  0.00  0.00    +0.000 N 
ATOM      5  C   UNL     1       1.566   8.872  18.833  0.00  0.00    +0.000 C 
ATOM      6  O   UNL     1       1.919   9.637  17.935  0.00  0.00    +0.000 OA
ATOM      7  N   UNL     1       0.530   9.144  19.697  0.00  0.00    +0.000 N 
ATOM      8  C   UNL     1       3.198   7.308  17.957  0.00  0.00    +0.000 C 
ATOM      9  C   UNL     1       4.423   6.576  18.504  0.00  0.00    +0.000 C 
ATOM     10  H   UNL     1       0.446   8.579  20.522  0.00  0.00    +0.000 HD
ENDROOT
BRANCH   7  11
ATOM     11  C   UNL     1      -0.284  10.308  19.671  0.00  0.00    +0.000 A 
ATOM     12  C   UNL     1      -0.151  11.368  20.575  0.00  0.00    +0.000 A 
ATOM     13  C   UNL     1      -1.025  12.459  20.544  0.00  0.00    +0.000 A 
ATOM     14  C   UNL     1      -2.038  12.512  19.593  0.00  0.00    +0.000 A 
ATOM     15  C   UNL     1      -2.160  11.485  18.661  0.00  0.00    +0.000 A 
ATOM     16  C   UNL     1      -1.283  10.393  18.693  0.00  0.00    +0.000 A 
ENDBRANCH   7  11
BRANCH   1  17
ATOM     17  S   UNL     1       4.136   3.857  18.587  0.00  0.00    +0.000 S 
ATOM     18  O   UNL     1       2.882   3.457  17.991  0.00  0.00    +0.000 OA
ATOM     19  O   UNL     1       4.805   3.022  19.562  0.00  0.00    +0.000 OA
BRANCH  17  25
ATOM     20  O   UNL     1       7.383   4.530  11.766  0.00  0.00    +0.000 OA
ATOM     21  C   UNL     1       7.011   4.491  12.928  0.00  0.00    +0.000 C 
ATOM     22  C   UNL     1       5.644   4.015  13.432  0.00  0.00    +0.000 C 
ATOM     23  C   UNL     1       5.787   4.165  14.918  0.00  0.00    +0.000 A 
ATOM     24  C   UNL     1       4.887   3.877  15.930  0.00  0.00    +0.000 A 
ATOM     25  C   UNL     1       5.286   4.144  17.247  0.00  0.00    +0.000 A 
ATOM     26  C   UNL     1       6.546   4.718  17.529  0.00  0.00    +0.000 A 
ATOM     27  C   UNL     1       7.447   4.992  16.494  0.00  0.00    +0.000 A 
ATOM     28  C   UNL     1       7.041   4.700  15.208  0.00  0.00    +0.000 A 
ATOM     29  N   UNL     1       7.755   4.881  14.035  0.00  0.00    +0.000 N 
ATOM     30  H   UNL     1       8.694   5.241  13.959  0.00  0.00    +0.000 HD
ENDBRANCH  17  25
ENDBRANCH   1  17
TORSDOF 3
ENDMDL
MODEL 8
REMARK VINA RESULT:      -7.5      4.700     10.954
REMARK  Name = 
REMARK  3 active torsions:
REMARK  status: ('A' for Active; 'I' for Inactive)
REMARK    1  A    between atoms: C_6  and  S_7
REMARK    2  A    between atoms: S_7  and  N_10
REMARK    3  A    between atoms: N_16  and  C_17
REMARK                            x       y       z     vdW  Elec       q    Type
REMARK                         _______ _______ _______ _____ _____    ______ ____
ROOT
ATOM      1  N   UNL     1      -0.480  10.615  20.204  0.00  0.00    +0.000 NA
ATOM      2  C   UNL     1      -0.471   9.459  21.118  0.00  0.00    +0.000 C 
ATOM      3  C   UNL     1       0.870   8.681  21.035  0.00  0.00    +0.000 C 
ATOM      4  N   UNL     1       1.356   8.480  19.653  0.00  0.00    +0.000 N 
ATOM      5  C   UNL     1       2.208   7.477  19.194  0.00  0.00    +0.000 C 
ATOM      6  O   UNL     1       2.657   7.536  18.050  0.00  0.00    +0.000 OA
ATOM      7  N   UNL     1       2.480   6.446  20.064  0.00  0.00    +0.000 N 
ATOM      8  C   UNL     1       1.264   9.673  18.790  0.00  0.00    +0.000 C 
ATOM      9  C   UNL     1      -0.134  10.290  18.813  0.00  0.00    +0.000 C 
ATOM     10  H   UNL     1       1.912   6.365  20.888  0.00  0.00    +0.000 HD
ENDROOT
BRANCH   7  11
ATOM     11  C   UNL     1       3.316   5.331  19.789  0.00  0.00    +0.000 A 
ATOM     12  C   UNL     1       4.623   5.444  19.299  0.00  0.00    +0.000 A 
ATOM     13  C   UNL     1       5.376   4.309  18.982  0.00  0.00    +0.000 A 
ATOM     14  C   UNL     1       4.837   3.042  19.168  0.00  0.00    +0.000 A 
ATOM     15  C   UNL     1       3.552   2.911  19.690  0.00  0.00    +0.000 A 
ATOM     16  C   UNL     1       2.799   4.048  20.008  0.00  0.00    +0.000 A 
ENDBRANCH   7  11
BRANCH   1  17
ATOM     17  S   UNL     1      -0.468  12.194  20.748  0.00  0.00    +0.000 S 
ATOM     18  O   UNL     1      -0.189  13.074  19.637  0.00  0.00    +0.000 OA
ATOM     19  O   UNL     1       0.316  12.247  21.964  0.00  0.00    +0.000 OA
BRANCH  17  25
ATOM     20  O   UNL     1      -6.953  13.095  24.575  0.00  0.00    +0.000 OA
ATOM     21  C   UNL     1      -6.005  12.989  23.814  0.00  0.00    +0.000 C 
ATOM     22  C   UNL     1      -4.556  12.670  24.202  0.00  0.00    +0.000 C 
ATOM     23  C   UNL     1      -3.873  12.639  22.867  0.00  0.00    +0.000 A 
ATOM     24  C   UNL     1      -2.549  12.383  22.553  0.00  0.00    +0.000 A 
ATOM     25  C   UNL     1      -2.179  12.447  21.202  0.00  0.00    +0.000 A 
ATOM     26  C   UNL     1      -3.115  12.796  20.202  0.00  0.00    +0.000 A 
ATOM     27  C   UNL     1      -4.451  13.040  20.537  0.00  0.00    +0.000 A 
ATOM     28  C   UNL     1      -4.797  12.949  21.869  0.00  0.00    +0.000 A 
ATOM     29  N   UNL     1      -6.046  13.145  22.434  0.00  0.00    +0.000 N 
ATOM     30  H   UNL     1      -6.895  13.368  21.938  0.00  0.00    +0.000 HD
ENDBRANCH  17  25
ENDBRANCH   1  17
TORSDOF 3
ENDMDL
MODEL 9
REMARK VINA RESULT:      -7.5      3.869      9.171
REMARK  Name = 
REMARK  3 active torsions:
REMARK  status: ('A' for Active; 'I' for Inactive)
REMARK    1  A    between atoms: C_6  and  S_7
REMARK    2  A    between atoms: S_7  and  N_10
REMARK    3  A    between atoms: N_16  and  C_17
REMARK                            x       y       z     vdW  Elec       q    Type
REMARK                         _______ _______ _______ _____ _____    ______ ____
ROOT
ATOM      1  N   UNL     1      -0.707  10.685  20.621  0.00  0.00    +0.000 NA
ATOM      2  C   UNL     1      -0.282   9.389  21.180  0.00  0.00    +0.000 C 
ATOM      3  C   UNL     1       1.078   8.934  20.586  0.00  0.00    +0.000 C 
ATOM      4  N   UNL     1       1.183   9.128  19.125  0.00  0.00    +0.000 N 
ATOM      5  C   UNL     1       2.006   8.438  18.236  0.00  0.00    +0.000 C 
ATOM      6  O   UNL     1       2.106   8.824  17.073  0.00  0.00    +0.000 OA
ATOM      7  N   UNL     1       2.650   7.324  18.724  0.00  0.00    +0.000 N 
ATOM      8  C   UNL     1       0.689  10.432  18.642  0.00  0.00    +0.000 C 
ATOM      9  C   UNL     1      -0.719  10.735  19.152  0.00  0.00    +0.000 C 
ATOM     10  H   UNL     1       2.351   6.958  19.611  0.00  0.00    +0.000 HD
ENDROOT
BRANCH   7  11
ATOM     11  C   UNL     1       3.524   6.484  17.984  0.00  0.00    +0.000 A 
ATOM     12  C   UNL     1       4.704   6.933  17.379  0.00  0.00    +0.000 A 
ATOM     13  C   UNL     1       5.491   6.075  16.604  0.00  0.00    +0.000 A 
ATOM     14  C   UNL     1       5.116   4.747  16.438  0.00  0.00    +0.000 A 
ATOM     15  C   UNL     1       3.966   4.273  17.065  0.00  0.00    +0.000 A 
ATOM     16  C   UNL     1       3.179   5.134  17.841  0.00  0.00    +0.000 A 
ENDBRANCH   7  11
BRANCH   1  17
ATOM     17  S   UNL     1      -0.765  12.084  21.531  0.00  0.00    +0.000 S 
ATOM     18  O   UNL     1      -0.214  11.818  22.840  0.00  0.00    +0.000 OA
ATOM     19  O   UNL     1      -2.077  12.672  21.372  0.00  0.00    +0.000 OA
BRANCH  17  25
ATOM     20  O   UNL     1       2.476  17.638  17.511  0.00  0.00    +0.000 OA
ATOM     21  C   UNL     1       2.121  16.688  18.189  0.00  0.00    +0.000 C 
ATOM     22  C   UNL     1       0.679  16.324  18.564  0.00  0.00    +0.000 C 
ATOM     23  C   UNL     1       0.869  15.068  19.361  0.00  0.00    +0.000 A 
ATOM     24  C   UNL     1      -0.070  14.248  19.963  0.00  0.00    +0.000 A 
ATOM     25  C   UNL     1       0.402  13.136  20.675  0.00  0.00    +0.000 A 
ATOM     26  C   UNL     1       1.785  12.881  20.803  0.00  0.00    +0.000 A 
ATOM     27  C   UNL     1       2.720  13.714  20.178  0.00  0.00    +0.000 A 
ATOM     28  C   UNL     1       2.232  14.789  19.465  0.00  0.00    +0.000 A 
ATOM     29  N   UNL     1       2.957  15.742  18.768  0.00  0.00    +0.000 N 
ATOM     30  H   UNL     1       3.960  15.770  18.669  0.00  0.00    +0.000 HD
ENDBRANCH  17  25
ENDBRANCH   1  17
TORSDOF 3
ENDMDL
