MODEL 1
REMARK VINA RESULT:      -8.9      0.000      0.000
REMARK  Name = 
REMARK  3 active torsions:
REMARK  status: ('A' for Active; 'I' for Inactive)
REMARK    1  A    between atoms: C_1  and  C_2
REMARK    2  A    between atoms: C_6  and  C_8
REMARK    3  A    between atoms: C_23  and  C_24
REMARK                            x       y       z     vdW  Elec       q    Type
REMARK                         _______ _______ _______ _____ _____    ______ ____
ROOT
ATOM      1  C   UNL     1       4.478   3.733  19.600  0.00  0.00    +0.000 C 
ATOM      2  C   UNL     1       3.837   4.959  19.043  0.00  0.00    +0.000 A 
ATOM      3  S   UNL     1       2.538   5.704  19.898  0.00  0.00    +0.000 S 
ATOM      4  C   UNL     1       2.500   6.966  18.751  0.00  0.00    +0.000 A 
ATOM      5  N   UNL     1       1.552   7.933  19.014  0.00  0.00    +0.000 N 
ATOM      6  C   UNL     1       1.502   9.111  18.301  0.00  0.00    +0.000 C 
ATOM      7  O   UNL     1       2.322   9.453  17.454  0.00  0.00    +0.000 OA
ATOM      8  N   UNL     1       3.356   6.859  17.765  0.00  0.00    +0.000 NA
ATOM      9  C   UNL     1       4.101   5.683  17.884  0.00  0.00    +0.000 A 
ATOM     10  H   UNL     1       0.960   7.763  19.812  0.00  0.00    +0.000 HD
ENDROOT
BRANCH   6  11
ATOM     11  C   UNL     1       0.402  10.092  18.628  0.00  0.00    +0.000 A 
ATOM     12  C   UNL     1       0.689  11.022  19.650  0.00  0.00    +0.000 A 
ATOM     13  C   UNL     1      -0.275  11.917  20.108  0.00  0.00    +0.000 A 
ATOM     14  C   UNL     1      -1.544  11.895  19.537  0.00  0.00    +0.000 A 
ATOM     15  C   UNL     1      -2.659  12.603  20.203  0.00  0.00    +0.000 A 
ATOM     16  O   UNL     1      -2.486  13.292  21.201  0.00  0.00    +0.000 OA
ATOM     17  N   UNL     1      -3.881  12.343  19.648  0.00  0.00    +0.000 N 
ATOM     18  C   UNL     1      -4.037  11.730  18.420  0.00  0.00    +0.000 A 
ATOM     19  N   UNL     1      -3.093  11.117  17.783  0.00  0.00    +0.000 NA
ATOM     20  C   UNL     1      -1.834  11.074  18.436  0.00  0.00    +0.000 A 
ATOM     21  C   UNL     1      -0.858  10.150  18.002  0.00  0.00    +0.000 A 
ATOM     22  C   UNL     1      -5.472  11.870  18.032  0.00  0.00    +0.000 C 
ATOM     23  C   UNL     1      -6.093  11.718  19.416  0.00  0.00    +0.000 C 
ATOM     24  C   UNL     1      -5.157  12.555  20.285  0.00  0.00    +0.000 C 
ENDBRANCH   6  11
BRANCH   9  25
ATOM     25  C   UNL     1       5.100   5.322  16.867  0.00  0.00    +0.000 A 
ATOM     26  C   UNL     1       6.354   5.952  16.869  0.00  0.00    +0.000 A 
ATOM     27  C   UNL     1       7.329   5.615  15.921  0.00  0.00    +0.000 A 
ATOM     28  C   UNL     1       7.065   4.648  14.957  0.00  0.00    +0.000 A 
ATOM     29  C   UNL     1       5.820   4.030  14.925  0.00  0.00    +0.000 A 
ATOM     30  C   UNL     1       4.835   4.382  15.861  0.00  0.00    +0.000 A 
ENDBRANCH   9  25
TORSDOF 2
ENDMDL
MODEL 2
REMARK VINA RESULT:      -8.6      2.714     10.422
REMARK  Name = 
REMARK  3 active torsions:
REMARK  status: ('A' for Active; 'I' for Inactive)
REMARK    1  A    between atoms: C_1  and  C_2
REMARK    2  A    between atoms: C_6  and  C_8
REMARK    3  A    between atoms: C_23  and  C_24
REMARK                            x       y       z     vdW  Elec       q    Type
REMARK                         _______ _______ _______ _____ _____    ______ ____
ROOT
ATOM      1  C   UNL     1      -0.882  14.571  19.920  0.00  0.00    +0.000 C 
ATOM      2  C   UNL     1      -0.668  13.101  20.062  0.00  0.00    +0.000 A 
ATOM      3  S   UNL     1       0.577  12.330  19.150  0.00  0.00    +0.000 S 
ATOM      4  C   UNL     1       0.244  10.853  19.936  0.00  0.00    +0.000 A 
ATOM      5  N   UNL     1       1.059   9.813  19.541  0.00  0.00    +0.000 N 
ATOM      6  C   UNL     1       1.055   8.601  20.195  0.00  0.00    +0.000 C 
ATOM      7  O   UNL     1       0.421   8.358  21.218  0.00  0.00    +0.000 OA
ATOM      8  N   UNL     1      -0.742  10.881  20.798  0.00  0.00    +0.000 NA
ATOM      9  C   UNL     1      -1.316  12.154  20.849  0.00  0.00    +0.000 A 
ATOM     10  H   UNL     1       1.715  10.023  18.805  0.00  0.00    +0.000 HD
ENDROOT
BRANCH   6  11
ATOM     11  C   UNL     1       1.948   7.505  19.664  0.00  0.00    +0.000 A 
ATOM     12  C   UNL     1       2.091   6.372  20.492  0.00  0.00    +0.000 A 
ATOM     13  C   UNL     1       2.960   5.335  20.160  0.00  0.00    +0.000 A 
ATOM     14  C   UNL     1       3.694   5.420  18.980  0.00  0.00    +0.000 A 
ATOM     15  C   UNL     1       4.835   4.505  18.761  0.00  0.00    +0.000 A 
ATOM     16  O   UNL     1       5.104   3.603  19.545  0.00  0.00    +0.000 OA
ATOM     17  N   UNL     1       5.584   4.819  17.661  0.00  0.00    +0.000 N 
ATOM     18  C   UNL     1       5.162   5.704  16.688  0.00  0.00    +0.000 A 
ATOM     19  N   UNL     1       4.160   6.510  16.818  0.00  0.00    +0.000 NA
ATOM     20  C   UNL     1       3.490   6.468  18.068  0.00  0.00    +0.000 A 
ATOM     21  C   UNL     1       2.630   7.527  18.432  0.00  0.00    +0.000 A 
ATOM     22  C   UNL     1       6.101   5.578  15.534  0.00  0.00    +0.000 C 
ATOM     23  C   UNL     1       7.388   5.348  16.318  0.00  0.00    +0.000 C 
ATOM     24  C   UNL     1       6.935   4.381  17.409  0.00  0.00    +0.000 C 
ENDBRANCH   6  11
BRANCH   9  25
ATOM     25  C   UNL     1      -2.472  12.421  21.719  0.00  0.00    +0.000 A 
ATOM     26  C   UNL     1      -2.353  12.251  23.106  0.00  0.00    +0.000 A 
ATOM     27  C   UNL     1      -3.435  12.515  23.958  0.00  0.00    +0.000 A 
ATOM     28  C   UNL     1      -4.648  12.947  23.436  0.00  0.00    +0.000 A 
ATOM     29  C   UNL     1      -4.792  13.098  22.061  0.00  0.00    +0.000 A 
ATOM     30  C   UNL     1      -3.716  12.815  21.206  0.00  0.00    +0.000 A 
ENDBRANCH   9  25
TORSDOF 2
ENDMDL
MODEL 3
REMARK VINA RESULT:      -8.5      3.169     10.471
REMARK  Name = 
REMARK  3 active torsions:
REMARK  status: ('A' for Active; 'I' for Inactive)
REMARK    1  A    between atoms: C_1  and  C_2
REMARK    2  A    between atoms: C_6  and  C_8
REMARK    3  A    between atoms: C_23  and  C_24
REMARK                            x       y       z     vdW  Elec       q    Type
REMARK                         _______ _______ _______ _____ _____    ______ ____
ROOT
ATOM      1  C   UNL     1      -0.656  14.970  21.672  0.00  0.00    +0.000 C 
ATOM      2  C   UNL     1      -0.577  13.505  21.401  0.00  0.00    +0.000 A 
ATOM      3  S   UNL     1       0.810  12.860  20.604  0.00  0.00    +0.000 S 
ATOM      4  C   UNL     1       0.195  11.281  20.801  0.00  0.00    +0.000 A 
ATOM      5  N   UNL     1       1.018  10.294  20.301  0.00  0.00    +0.000 N 
ATOM      6  C   UNL     1       0.771   8.959  20.533  0.00  0.00    +0.000 C 
ATOM      7  O   UNL     1      -0.119   8.526  21.260  0.00  0.00    +0.000 OA
ATOM      8  N   UNL     1      -0.976  11.199  21.383  0.00  0.00    +0.000 NA
ATOM      9  C   UNL     1      -1.463  12.472  21.690  0.00  0.00    +0.000 A 
ATOM     10  H   UNL     1       1.853  10.612  19.835  0.00  0.00    +0.000 HD
ENDROOT
BRANCH   6  11
ATOM     11  C   UNL     1       1.701   7.946  19.909  0.00  0.00    +0.000 A 
ATOM     12  C   UNL     1       2.288   8.321  18.683  0.00  0.00    +0.000 A 
ATOM     13  C   UNL     1       3.089   7.439  17.961  0.00  0.00    +0.000 A 
ATOM     14  C   UNL     1       3.318   6.163  18.469  0.00  0.00    +0.000 A 
ATOM     15  C   UNL     1       3.892   5.119  17.594  0.00  0.00    +0.000 A 
ATOM     16  O   UNL     1       4.265   5.361  16.452  0.00  0.00    +0.000 OA
ATOM     17  N   UNL     1       3.885   3.872  18.154  0.00  0.00    +0.000 N 
ATOM     18  C   UNL     1       3.649   3.648  19.497  0.00  0.00    +0.000 A 
ATOM     19  N   UNL     1       3.169   4.531  20.311  0.00  0.00    +0.000 NA
ATOM     20  C   UNL     1       2.856   5.792  19.742  0.00  0.00    +0.000 A 
ATOM     21  C   UNL     1       2.020   6.684  20.448  0.00  0.00    +0.000 A 
ATOM     22  C   UNL     1       3.993   2.224  19.779  0.00  0.00    +0.000 C 
ATOM     23  C   UNL     1       3.510   1.613  18.468  0.00  0.00    +0.000 C 
ATOM     24  C   UNL     1       4.004   2.626  17.437  0.00  0.00    +0.000 C 
ENDBRANCH   6  11
BRANCH   9  25
ATOM     25  C   UNL     1      -2.786  12.638  22.314  0.00  0.00    +0.000 A 
ATOM     26  C   UNL     1      -3.888  12.991  21.522  0.00  0.00    +0.000 A 
ATOM     27  C   UNL     1      -5.162  13.139  22.089  0.00  0.00    +0.000 A 
ATOM     28  C   UNL     1      -5.350  12.939  23.451  0.00  0.00    +0.000 A 
ATOM     29  C   UNL     1      -4.264  12.612  24.256  0.00  0.00    +0.000 A 
ATOM     30  C   UNL     1      -2.985  12.484  23.693  0.00  0.00    +0.000 A 
ENDBRANCH   9  25
TORSDOF 2
ENDMDL
MODEL 4
REMARK VINA RESULT:      -8.5      2.986     10.492
REMARK  Name = 
REMARK  3 active torsions:
REMARK  status: ('A' for Active; 'I' for Inactive)
REMARK    1  A    between atoms: C_1  and  C_2
REMARK    2  A    between atoms: C_6  and  C_8
REMARK    3  A    between atoms: C_23  and  C_24
REMARK                            x       y       z     vdW  Elec       q    Type
REMARK                         _______ _______ _______ _____ _____    ______ ____
ROOT
ATOM      1  C   UNL     1      -0.284  14.636  22.238  0.00  0.00    +0.000 C 
ATOM      2  C   UNL     1      -0.312  13.190  21.871  0.00  0.00    +0.000 A 
ATOM      3  S   UNL     1       1.063  12.478  21.111  0.00  0.00    +0.000 S 
ATOM      4  C   UNL     1       0.306  10.950  21.164  0.00  0.00    +0.000 A 
ATOM      5  N   UNL     1       1.073   9.928  20.644  0.00  0.00    +0.000 N 
ATOM      6  C   UNL     1       0.700   8.608  20.769  0.00  0.00    +0.000 C 
ATOM      7  O   UNL     1      -0.265   8.209  21.414  0.00  0.00    +0.000 OA
ATOM      8  N   UNL     1      -0.901  10.934  21.673  0.00  0.00    +0.000 NA
ATOM      9  C   UNL     1      -1.298  12.223  22.039  0.00  0.00    +0.000 A 
ATOM     10  H   UNL     1       1.958  10.200  20.248  0.00  0.00    +0.000 HD
ENDROOT
BRANCH   6  11
ATOM     11  C   UNL     1       1.578   7.559  20.130  0.00  0.00    +0.000 A 
ATOM     12  C   UNL     1       1.628   6.312  20.788  0.00  0.00    +0.000 A 
ATOM     13  C   UNL     1       2.473   5.294  20.351  0.00  0.00    +0.000 A 
ATOM     14  C   UNL     1       3.277   5.514  19.236  0.00  0.00    +0.000 A 
ATOM     15  C   UNL     1       4.391   4.587  18.943  0.00  0.00    +0.000 A 
ATOM     16  O   UNL     1       4.579   3.569  19.598  0.00  0.00    +0.000 OA
ATOM     17  N   UNL     1       5.214   5.021  17.941  0.00  0.00    +0.000 N 
ATOM     18  C   UNL     1       4.884   6.057  17.089  0.00  0.00    +0.000 A 
ATOM     19  N   UNL     1       3.909   6.882  17.285  0.00  0.00    +0.000 NA
ATOM     20  C   UNL     1       3.168   6.691  18.479  0.00  0.00    +0.000 A 
ATOM     21  C   UNL     1       2.331   7.726  18.951  0.00  0.00    +0.000 A 
ATOM     22  C   UNL     1       5.882   6.055  15.979  0.00  0.00    +0.000 C 
ATOM     23  C   UNL     1       7.112   5.652  16.785  0.00  0.00    +0.000 C 
ATOM     24  C   UNL     1       6.559   4.560  17.697  0.00  0.00    +0.000 C 
ENDBRANCH   6  11
BRANCH   9  25
ATOM     25  C   UNL     1      -2.637  12.464  22.598  0.00  0.00    +0.000 A 
ATOM     26  C   UNL     1      -3.716  12.711  21.736  0.00  0.00    +0.000 A 
ATOM     27  C   UNL     1      -5.006  12.927  22.242  0.00  0.00    +0.000 A 
ATOM     28  C   UNL     1      -5.233  12.903  23.613  0.00  0.00    +0.000 A 
ATOM     29  C   UNL     1      -4.171  12.684  24.484  0.00  0.00    +0.000 A 
ATOM     30  C   UNL     1      -2.877  12.488  23.979  0.00  0.00    +0.000 A 
ENDBRANCH   9  25
TORSDOF 2
ENDMDL
MODEL 5
REMARK VINA RESULT:      -8.3      3.052     10.464
REMARK  Name = 
REMARK  3 active torsions:
REMARK  status: ('A' for Active; 'I' for Inactive)
REMARK    1  A    between atoms: C_1  and  C_2
REMARK    2  A    between atoms: C_6  and  C_8
REMARK    3  A    between atoms: C_23  and  C_24
REMARK                            x       y       z     vdW  Elec       q    Type
REMARK                         _______ _______ _______ _____ _____    ______ ____
ROOT
ATOM      1  C   UNL     1      -0.887  14.868  20.068  0.00  0.00    +0.000 C 
ATOM      2  C   UNL     1      -0.608  13.425  20.325  0.00  0.00    +0.000 A 
ATOM      3  S   UNL     1       0.319  12.521  19.184  0.00  0.00    +0.000 S 
ATOM      4  C   UNL     1       0.271  11.163  20.216  0.00  0.00    +0.000 A 
ATOM      5  N   UNL     1       0.951  10.067  19.727  0.00  0.00    +0.000 N 
ATOM      6  C   UNL     1       1.171   8.948  20.501  0.00  0.00    +0.000 C 
ATOM      7  O   UNL     1       0.882   8.850  21.690  0.00  0.00    +0.000 OA
ATOM      8  N   UNL     1      -0.408  11.319  21.325  0.00  0.00    +0.000 NA
ATOM      9  C   UNL     1      -0.967  12.599  21.384  0.00  0.00    +0.000 A 
ATOM     10  H   UNL     1       1.348  10.169  18.807  0.00  0.00    +0.000 HD
ENDROOT
BRANCH   6  11
ATOM     11  C   UNL     1       1.885   7.778  19.869  0.00  0.00    +0.000 A 
ATOM     12  C   UNL     1       1.823   6.561  20.580  0.00  0.00    +0.000 A 
ATOM     13  C   UNL     1       2.519   5.433  20.151  0.00  0.00    +0.000 A 
ATOM     14  C   UNL     1       3.283   5.511  18.990  0.00  0.00    +0.000 A 
ATOM     15  C   UNL     1       4.264   4.446  18.687  0.00  0.00    +0.000 A 
ATOM     16  O   UNL     1       4.366   3.440  19.379  0.00  0.00    +0.000 OA
ATOM     17  N   UNL     1       5.078   4.740  17.628  0.00  0.00    +0.000 N 
ATOM     18  C   UNL     1       4.827   5.772  16.746  0.00  0.00    +0.000 A 
ATOM     19  N   UNL     1       3.967   6.715  16.950  0.00  0.00    +0.000 NA
ATOM     20  C   UNL     1       3.273   6.662  18.186  0.00  0.00    +0.000 A 
ATOM     21  C   UNL     1       2.589   7.807  18.649  0.00  0.00    +0.000 A 
ATOM     22  C   UNL     1       5.758   5.607  15.591  0.00  0.00    +0.000 C 
ATOM     23  C   UNL     1       6.973   5.093  16.355  0.00  0.00    +0.000 C 
ATOM     24  C   UNL     1       6.345   4.112  17.342  0.00  0.00    +0.000 C 
ENDBRANCH   6  11
BRANCH   9  25
ATOM     25  C   UNL     1      -1.811  12.995  22.522  0.00  0.00    +0.000 A 
ATOM     26  C   UNL     1      -3.005  12.304  22.777  0.00  0.00    +0.000 A 
ATOM     27  C   UNL     1      -3.819  12.652  23.864  0.00  0.00    +0.000 A 
ATOM     28  C   UNL     1      -3.453  13.694  24.708  0.00  0.00    +0.000 A 
ATOM     29  C   UNL     1      -2.285  14.406  24.457  0.00  0.00    +0.000 A 
ATOM     30  C   UNL     1      -1.480  14.072  23.357  0.00  0.00    +0.000 A 
ENDBRANCH   9  25
TORSDOF 2
ENDMDL
MODEL 6
REMARK VINA RESULT:      -8.2      1.777      2.735
REMARK  Name = 
REMARK  3 active torsions:
REMARK  status: ('A' for Active; 'I' for Inactive)
REMARK    1  A    between atoms: C_1  and  C_2
REMARK    2  A    between atoms: C_6  and  C_8
REMARK    3  A    between atoms: C_23  and  C_24
REMARK                            x       y       z     vdW  Elec       q    Type
REMARK                         _______ _______ _______ _____ _____    ______ ____
ROOT
ATOM      1  C   UNL     1       4.621   3.200  19.392  0.00  0.00    +0.000 C 
ATOM      2  C   UNL     1       3.986   4.503  19.039  0.00  0.00    +0.000 A 
ATOM      3  S   UNL     1       2.747   5.148  20.051  0.00  0.00    +0.000 S 
ATOM      4  C   UNL     1       2.688   6.556  19.089  0.00  0.00    +0.000 A 
ATOM      5  N   UNL     1       1.778   7.495  19.528  0.00  0.00    +0.000 N 
ATOM      6  C   UNL     1       1.724   8.759  18.986  0.00  0.00    +0.000 C 
ATOM      7  O   UNL     1       2.512   9.200  18.154  0.00  0.00    +0.000 OA
ATOM      8  N   UNL     1       3.493   6.569  18.056  0.00  0.00    +0.000 NA
ATOM      9  C   UNL     1       4.214   5.374  17.978  0.00  0.00    +0.000 A 
ATOM     10  H   UNL     1       1.219   7.228  20.323  0.00  0.00    +0.000 HD
ENDROOT
BRANCH   6  11
ATOM     11  C   UNL     1       0.666   9.707  19.497  0.00  0.00    +0.000 A 
ATOM     12  C   UNL     1      -0.452   9.894  18.657  0.00  0.00    +0.000 A 
ATOM     13  C   UNL     1      -1.451  10.813  18.972  0.00  0.00    +0.000 A 
ATOM     14  C   UNL     1      -1.342  11.554  20.145  0.00  0.00    +0.000 A 
ATOM     15  C   UNL     1      -2.206  12.738  20.345  0.00  0.00    +0.000 A 
ATOM     16  O   UNL     1      -3.088  13.041  19.550  0.00  0.00    +0.000 OA
ATOM     17  N   UNL     1      -1.867  13.482  21.441  0.00  0.00    +0.000 N 
ATOM     18  C   UNL     1      -1.012  13.029  22.426  0.00  0.00    +0.000 A 
ATOM     19  N   UNL     1      -0.252  11.990  22.313  0.00  0.00    +0.000 NA
ATOM     20  C   UNL     1      -0.313  11.311  21.069  0.00  0.00    +0.000 A 
ATOM     21  C   UNL     1       0.708  10.400  20.723  0.00  0.00    +0.000 A 
ATOM     22  C   UNL     1      -1.104  13.984  23.570  0.00  0.00    +0.000 C 
ATOM     23  C   UNL     1      -1.268  15.273  22.772  0.00  0.00    +0.000 C 
ATOM     24  C   UNL     1      -2.245  14.854  21.676  0.00  0.00    +0.000 C 
ENDBRANCH   6  11
BRANCH   9  25
ATOM     25  C   UNL     1       5.155   5.138  16.873  0.00  0.00    +0.000 A 
ATOM     26  C   UNL     1       6.425   5.735  16.901  0.00  0.00    +0.000 A 
ATOM     27  C   UNL     1       7.346   5.513  15.868  0.00  0.00    +0.000 A 
ATOM     28  C   UNL     1       7.012   4.695  14.794  0.00  0.00    +0.000 A 
ATOM     29  C   UNL     1       5.750   4.114  14.738  0.00  0.00    +0.000 A 
ATOM     30  C   UNL     1       4.819   4.352  15.761  0.00  0.00    +0.000 A 
ENDBRANCH   9  25
TORSDOF 2
ENDMDL
MODEL 7
REMARK VINA RESULT:      -8.2      2.247      2.608
REMARK  Name = 
REMARK  3 active torsions:
REMARK  status: ('A' for Active; 'I' for Inactive)
REMARK    1  A    between atoms: C_1  and  C_2
REMARK    2  A    between atoms: C_6  and  C_8
REMARK    3  A    between atoms: C_23  and  C_24
REMARK                            x       y       z     vdW  Elec       q    Type
REMARK                         _______ _______ _______ _____ _____    ______ ____
ROOT
ATOM      1  C   UNL     1       3.518   3.329  19.861  0.00  0.00    +0.000 C 
ATOM      2  C   UNL     1       2.970   4.710  19.721  0.00  0.00    +0.000 A 
ATOM      3  S   UNL     1       1.888   5.322  20.917  0.00  0.00    +0.000 S 
ATOM      4  C   UNL     1       1.868   6.836  20.131  0.00  0.00    +0.000 A 
ATOM      5  N   UNL     1       1.086   7.782  20.760  0.00  0.00    +0.000 N 
ATOM      6  C   UNL     1       1.095   9.103  20.372  0.00  0.00    +0.000 C 
ATOM      7  O   UNL     1       1.842   9.579  19.521  0.00  0.00    +0.000 OA
ATOM      8  N   UNL     1       2.576   6.911  19.032  0.00  0.00    +0.000 NA
ATOM      9  C   UNL     1       3.179   5.683  18.748  0.00  0.00    +0.000 A 
ATOM     10  H   UNL     1       0.579   7.465  21.572  0.00  0.00    +0.000 HD
ENDROOT
BRANCH   6  11
ATOM     11  C   UNL     1       0.174  10.061  21.089  0.00  0.00    +0.000 A 
ATOM     12  C   UNL     1      -0.269   9.652  22.364  0.00  0.00    +0.000 A 
ATOM     13  C   UNL     1      -1.194  10.402  23.086  0.00  0.00    +0.000 A 
ATOM     14  C   UNL     1      -1.684  11.583  22.536  0.00  0.00    +0.000 A 
ATOM     15  C   UNL     1      -2.879  12.225  23.126  0.00  0.00    +0.000 A 
ATOM     16  O   UNL     1      -3.405  11.803  24.148  0.00  0.00    +0.000 OA
ATOM     17  N   UNL     1      -3.366  13.262  22.380  0.00  0.00    +0.000 N 
ATOM     18  C   UNL     1      -2.659  13.848  21.348  0.00  0.00    +0.000 A 
ATOM     19  N   UNL     1      -1.597  13.342  20.810  0.00  0.00    +0.000 NA
ATOM     20  C   UNL     1      -1.178  12.090  21.328  0.00  0.00    +0.000 A 
ATOM     21  C   UNL     1      -0.264  11.304  20.593  0.00  0.00    +0.000 A 
ATOM     22  C   UNL     1      -3.380  15.097  20.966  0.00  0.00    +0.000 C 
ATOM     23  C   UNL     1      -4.808  14.602  21.169  0.00  0.00    +0.000 C 
ATOM     24  C   UNL     1      -4.695  13.815  22.473  0.00  0.00    +0.000 C 
ENDBRANCH   6  11
BRANCH   9  25
ATOM     25  C   UNL     1       3.994   5.510  17.536  0.00  0.00    +0.000 A 
ATOM     26  C   UNL     1       4.548   6.633  16.904  0.00  0.00    +0.000 A 
ATOM     27  C   UNL     1       5.342   6.494  15.757  0.00  0.00    +0.000 A 
ATOM     28  C   UNL     1       5.590   5.235  15.226  0.00  0.00    +0.000 A 
ATOM     29  C   UNL     1       5.030   4.111  15.825  0.00  0.00    +0.000 A 
ATOM     30  C   UNL     1       4.218   4.251  16.961  0.00  0.00    +0.000 A 
ENDBRANCH   9  25
TORSDOF 2
ENDMDL
MODEL 8
REMARK VINA RESULT:      -8.1      3.766      9.575
REMARK  Name = 
REMARK  3 active torsions:
REMARK  status: ('A' for Active; 'I' for Inactive)
REMARK    1  A    between atoms: C_1  and  C_2
REMARK    2  A    between atoms: C_6  and  C_8
REMARK    3  A    between atoms: C_23  and  C_24
REMARK                            x       y       z     vdW  Elec       q    Type
REMARK                         _______ _______ _______ _____ _____    ______ ____
ROOT
ATOM      1  C   UNL     1      -1.123  14.792  21.607  0.00  0.00    +0.000 C 
ATOM      2  C   UNL     1      -0.280  13.852  20.812  0.00  0.00    +0.000 A 
ATOM      3  S   UNL     1      -0.122  12.212  21.321  0.00  0.00    +0.000 S 
ATOM      4  C   UNL     1       0.799  11.864  19.928  0.00  0.00    +0.000 A 
ATOM      5  N   UNL     1       1.197  10.546  19.835  0.00  0.00    +0.000 N 
ATOM      6  C   UNL     1       1.788  10.047  18.696  0.00  0.00    +0.000 C 
ATOM      7  O   UNL     1       1.931  10.671  17.648  0.00  0.00    +0.000 OA
ATOM      8  N   UNL     1       1.026  12.879  19.132  0.00  0.00    +0.000 NA
ATOM      9  C   UNL     1       0.458  14.047  19.649  0.00  0.00    +0.000 A 
ATOM     10  H   UNL     1       0.949   9.956  20.614  0.00  0.00    +0.000 HD
ENDROOT
BRANCH   6  11
ATOM     11  C   UNL     1       2.232   8.604  18.700  0.00  0.00    +0.000 A 
ATOM     12  C   UNL     1       3.024   8.199  17.605  0.00  0.00    +0.000 A 
ATOM     13  C   UNL     1       3.417   6.872  17.445  0.00  0.00    +0.000 A 
ATOM     14  C   UNL     1       3.024   5.931  18.393  0.00  0.00    +0.000 A 
ATOM     15  C   UNL     1       3.157   4.489  18.091  0.00  0.00    +0.000 A 
ATOM     16  O   UNL     1       3.691   4.087  17.065  0.00  0.00    +0.000 OA
ATOM     17  N   UNL     1       2.561   3.680  19.019  0.00  0.00    +0.000 N 
ATOM     18  C   UNL     1       2.141   4.131  20.255  0.00  0.00    +0.000 A 
ATOM     19  N   UNL     1       2.027   5.377  20.579  0.00  0.00    +0.000 NA
ATOM     20  C   UNL     1       2.343   6.312  19.560  0.00  0.00    +0.000 A 
ATOM     21  C   UNL     1       1.924   7.654  19.694  0.00  0.00    +0.000 A 
ATOM     22  C   UNL     1       1.805   2.930  21.076  0.00  0.00    +0.000 C 
ATOM     23  C   UNL     1       1.215   2.061  19.970  0.00  0.00    +0.000 C 
ATOM     24  C   UNL     1       2.184   2.303  18.816  0.00  0.00    +0.000 C 
ENDBRANCH   6  11
BRANCH   9  25
ATOM     25  C   UNL     1       0.617  15.331  18.949  0.00  0.00    +0.000 A 
ATOM     26  C   UNL     1       1.903  15.819  18.674  0.00  0.00    +0.000 A 
ATOM     27  C   UNL     1       2.082  17.031  17.994  0.00  0.00    +0.000 A 
ATOM     28  C   UNL     1       0.980  17.773  17.583  0.00  0.00    +0.000 A 
ATOM     29  C   UNL     1      -0.302  17.317  17.867  0.00  0.00    +0.000 A 
ATOM     30  C   UNL     1      -0.482  16.113  18.566  0.00  0.00    +0.000 A 
ENDBRANCH   9  25
TORSDOF 2
ENDMDL
MODEL 9
REMARK VINA RESULT:      -8.1      3.399      4.892
REMARK  Name = 
REMARK  3 active torsions:
REMARK  status: ('A' for Active; 'I' for Inactive)
REMARK    1  A    between atoms: C_1  and  C_2
REMARK    2  A    between atoms: C_6  and  C_8
REMARK    3  A    between atoms: C_23  and  C_24
REMARK                            x       y       z     vdW  Elec       q    Type
REMARK                         _______ _______ _______ _____ _____    ______ ____
ROOT
ATOM      1  C   UNL     1       4.287   4.711  17.113  0.00  0.00    +0.000 C 
ATOM      2  C   UNL     1       3.574   5.861  17.741  0.00  0.00    +0.000 A 
ATOM      3  S   UNL     1       3.871   7.461  17.170  0.00  0.00    +0.000 S 
ATOM      4  C   UNL     1       2.680   8.066  18.230  0.00  0.00    +0.000 A 
ATOM      5  N   UNL     1       2.494   9.430  18.143  0.00  0.00    +0.000 N 
ATOM      6  C   UNL     1       1.454  10.062  18.788  0.00  0.00    +0.000 C 
ATOM      7  O   UNL     1       0.561   9.489  19.406  0.00  0.00    +0.000 OA
ATOM      8  N   UNL     1       2.102   7.176  18.998  0.00  0.00    +0.000 NA
ATOM      9  C   UNL     1       2.639   5.906  18.770  0.00  0.00    +0.000 A 
ATOM     10  H   UNL     1       3.110   9.918  17.512  0.00  0.00    +0.000 HD
ENDROOT
BRANCH   6  11
ATOM     11  C   UNL     1       1.355  11.564  18.673  0.00  0.00    +0.000 A 
ATOM     12  C   UNL     1       2.470  12.214  18.104  0.00  0.00    +0.000 A 
ATOM     13  C   UNL     1       2.541  13.603  18.029  0.00  0.00    +0.000 A 
ATOM     14  C   UNL     1       1.482  14.361  18.521  0.00  0.00    +0.000 A 
ATOM     15  C   UNL     1       1.661  15.813  18.739  0.00  0.00    +0.000 A 
ATOM     16  O   UNL     1       2.687  16.397  18.413  0.00  0.00    +0.000 OA
ATOM     17  N   UNL     1       0.618  16.399  19.401  0.00  0.00    +0.000 N 
ATOM     18  C   UNL     1      -0.603  15.779  19.585  0.00  0.00    +0.000 A 
ATOM     19  N   UNL     1      -0.820  14.520  19.389  0.00  0.00    +0.000 NA
ATOM     20  C   UNL     1       0.302  13.755  18.981  0.00  0.00    +0.000 A 
ATOM     21  C   UNL     1       0.257  12.347  19.080  0.00  0.00    +0.000 A 
ATOM     22  C   UNL     1      -1.555  16.812  20.090  0.00  0.00    +0.000 C 
ATOM     23  C   UNL     1      -0.586  17.599  20.965  0.00  0.00    +0.000 C 
ATOM     24  C   UNL     1       0.662  17.666  20.089  0.00  0.00    +0.000 C 
ENDBRANCH   6  11
BRANCH   9  25
ATOM     25  C   UNL     1       2.176   4.746  19.547  0.00  0.00    +0.000 A 
ATOM     26  C   UNL     1       2.593   4.589  20.878  0.00  0.00    +0.000 A 
ATOM     27  C   UNL     1       2.154   3.502  21.646  0.00  0.00    +0.000 A 
ATOM     28  C   UNL     1       1.296   2.557  21.095  0.00  0.00    +0.000 A 
ATOM     29  C   UNL     1       0.891   2.683  19.771  0.00  0.00    +0.000 A 
ATOM     30  C   UNL     1       1.347   3.759  18.995  0.00  0.00    +0.000 A 
ENDBRANCH   9  25
TORSDOF 2
ENDMDL
