MODEL 1
REMARK VINA RESULT:      -8.4      0.000      0.000
REMARK  Name = 
REMARK  7 active torsions:
REMARK  status: ('A' for Active; 'I' for Inactive)
REMARK    1  A    between atoms: C_1  and  C_2
REMARK    2  A    between atoms: N_4  and  C_23
REMARK    3  A    between atoms: C_7  and  C_8
REMARK    4  A    between atoms: C_8  and  N_9
REMARK    5  A    between atoms: C_10  and  C_11
REMARK    6  A    between atoms: C_26  and  C_27
REMARK    7  A    between atoms: C_29  and  C_30
REMARK                            x       y       z     vdW  Elec       q    Type
REMARK                         _______ _______ _______ _____ _____    ______ ____
ROOT
ATOM      1  C   UNL     1      -1.271   9.761  17.797  0.00  0.00    +0.000 C 
ATOM      2  C   UNL     1      -0.563  11.036  18.215  0.00  0.00    +0.000 C 
ATOM      3  O   UNL     1      -1.155  12.111  18.063  0.00  0.00    +0.000 OA
ATOM      4  N   UNL     1       0.728  10.929  18.725  0.00  0.00    +0.000 N 
ATOM      5  C   UNL     1       1.385   9.717  18.712  0.00  0.00    +0.000 A 
ATOM      6  N   UNL     1       2.131   9.199  17.763  0.00  0.00    +0.000 NA
ATOM      7  C   UNL     1       2.564   7.938  18.161  0.00  0.00    +0.000 A 
ATOM      8  C   UNL     1       2.164   7.561  19.434  0.00  0.00    +0.000 A 
ATOM      9  S   UNL     1       1.240   8.802  20.156  0.00  0.00    +0.000 S 
ENDROOT
BRANCH   4  10
ATOM     10  C   UNL     1       1.524  12.082  18.983  0.00  0.00    +0.000 A 
ATOM     11  C   UNL     1       2.478  12.514  18.045  0.00  0.00    +0.000 A 
ATOM     12  C   UNL     1       3.259  13.650  18.282  0.00  0.00    +0.000 A 
ATOM     13  C   UNL     1       3.103  14.378  19.463  0.00  0.00    +0.000 A 
ATOM     14  C   UNL     1       3.940  15.587  19.753  0.00  0.00    +0.000 C 
ATOM     15  C   UNL     1       2.164  13.946  20.406  0.00  0.00    +0.000 A 
ATOM     16  C   UNL     1       1.387  12.793  20.193  0.00  0.00    +0.000 A 
ATOM     17  C   UNL     1       0.535  12.290  21.328  0.00  0.00    +0.000 C 
ENDBRANCH   4  10
BRANCH   7  18
ATOM     18  C   UNL     1       3.417   7.122  17.248  0.00  0.00    +0.000 C 
BRANCH  18  19
ATOM     19  N   UNL     1       4.470   6.340  17.885  0.00  0.00    +0.000 N 
ATOM     20  C   UNL     1       4.347   5.258  18.688  0.00  0.00    +0.000 A 
ATOM     21  N   UNL     1       5.470   4.869  19.203  0.00  0.00    +0.000 NA
ATOM     22  O   UNL     1       6.450   5.756  18.703  0.00  0.00    +0.000 OA
ATOM     23  C   UNL     1       5.792   6.648  17.895  0.00  0.00    +0.000 A 
ATOM     24  O   UNL     1       6.379   7.537  17.296  0.00  0.00    +0.000 OA
BRANCH  20  25
ATOM     25  C   UNL     1       3.086   4.537  19.012  0.00  0.00    +0.000 A 
ATOM     26  C   UNL     1       2.271   3.909  18.066  0.00  0.00    +0.000 A 
ATOM     27  C   UNL     1       1.127   3.205  18.460  0.00  0.00    +0.000 A 
ATOM     28  C   UNL     1       0.808   3.082  19.809  0.00  0.00    +0.000 A 
ATOM     29  C   UNL     1       1.629   3.665  20.767  0.00  0.00    +0.000 A 
ATOM     30  C   UNL     1       2.758   4.391  20.372  0.00  0.00    +0.000 A 
ENDBRANCH  20  25
ENDBRANCH  18  19
ENDBRANCH   7  18
TORSDOF 4
ENDMDL
MODEL 2
REMARK VINA RESULT:      -8.2      1.695      3.260
REMARK  Name = 
REMARK  7 active torsions:
REMARK  status: ('A' for Active; 'I' for Inactive)
REMARK    1  A    between atoms: C_1  and  C_2
REMARK    2  A    between atoms: N_4  and  C_23
REMARK    3  A    between atoms: C_7  and  C_8
REMARK    4  A    between atoms: C_8  and  N_9
REMARK    5  A    between atoms: C_10  and  C_11
REMARK    6  A    between atoms: C_26  and  C_27
REMARK    7  A    between atoms: C_29  and  C_30
REMARK                            x       y       z     vdW  Elec       q    Type
REMARK                         _______ _______ _______ _____ _____    ______ ____
ROOT
ATOM      1  C   UNL     1      -1.520   9.920  18.023  0.00  0.00    +0.000 C 
ATOM      2  C   UNL     1      -0.765  11.180  18.399  0.00  0.00    +0.000 C 
ATOM      3  O   UNL     1      -1.331  12.269  18.244  0.00  0.00    +0.000 OA
ATOM      4  N   UNL     1       0.536  11.044  18.876  0.00  0.00    +0.000 N 
ATOM      5  C   UNL     1       1.157   9.814  18.868  0.00  0.00    +0.000 A 
ATOM      6  N   UNL     1       1.862   9.258  17.908  0.00  0.00    +0.000 NA
ATOM      7  C   UNL     1       2.269   7.993  18.316  0.00  0.00    +0.000 A 
ATOM      8  C   UNL     1       1.894   7.648  19.606  0.00  0.00    +0.000 A 
ATOM      9  S   UNL     1       1.026   8.928  20.331  0.00  0.00    +0.000 S 
ENDROOT
BRANCH   4  10
ATOM     10  C   UNL     1       1.371  12.178  19.093  0.00  0.00    +0.000 A 
ATOM     11  C   UNL     1       2.329  12.551  18.135  0.00  0.00    +0.000 A 
ATOM     12  C   UNL     1       3.148  13.668  18.331  0.00  0.00    +0.000 A 
ATOM     13  C   UNL     1       3.027  14.435  19.491  0.00  0.00    +0.000 A 
ATOM     14  C   UNL     1       3.906  15.624  19.738  0.00  0.00    +0.000 C 
ATOM     15  C   UNL     1       2.084  14.061  20.455  0.00  0.00    +0.000 A 
ATOM     16  C   UNL     1       1.268  12.928  20.283  0.00  0.00    +0.000 A 
ATOM     17  C   UNL     1       0.410  12.487  21.439  0.00  0.00    +0.000 C 
ENDBRANCH   4  10
BRANCH   7  18
ATOM     18  C   UNL     1       3.074   7.137  17.396  0.00  0.00    +0.000 C 
BRANCH  18  19
ATOM     19  N   UNL     1       3.281   5.758  17.820  0.00  0.00    +0.000 N 
ATOM     20  C   UNL     1       4.434   5.154  18.191  0.00  0.00    +0.000 A 
ATOM     21  N   UNL     1       4.308   3.880  18.386  0.00  0.00    +0.000 NA
ATOM     22  O   UNL     1       2.949   3.585  18.136  0.00  0.00    +0.000 OA
ATOM     23  C   UNL     1       2.350   4.770  17.790  0.00  0.00    +0.000 A 
ATOM     24  O   UNL     1       1.159   4.843  17.530  0.00  0.00    +0.000 OA
BRANCH  20  25
ATOM     25  C   UNL     1       5.758   5.811  18.366  0.00  0.00    +0.000 A 
ATOM     26  C   UNL     1       6.708   5.429  19.318  0.00  0.00    +0.000 A 
ATOM     27  C   UNL     1       7.954   6.065  19.381  0.00  0.00    +0.000 A 
ATOM     28  C   UNL     1       8.282   7.060  18.466  0.00  0.00    +0.000 A 
ATOM     29  C   UNL     1       7.365   7.425  17.486  0.00  0.00    +0.000 A 
ATOM     30  C   UNL     1       6.111   6.808  17.439  0.00  0.00    +0.000 A 
ENDBRANCH  20  25
ENDBRANCH  18  19
ENDBRANCH   7  18
TORSDOF 4
ENDMDL
MODEL 3
REMARK VINA RESULT:      -8.1      6.436      8.976
REMARK  Name = 
REMARK  7 active torsions:
REMARK  status: ('A' for Active; 'I' for Inactive)
REMARK    1  A    between atoms: C_1  and  C_2
REMARK    2  A    between atoms: N_4  and  C_23
REMARK    3  A    between atoms: C_7  and  C_8
REMARK    4  A    between atoms: C_8  and  N_9
REMARK    5  A    between atoms: C_10  and  C_11
REMARK    6  A    between atoms: C_26  and  C_27
REMARK    7  A    between atoms: C_29  and  C_30
REMARK                            x       y       z     vdW  Elec       q    Type
REMARK                         _______ _______ _______ _____ _____    ______ ____
ROOT
ATOM      1  C   UNL     1      -7.614  11.266  21.282  0.00  0.00    +0.000 C 
ATOM      2  C   UNL     1      -6.973  10.962  19.941  0.00  0.00    +0.000 C 
ATOM      3  O   UNL     1      -7.503  10.112  19.218  0.00  0.00    +0.000 OA
ATOM      4  N   UNL     1      -5.805  11.642  19.608  0.00  0.00    +0.000 N 
ATOM      5  C   UNL     1      -5.182  12.455  20.532  0.00  0.00    +0.000 A 
ATOM      6  N   UNL     1      -4.280  12.133  21.431  0.00  0.00    +0.000 NA
ATOM      7  C   UNL     1      -3.957  13.262  22.177  0.00  0.00    +0.000 A 
ATOM      8  C   UNL     1      -4.599  14.425  21.779  0.00  0.00    +0.000 A 
ATOM      9  S   UNL     1      -5.617  14.112  20.444  0.00  0.00    +0.000 S 
ENDROOT
BRANCH   4  10
ATOM     10  C   UNL     1      -5.048  11.299  18.450  0.00  0.00    +0.000 A 
ATOM     11  C   UNL     1      -4.028  10.336  18.525  0.00  0.00    +0.000 A 
ATOM     12  C   UNL     1      -3.285   9.983  17.394  0.00  0.00    +0.000 A 
ATOM     13  C   UNL     1      -3.547  10.587  16.163  0.00  0.00    +0.000 A 
ATOM     14  C   UNL     1      -2.753  10.243  14.938  0.00  0.00    +0.000 C 
ATOM     15  C   UNL     1      -4.553  11.556  16.084  0.00  0.00    +0.000 A 
ATOM     16  C   UNL     1      -5.294  11.938  17.217  0.00  0.00    +0.000 A 
ATOM     17  C   UNL     1      -6.229  13.112  17.093  0.00  0.00    +0.000 C 
ENDBRANCH   4  10
BRANCH   7  18
ATOM     18  C   UNL     1      -2.963  13.162  23.285  0.00  0.00    +0.000 C 
BRANCH  18  19
ATOM     19  N   UNL     1      -1.702  13.863  23.079  0.00  0.00    +0.000 N 
ATOM     20  C   UNL     1      -0.592  13.430  22.438  0.00  0.00    +0.000 A 
ATOM     21  N   UNL     1       0.412  14.241  22.542  0.00  0.00    +0.000 NA
ATOM     22  O   UNL     1      -0.051  15.330  23.314  0.00  0.00    +0.000 OA
ATOM     23  C   UNL     1      -1.359  15.058  23.626  0.00  0.00    +0.000 A 
ATOM     24  O   UNL     1      -2.045  15.831  24.278  0.00  0.00    +0.000 OA
BRANCH  20  25
ATOM     25  C   UNL     1      -0.449  12.157  21.680  0.00  0.00    +0.000 A 
ATOM     26  C   UNL     1      -0.329  10.896  22.272  0.00  0.00    +0.000 A 
ATOM     27  C   UNL     1      -0.253   9.740  21.486  0.00  0.00    +0.000 A 
ATOM     28  C   UNL     1      -0.341   9.826  20.099  0.00  0.00    +0.000 A 
ATOM     29  C   UNL     1      -0.502  11.069  19.495  0.00  0.00    +0.000 A 
ATOM     30  C   UNL     1      -0.552  12.225  20.279  0.00  0.00    +0.000 A 
ENDBRANCH  20  25
ENDBRANCH  18  19
ENDBRANCH   7  18
TORSDOF 4
ENDMDL
MODEL 4
REMARK VINA RESULT:      -8.1      4.604      9.293
REMARK  Name = 
REMARK  7 active torsions:
REMARK  status: ('A' for Active; 'I' for Inactive)
REMARK    1  A    between atoms: C_1  and  C_2
REMARK    2  A    between atoms: N_4  and  C_23
REMARK    3  A    between atoms: C_7  and  C_8
REMARK    4  A    between atoms: C_8  and  N_9
REMARK    5  A    between atoms: C_10  and  C_11
REMARK    6  A    between atoms: C_26  and  C_27
REMARK    7  A    between atoms: C_29  and  C_30
REMARK                            x       y       z     vdW  Elec       q    Type
REMARK                         _______ _______ _______ _____ _____    ______ ____
ROOT
ATOM      1  C   UNL     1       1.609  13.109  20.671  0.00  0.00    +0.000 C 
ATOM      2  C   UNL     1       0.892  12.540  19.462  0.00  0.00    +0.000 C 
ATOM      3  O   UNL     1       1.265  12.897  18.339  0.00  0.00    +0.000 OA
ATOM      4  N   UNL     1      -0.166  11.663  19.684  0.00  0.00    +0.000 N 
ATOM      5  C   UNL     1      -0.630  11.438  20.964  0.00  0.00    +0.000 A 
ATOM      6  N   UNL     1      -1.546  12.102  21.632  0.00  0.00    +0.000 NA
ATOM      7  C   UNL     1      -1.670  11.552  22.903  0.00  0.00    +0.000 A 
ATOM      8  C   UNL     1      -0.868  10.446  23.140  0.00  0.00    +0.000 A 
ATOM      9  S   UNL     1       0.053  10.075  21.750  0.00  0.00    +0.000 S 
ENDROOT
BRANCH   4  10
ATOM     10  C   UNL     1      -0.998  11.215  18.618  0.00  0.00    +0.000 A 
ATOM     11  C   UNL     1      -2.236  11.833  18.372  0.00  0.00    +0.000 A 
ATOM     12  C   UNL     1      -3.057  11.409  17.322  0.00  0.00    +0.000 A 
ATOM     13  C   UNL     1      -2.657  10.357  16.496  0.00  0.00    +0.000 A 
ATOM     14  C   UNL     1      -3.526   9.868  15.376  0.00  0.00    +0.000 C 
ATOM     15  C   UNL     1      -1.432   9.729  16.743  0.00  0.00    +0.000 A 
ATOM     16  C   UNL     1      -0.605  10.128  17.809  0.00  0.00    +0.000 A 
ATOM     17  C   UNL     1       0.606   9.290  18.123  0.00  0.00    +0.000 C 
ENDBRANCH   4  10
BRANCH   7  18
ATOM     18  C   UNL     1      -2.637  12.139  23.877  0.00  0.00    +0.000 C 
BRANCH  18  19
ATOM     19  N   UNL     1      -3.005  13.532  23.652  0.00  0.00    +0.000 N 
ATOM     20  C   UNL     1      -4.092  14.023  23.012  0.00  0.00    +0.000 A 
ATOM     21  N   UNL     1      -4.064  15.309  22.864  0.00  0.00    +0.000 NA
ATOM     22  O   UNL     1      -2.858  15.739  23.463  0.00  0.00    +0.000 OA
ATOM     23  C   UNL     1      -2.234  14.613  23.936  0.00  0.00    +0.000 A 
ATOM     24  O   UNL     1      -1.167  14.662  24.528  0.00  0.00    +0.000 OA
BRANCH  20  25
ATOM     25  C   UNL     1      -5.239  13.234  22.485  0.00  0.00    +0.000 A 
ATOM     26  C   UNL     1      -6.443  13.042  23.168  0.00  0.00    +0.000 A 
ATOM     27  C   UNL     1      -7.495  12.330  22.579  0.00  0.00    +0.000 A 
ATOM     28  C   UNL     1      -7.371  11.838  21.283  0.00  0.00    +0.000 A 
ATOM     29  C   UNL     1      -6.194  12.055  20.573  0.00  0.00    +0.000 A 
ATOM     30  C   UNL     1      -5.135  12.744  21.171  0.00  0.00    +0.000 A 
ENDBRANCH  20  25
ENDBRANCH  18  19
ENDBRANCH   7  18
TORSDOF 4
ENDMDL
MODEL 5
REMARK VINA RESULT:      -8.0      6.191      8.746
REMARK  Name = 
REMARK  7 active torsions:
REMARK  status: ('A' for Active; 'I' for Inactive)
REMARK    1  A    between atoms: C_1  and  C_2
REMARK    2  A    between atoms: N_4  and  C_23
REMARK    3  A    between atoms: C_7  and  C_8
REMARK    4  A    between atoms: C_8  and  N_9
REMARK    5  A    between atoms: C_10  and  C_11
REMARK    6  A    between atoms: C_26  and  C_27
REMARK    7  A    between atoms: C_29  and  C_30
REMARK                            x       y       z     vdW  Elec       q    Type
REMARK                         _______ _______ _______ _____ _____    ______ ____
ROOT
ATOM      1  C   UNL     1      -7.253  11.915  21.619  0.00  0.00    +0.000 C 
ATOM      2  C   UNL     1      -6.703  11.496  20.269  0.00  0.00    +0.000 C 
ATOM      3  O   UNL     1      -7.306  10.622  19.637  0.00  0.00    +0.000 OA
ATOM      4  N   UNL     1      -5.531  12.103  19.824  0.00  0.00    +0.000 N 
ATOM      5  C   UNL     1      -4.826  12.949  20.654  0.00  0.00    +0.000 A 
ATOM      6  N   UNL     1      -3.886  12.650  21.521  0.00  0.00    +0.000 NA
ATOM      7  C   UNL     1      -3.477  13.812  22.168  0.00  0.00    +0.000 A 
ATOM      8  C   UNL     1      -4.096  14.971  21.728  0.00  0.00    +0.000 A 
ATOM      9  S   UNL     1      -5.202  14.613  20.477  0.00  0.00    +0.000 S 
ENDROOT
BRANCH   4  10
ATOM     10  C   UNL     1      -4.858  11.652  18.653  0.00  0.00    +0.000 A 
ATOM     11  C   UNL     1      -3.719  10.835  18.755  0.00  0.00    +0.000 A 
ATOM     12  C   UNL     1      -3.055  10.377  17.613  0.00  0.00    +0.000 A 
ATOM     13  C   UNL     1      -3.515  10.729  16.342  0.00  0.00    +0.000 A 
ATOM     14  C   UNL     1      -2.811  10.270  15.101  0.00  0.00    +0.000 C 
ATOM     15  C   UNL     1      -4.641  11.552  16.234  0.00  0.00    +0.000 A 
ATOM     16  C   UNL     1      -5.307  12.039  17.373  0.00  0.00    +0.000 A 
ATOM     17  C   UNL     1      -6.393  13.063  17.179  0.00  0.00    +0.000 C 
ENDBRANCH   4  10
BRANCH   7  18
ATOM     18  C   UNL     1      -2.424  13.745  23.224  0.00  0.00    +0.000 C 
BRANCH  18  19
ATOM     19  N   UNL     1      -1.093  14.188  22.829  0.00  0.00    +0.000 N 
ATOM     20  C   UNL     1      -0.121  13.483  22.203  0.00  0.00    +0.000 A 
ATOM     21  N   UNL     1       1.000  14.124  22.111  0.00  0.00    +0.000 NA
ATOM     22  O   UNL     1       0.778  15.379  22.718  0.00  0.00    +0.000 OA
ATOM     23  C   UNL     1      -0.525  15.379  23.149  0.00  0.00    +0.000 A 
ATOM     24  O   UNL     1      -1.025  16.345  23.704  0.00  0.00    +0.000 OA
BRANCH  20  25
ATOM     25  C   UNL     1      -0.242  12.103  21.659  0.00  0.00    +0.000 A 
ATOM     26  C   UNL     1      -0.060  11.767  20.315  0.00  0.00    +0.000 A 
ATOM     27  C   UNL     1      -0.139  10.434  19.893  0.00  0.00    +0.000 A 
ATOM     28  C   UNL     1      -0.356   9.416  20.817  0.00  0.00    +0.000 A 
ATOM     29  C   UNL     1      -0.499   9.728  22.165  0.00  0.00    +0.000 A 
ATOM     30  C   UNL     1      -0.446  11.062  22.582  0.00  0.00    +0.000 A 
ENDBRANCH  20  25
ENDBRANCH  18  19
ENDBRANCH   7  18
TORSDOF 4
ENDMDL
MODEL 6
REMARK VINA RESULT:      -7.7      5.154     10.012
REMARK  Name = 
REMARK  7 active torsions:
REMARK  status: ('A' for Active; 'I' for Inactive)
REMARK    1  A    between atoms: C_1  and  C_2
REMARK    2  A    between atoms: N_4  and  C_23
REMARK    3  A    between atoms: C_7  and  C_8
REMARK    4  A    between atoms: C_8  and  N_9
REMARK    5  A    between atoms: C_10  and  C_11
REMARK    6  A    between atoms: C_26  and  C_27
REMARK    7  A    between atoms: C_29  and  C_30
REMARK                            x       y       z     vdW  Elec       q    Type
REMARK                         _______ _______ _______ _____ _____    ______ ____
ROOT
ATOM      1  C   UNL     1       0.640  14.384  20.489  0.00  0.00    +0.000 C 
ATOM      2  C   UNL     1       0.231  13.429  19.384  0.00  0.00    +0.000 C 
ATOM      3  O   UNL     1       0.802  13.520  18.291  0.00  0.00    +0.000 OA
ATOM      4  N   UNL     1      -0.784  12.516  19.653  0.00  0.00    +0.000 N 
ATOM      5  C   UNL     1      -1.486  12.581  20.838  0.00  0.00    +0.000 A 
ATOM      6  N   UNL     1      -2.565  13.278  21.114  0.00  0.00    +0.000 NA
ATOM      7  C   UNL     1      -2.911  13.073  22.446  0.00  0.00    +0.000 A 
ATOM      8  C   UNL     1      -2.099  12.180  23.127  0.00  0.00    +0.000 A 
ATOM      9  S   UNL     1      -0.885  11.573  22.089  0.00  0.00    +0.000 S 
ENDROOT
BRANCH   4  10
ATOM     10  C   UNL     1      -1.343  11.700  18.627  0.00  0.00    +0.000 A 
ATOM     11  C   UNL     1      -2.544  12.069  17.997  0.00  0.00    +0.000 A 
ATOM     12  C   UNL     1      -3.097  11.283  16.982  0.00  0.00    +0.000 A 
ATOM     13  C   UNL     1      -2.460  10.109  16.574  0.00  0.00    +0.000 A 
ATOM     14  C   UNL     1      -3.041   9.235  15.503  0.00  0.00    +0.000 C 
ATOM     15  C   UNL     1      -1.271   9.730  17.205  0.00  0.00    +0.000 A 
ATOM     16  C   UNL     1      -0.713  10.497  18.244  0.00  0.00    +0.000 A 
ATOM     17  C   UNL     1       0.463   9.932  18.994  0.00  0.00    +0.000 C 
ENDBRANCH   4  10
BRANCH   7  18
ATOM     18  C   UNL     1      -4.098  13.770  23.022  0.00  0.00    +0.000 C 
BRANCH  18  19
ATOM     19  N   UNL     1      -5.273  12.942  23.262  0.00  0.00    +0.000 N 
ATOM     20  C   UNL     1      -6.345  12.746  22.459  0.00  0.00    +0.000 A 
ATOM     21  N   UNL     1      -7.287  12.054  23.018  0.00  0.00    +0.000 NA
ATOM     22  O   UNL     1      -6.817  11.741  24.313  0.00  0.00    +0.000 OA
ATOM     23  C   UNL     1      -5.572  12.307  24.425  0.00  0.00    +0.000 A 
ATOM     24  O   UNL     1      -4.896  12.192  25.436  0.00  0.00    +0.000 OA
BRANCH  20  25
ATOM     25  C   UNL     1      -6.511  13.251  21.069  0.00  0.00    +0.000 A 
ATOM     26  C   UNL     1      -6.914  14.550  20.746  0.00  0.00    +0.000 A 
ATOM     27  C   UNL     1      -6.995  14.963  19.411  0.00  0.00    +0.000 A 
ATOM     28  C   UNL     1      -6.631  14.097  18.384  0.00  0.00    +0.000 A 
ATOM     29  C   UNL     1      -6.189  12.814  18.689  0.00  0.00    +0.000 A 
ATOM     30  C   UNL     1      -6.134  12.393  20.021  0.00  0.00    +0.000 A 
ENDBRANCH  20  25
ENDBRANCH  18  19
ENDBRANCH   7  18
TORSDOF 4
ENDMDL
MODEL 7
REMARK VINA RESULT:      -7.7      4.947      8.990
REMARK  Name = 
REMARK  7 active torsions:
REMARK  status: ('A' for Active; 'I' for Inactive)
REMARK    1  A    between atoms: C_1  and  C_2
REMARK    2  A    between atoms: N_4  and  C_23
REMARK    3  A    between atoms: C_7  and  C_8
REMARK    4  A    between atoms: C_8  and  N_9
REMARK    5  A    between atoms: C_10  and  C_11
REMARK    6  A    between atoms: C_26  and  C_27
REMARK    7  A    between atoms: C_29  and  C_30
REMARK                            x       y       z     vdW  Elec       q    Type
REMARK                         _______ _______ _______ _____ _____    ______ ____
ROOT
ATOM      1  C   UNL     1      -0.824  10.166  21.728  0.00  0.00    +0.000 C 
ATOM      2  C   UNL     1       0.238  11.040  21.090  0.00  0.00    +0.000 C 
ATOM      3  O   UNL     1       1.321  11.165  21.673  0.00  0.00    +0.000 OA
ATOM      4  N   UNL     1      -0.073  11.676  19.891  0.00  0.00    +0.000 N 
ATOM      5  C   UNL     1      -1.354  11.621  19.384  0.00  0.00    +0.000 A 
ATOM      6  N   UNL     1      -2.366  12.423  19.626  0.00  0.00    +0.000 NA
ATOM      7  C   UNL     1      -3.482  11.971  18.928  0.00  0.00    +0.000 A 
ATOM      8  C   UNL     1      -3.260  10.856  18.135  0.00  0.00    +0.000 A 
ATOM      9  S   UNL     1      -1.629  10.364  18.249  0.00  0.00    +0.000 S 
ENDROOT
BRANCH   4  10
ATOM     10  C   UNL     1       0.799  12.642  19.312  0.00  0.00    +0.000 A 
ATOM     11  C   UNL     1       0.574  14.015  19.509  0.00  0.00    +0.000 A 
ATOM     12  C   UNL     1       1.429  14.973  18.955  0.00  0.00    +0.000 A 
ATOM     13  C   UNL     1       2.528  14.578  18.190  0.00  0.00    +0.000 A 
ATOM     14  C   UNL     1       3.449  15.583  17.566  0.00  0.00    +0.000 C 
ATOM     15  C   UNL     1       2.750  13.213  17.979  0.00  0.00    +0.000 A 
ATOM     16  C   UNL     1       1.888  12.238  18.510  0.00  0.00    +0.000 A 
ATOM     17  C   UNL     1       2.087  10.806  18.090  0.00  0.00    +0.000 C 
ENDBRANCH   4  10
BRANCH   7  18
ATOM     18  C   UNL     1      -4.780  12.700  19.048  0.00  0.00    +0.000 C 
BRANCH  18  19
ATOM     19  N   UNL     1      -5.801  12.057  19.864  0.00  0.00    +0.000 N 
ATOM     20  C   UNL     1      -5.993  12.149  21.201  0.00  0.00    +0.000 A 
ATOM     21  N   UNL     1      -6.909  11.349  21.646  0.00  0.00    +0.000 NA
ATOM     22  O   UNL     1      -7.395  10.654  20.515  0.00  0.00    +0.000 OA
ATOM     23  C   UNL     1      -6.686  11.120  19.437  0.00  0.00    +0.000 A 
ATOM     24  O   UNL     1      -6.893  10.718  18.302  0.00  0.00    +0.000 OA
BRANCH  20  25
ATOM     25  C   UNL     1      -5.258  13.040  22.139  0.00  0.00    +0.000 A 
ATOM     26  C   UNL     1      -4.049  12.709  22.757  0.00  0.00    +0.000 A 
ATOM     27  C   UNL     1      -3.394  13.627  23.586  0.00  0.00    +0.000 A 
ATOM     28  C   UNL     1      -3.917  14.903  23.774  0.00  0.00    +0.000 A 
ATOM     29  C   UNL     1      -5.099  15.264  23.135  0.00  0.00    +0.000 A 
ATOM     30  C   UNL     1      -5.766  14.338  22.327  0.00  0.00    +0.000 A 
ENDBRANCH  20  25
ENDBRANCH  18  19
ENDBRANCH   7  18
TORSDOF 4
ENDMDL
MODEL 8
REMARK VINA RESULT:      -7.6      5.206      8.759
REMARK  Name = 
REMARK  7 active torsions:
REMARK  status: ('A' for Active; 'I' for Inactive)
REMARK    1  A    between atoms: C_1  and  C_2
REMARK    2  A    between atoms: N_4  and  C_23
REMARK    3  A    between atoms: C_7  and  C_8
REMARK    4  A    between atoms: C_8  and  N_9
REMARK    5  A    between atoms: C_10  and  C_11
REMARK    6  A    between atoms: C_26  and  C_27
REMARK    7  A    between atoms: C_29  and  C_30
REMARK                            x       y       z     vdW  Elec       q    Type
REMARK                         _______ _______ _______ _____ _____    ______ ____
ROOT
ATOM      1  C   UNL     1      -0.862  10.047  21.776  0.00  0.00    +0.000 C 
ATOM      2  C   UNL     1       0.227  10.918  21.180  0.00  0.00    +0.000 C 
ATOM      3  O   UNL     1       1.263  11.088  21.832  0.00  0.00    +0.000 OA
ATOM      4  N   UNL     1      -0.009  11.499  19.937  0.00  0.00    +0.000 N 
ATOM      5  C   UNL     1      -1.250  11.397  19.344  0.00  0.00    +0.000 A 
ATOM      6  N   UNL     1      -2.291  12.186  19.481  0.00  0.00    +0.000 NA
ATOM      7  C   UNL     1      -3.346  11.685  18.726  0.00  0.00    +0.000 A 
ATOM      8  C   UNL     1      -3.048  10.544  17.995  0.00  0.00    +0.000 A 
ATOM      9  S   UNL     1      -1.420  10.092  18.244  0.00  0.00    +0.000 S 
ENDROOT
BRANCH   4  10
ATOM     10  C   UNL     1       0.884  12.460  19.383  0.00  0.00    +0.000 A 
ATOM     11  C   UNL     1       1.877  12.067  18.469  0.00  0.00    +0.000 A 
ATOM     12  C   UNL     1       2.753  13.002  17.910  0.00  0.00    +0.000 A 
ATOM     13  C   UNL     1       2.657  14.352  18.254  0.00  0.00    +0.000 A 
ATOM     14  C   UNL     1       3.597  15.373  17.687  0.00  0.00    +0.000 C 
ATOM     15  C   UNL     1       1.679  14.748  19.173  0.00  0.00    +0.000 A 
ATOM     16  C   UNL     1       0.805  13.817  19.762  0.00  0.00    +0.000 A 
ATOM     17  C   UNL     1      -0.094  14.288  20.873  0.00  0.00    +0.000 C 
ENDBRANCH   4  10
BRANCH   7  18
ATOM     18  C   UNL     1      -4.662  12.389  18.724  0.00  0.00    +0.000 C 
BRANCH  18  19
ATOM     19  N   UNL     1      -5.614  11.970  19.744  0.00  0.00    +0.000 N 
ATOM     20  C   UNL     1      -5.640  12.295  21.057  0.00  0.00    +0.000 A 
ATOM     21  N   UNL     1      -6.541  11.651  21.729  0.00  0.00    +0.000 NA
ATOM     22  O   UNL     1      -7.196  10.818  20.794  0.00  0.00    +0.000 OA
ATOM     23  C   UNL     1      -6.594  11.044  19.582  0.00  0.00    +0.000 A 
ATOM     24  O   UNL     1      -6.957  10.478  18.562  0.00  0.00    +0.000 OA
BRANCH  20  25
ATOM     25  C   UNL     1      -4.750  13.271  21.743  0.00  0.00    +0.000 A 
ATOM     26  C   UNL     1      -4.891  14.659  21.661  0.00  0.00    +0.000 A 
ATOM     27  C   UNL     1      -4.043  15.509  22.381  0.00  0.00    +0.000 A 
ATOM     28  C   UNL     1      -3.072  14.981  23.227  0.00  0.00    +0.000 A 
ATOM     29  C   UNL     1      -2.945  13.601  23.353  0.00  0.00    +0.000 A 
ATOM     30  C   UNL     1      -3.775  12.753  22.613  0.00  0.00    +0.000 A 
ENDBRANCH  20  25
ENDBRANCH  18  19
ENDBRANCH   7  18
TORSDOF 4
ENDMDL
MODEL 9
REMARK VINA RESULT:      -7.5      1.712      3.225
REMARK  Name = 
REMARK  7 active torsions:
REMARK  status: ('A' for Active; 'I' for Inactive)
REMARK    1  A    between atoms: C_1  and  C_2
REMARK    2  A    between atoms: N_4  and  C_23
REMARK    3  A    between atoms: C_7  and  C_8
REMARK    4  A    between atoms: C_8  and  N_9
REMARK    5  A    between atoms: C_10  and  C_11
REMARK    6  A    between atoms: C_26  and  C_27
REMARK    7  A    between atoms: C_29  and  C_30
REMARK                            x       y       z     vdW  Elec       q    Type
REMARK                         _______ _______ _______ _____ _____    ______ ____
ROOT
ATOM      1  C   UNL     1      -1.690  10.138  18.926  0.00  0.00    +0.000 C 
ATOM      2  C   UNL     1      -0.791  11.358  18.991  0.00  0.00    +0.000 C 
ATOM      3  O   UNL     1      -1.280  12.461  18.723  0.00  0.00    +0.000 OA
ATOM      4  N   UNL     1       0.547  11.165  19.324  0.00  0.00    +0.000 N 
ATOM      5  C   UNL     1       1.058   9.890  19.449  0.00  0.00    +0.000 A 
ATOM      6  N   UNL     1       1.579   9.121  18.520  0.00  0.00    +0.000 NA
ATOM      7  C   UNL     1       1.932   7.900  19.084  0.00  0.00    +0.000 A 
ATOM      8  C   UNL     1       1.708   7.803  20.449  0.00  0.00    +0.000 A 
ATOM      9  S   UNL     1       1.054   9.264  21.046  0.00  0.00    +0.000 S 
ENDROOT
BRANCH   4  10
ATOM     10  C   UNL     1       1.495  12.226  19.244  0.00  0.00    +0.000 A 
ATOM     11  C   UNL     1       2.423  12.274  18.190  0.00  0.00    +0.000 A 
ATOM     12  C   UNL     1       3.351  13.316  18.095  0.00  0.00    +0.000 A 
ATOM     13  C   UNL     1       3.372  14.331  19.053  0.00  0.00    +0.000 A 
ATOM     14  C   UNL     1       4.369  15.449  18.988  0.00  0.00    +0.000 C 
ATOM     15  C   UNL     1       2.458  14.282  20.111  0.00  0.00    +0.000 A 
ATOM     16  C   UNL     1       1.533  13.230  20.234  0.00  0.00    +0.000 A 
ATOM     17  C   UNL     1       0.710  13.149  21.492  0.00  0.00    +0.000 C 
ENDBRANCH   4  10
BRANCH   7  18
ATOM     18  C   UNL     1       2.532   6.832  18.232  0.00  0.00    +0.000 C 
BRANCH  18  19
ATOM     19  N   UNL     1       2.969   5.628  18.928  0.00  0.00    +0.000 N 
ATOM     20  C   UNL     1       4.221   5.128  19.042  0.00  0.00    +0.000 A 
ATOM     21  N   UNL     1       4.262   3.967  19.614  0.00  0.00    +0.000 NA
ATOM     22  O   UNL     1       2.922   3.645  19.926  0.00  0.00    +0.000 OA
ATOM     23  C   UNL     1       2.156   4.695  19.486  0.00  0.00    +0.000 A 
ATOM     24  O   UNL     1       0.943   4.719  19.632  0.00  0.00    +0.000 OA
BRANCH  20  25
ATOM     25  C   UNL     1       5.477   5.776  18.573  0.00  0.00    +0.000 A 
ATOM     26  C   UNL     1       5.545   6.696  17.523  0.00  0.00    +0.000 A 
ATOM     27  C   UNL     1       6.759   7.300  17.178  0.00  0.00    +0.000 A 
ATOM     28  C   UNL     1       7.913   7.026  17.907  0.00  0.00    +0.000 A 
ATOM     29  C   UNL     1       7.856   6.143  18.981  0.00  0.00    +0.000 A 
ATOM     30  C   UNL     1       6.648   5.520  19.309  0.00  0.00    +0.000 A 
ENDBRANCH  20  25
ENDBRANCH  18  19
ENDBRANCH   7  18
TORSDOF 4
ENDMDL
