MODEL 1
REMARK VINA RESULT:      -8.7      0.000      0.000
REMARK  Name = 
REMARK  6 active torsions:
REMARK  status: ('A' for Active; 'I' for Inactive)
REMARK    1  A    between atoms: C_1  and  N_2
REMARK    2  A    between atoms: N_2  and  C_3
REMARK    3  A    between atoms: N_2  and  S_9
REMARK    4  A    between atoms: S_9  and  C_12
REMARK    5  A    between atoms: C_15  and  C_16
REMARK    6  A    between atoms: N_18  and  C_19
REMARK                            x       y       z     vdW  Elec       q    Type
REMARK                         _______ _______ _______ _____ _____    ______ ____
ROOT
ATOM      1  C   UNL     1       3.495   5.509  18.418  0.00  0.00    +0.000 A 
ATOM      2  C   UNL     1       3.351   6.529  17.471  0.00  0.00    +0.000 A 
ATOM      3  C   UNL     1       2.657   7.698  17.815  0.00  0.00    +0.000 A 
ATOM      4  C   UNL     1       2.102   7.852  19.091  0.00  0.00    +0.000 A 
ATOM      5  C   UNL     1       2.240   6.821  20.031  0.00  0.00    +0.000 A 
ATOM      6  C   UNL     1       2.936   5.654  19.694  0.00  0.00    +0.000 A 
ENDROOT
BRANCH   4   7
ATOM      7  C   UNL     1       1.303   9.079  19.390  0.00  0.00    +0.000 C 
ATOM      8  O   UNL     1       0.799   9.686  18.453  0.00  0.00    +0.000 OA
ATOM      9  N   UNL     1       1.254   9.454  20.720  0.00  0.00    +0.000 N 
ATOM     10  H   UNL     1       1.888   8.995  21.367  0.00  0.00    +0.000 HD
BRANCH   9  11
ATOM     11  C   UNL     1       0.548  10.555  21.261  0.00  0.00    +0.000 A 
ATOM     12  C   UNL     1       0.823  11.890  20.945  0.00  0.00    +0.000 A 
ATOM     13  C   UNL     1       0.099  12.925  21.550  0.00  0.00    +0.000 A 
ATOM     14  C   UNL     1      -0.901  12.626  22.470  0.00  0.00    +0.000 A 
ATOM     15  F   UNL     1      -1.571  13.625  23.059  0.00  0.00    +0.000 F 
ATOM     16  C   UNL     1      -1.201  11.306  22.776  0.00  0.00    +0.000 A 
ATOM     17  F   UNL     1      -2.165  11.023  23.664  0.00  0.00    +0.000 F 
ATOM     18  C   UNL     1      -0.490  10.281  22.164  0.00  0.00    +0.000 A 
ATOM     19  F   UNL     1      -0.780   9.002  22.462  0.00  0.00    +0.000 F 
ENDBRANCH   9  11
ENDBRANCH   4   7
BRANCH   1  20
ATOM     20  S   UNL     1       4.168   3.919  17.942  0.00  0.00    +0.000 S 
ATOM     21  O   UNL     1       3.194   3.306  17.060  0.00  0.00    +0.000 OA
ATOM     22  O   UNL     1       4.568   3.253  19.167  0.00  0.00    +0.000 OA
BRANCH  20  24
ATOM     23  C   UNL     1       5.481   4.092  15.577  0.00  0.00    +0.000 C 
ATOM     24  N   UNL     1       5.550   4.277  17.032  0.00  0.00    +0.000 N 
BRANCH  24  25
ATOM     25  C   UNL     1       6.496   5.227  17.534  0.00  0.00    +0.000 A 
ATOM     26  C   UNL     1       6.707   6.414  16.830  0.00  0.00    +0.000 A 
ATOM     27  C   UNL     1       7.529   7.407  17.368  0.00  0.00    +0.000 A 
ATOM     28  C   UNL     1       8.152   7.207  18.599  0.00  0.00    +0.000 A 
ATOM     29  C   UNL     1       7.973   6.005  19.284  0.00  0.00    +0.000 A 
ATOM     30  C   UNL     1       7.150   5.011  18.749  0.00  0.00    +0.000 A 
ENDBRANCH  24  25
ENDBRANCH  20  24
ENDBRANCH   1  20
TORSDOF 5
ENDMDL
MODEL 2
REMARK VINA RESULT:      -8.5      1.773      1.870
REMARK  Name = 
REMARK  6 active torsions:
REMARK  status: ('A' for Active; 'I' for Inactive)
REMARK    1  A    between atoms: C_1  and  N_2
REMARK    2  A    between atoms: N_2  and  C_3
REMARK    3  A    between atoms: N_2  and  S_9
REMARK    4  A    between atoms: S_9  and  C_12
REMARK    5  A    between atoms: C_15  and  C_16
REMARK    6  A    between atoms: N_18  and  C_19
REMARK                            x       y       z     vdW  Elec       q    Type
REMARK                         _______ _______ _______ _____ _____    ______ ____
ROOT
ATOM      1  C   UNL     1       3.432   5.279  18.543  0.00  0.00    +0.000 A 
ATOM      2  C   UNL     1       3.249   6.441  17.786  0.00  0.00    +0.000 A 
ATOM      3  C   UNL     1       2.589   7.539  18.357  0.00  0.00    +0.000 A 
ATOM      4  C   UNL     1       2.104   7.482  19.669  0.00  0.00    +0.000 A 
ATOM      5  C   UNL     1       2.281   6.309  20.416  0.00  0.00    +0.000 A 
ATOM      6  C   UNL     1       2.944   5.212  19.855  0.00  0.00    +0.000 A 
ENDROOT
BRANCH   4   7
ATOM      7  C   UNL     1       1.337   8.644  20.210  0.00  0.00    +0.000 C 
ATOM      8  O   UNL     1       1.082   8.665  21.408  0.00  0.00    +0.000 OA
ATOM      9  N   UNL     1       0.929   9.581  19.277  0.00  0.00    +0.000 N 
ATOM     10  H   UNL     1       1.016   9.342  18.295  0.00  0.00    +0.000 HD
BRANCH   9  11
ATOM     11  C   UNL     1       0.217  10.776  19.538  0.00  0.00    +0.000 A 
ATOM     12  C   UNL     1       0.747  11.861  20.245  0.00  0.00    +0.000 A 
ATOM     13  C   UNL     1      -0.036  12.997  20.491  0.00  0.00    +0.000 A 
ATOM     14  C   UNL     1      -1.348  13.048  20.027  0.00  0.00    +0.000 A 
ATOM     15  F   UNL     1      -2.093  14.130  20.287  0.00  0.00    +0.000 F 
ATOM     16  C   UNL     1      -1.878  11.990  19.303  0.00  0.00    +0.000 A 
ATOM     17  F   UNL     1      -3.142  12.044  18.859  0.00  0.00    +0.000 F 
ATOM     18  C   UNL     1      -1.095  10.870  19.050  0.00  0.00    +0.000 A 
ATOM     19  F   UNL     1      -1.609   9.844  18.350  0.00  0.00    +0.000 F 
ENDBRANCH   9  11
ENDBRANCH   4   7
BRANCH   1  20
ATOM     20  S   UNL     1       4.060   3.788  17.775  0.00  0.00    +0.000 S 
ATOM     21  O   UNL     1       3.026   3.323  16.870  0.00  0.00    +0.000 OA
ATOM     22  O   UNL     1       4.532   2.934  18.848  0.00  0.00    +0.000 OA
BRANCH  20  24
ATOM     23  C   UNL     1       5.233   4.305  15.387  0.00  0.00    +0.000 C 
ATOM     24  N   UNL     1       5.384   4.291  16.848  0.00  0.00    +0.000 N 
BRANCH  24  25
ATOM     25  C   UNL     1       6.348   5.179  17.422  0.00  0.00    +0.000 A 
ATOM     26  C   UNL     1       6.605   6.400  16.797  0.00  0.00    +0.000 A 
ATOM     27  C   UNL     1       7.446   7.333  17.408  0.00  0.00    +0.000 A 
ATOM     28  C   UNL     1       8.042   7.039  18.634  0.00  0.00    +0.000 A 
ATOM     29  C   UNL     1       7.817   5.802  19.239  0.00  0.00    +0.000 A 
ATOM     30  C   UNL     1       6.975   4.869  18.631  0.00  0.00    +0.000 A 
ENDBRANCH  24  25
ENDBRANCH  20  24
ENDBRANCH   1  20
TORSDOF 5
ENDMDL
MODEL 3
REMARK VINA RESULT:      -8.5      2.322      3.550
REMARK  Name = 
REMARK  6 active torsions:
REMARK  status: ('A' for Active; 'I' for Inactive)
REMARK    1  A    between atoms: C_1  and  N_2
REMARK    2  A    between atoms: N_2  and  C_3
REMARK    3  A    between atoms: N_2  and  S_9
REMARK    4  A    between atoms: S_9  and  C_12
REMARK    5  A    between atoms: C_15  and  C_16
REMARK    6  A    between atoms: N_18  and  C_19
REMARK                            x       y       z     vdW  Elec       q    Type
REMARK                         _______ _______ _______ _____ _____    ______ ____
ROOT
ATOM      1  C   UNL     1       3.173   6.845  18.513  0.00  0.00    +0.000 A 
ATOM      2  C   UNL     1       2.598   6.854  19.788  0.00  0.00    +0.000 A 
ATOM      3  C   UNL     1       1.707   7.880  20.136  0.00  0.00    +0.000 A 
ATOM      4  C   UNL     1       1.395   8.897  19.227  0.00  0.00    +0.000 A 
ATOM      5  C   UNL     1       1.985   8.889  17.955  0.00  0.00    +0.000 A 
ATOM      6  C   UNL     1       2.870   7.864  17.600  0.00  0.00    +0.000 A 
ENDROOT
BRANCH   4   7
ATOM      7  C   UNL     1       0.504  10.014  19.666  0.00  0.00    +0.000 C 
ATOM      8  O   UNL     1      -0.431  10.330  18.940  0.00  0.00    +0.000 OA
ATOM      9  N   UNL     1       0.859  10.636  20.849  0.00  0.00    +0.000 N 
ATOM     10  H   UNL     1       1.771  10.425  21.241  0.00  0.00    +0.000 HD
BRANCH   9  11
ATOM     11  C   UNL     1       0.169  11.694  21.487  0.00  0.00    +0.000 A 
ATOM     12  C   UNL     1       0.476  13.047  21.305  0.00  0.00    +0.000 A 
ATOM     13  C   UNL     1      -0.235  14.034  22.001  0.00  0.00    +0.000 A 
ATOM     14  C   UNL     1      -1.253  13.668  22.876  0.00  0.00    +0.000 A 
ATOM     15  F   UNL     1      -1.910  14.620  23.552  0.00  0.00    +0.000 F 
ATOM     16  C   UNL     1      -1.585  12.332  23.047  0.00  0.00    +0.000 A 
ATOM     17  F   UNL     1      -2.566  11.984  23.892  0.00  0.00    +0.000 F 
ATOM     18  C   UNL     1      -0.887  11.355  22.347  0.00  0.00    +0.000 A 
ATOM     19  F   UNL     1      -1.207  10.061  22.514  0.00  0.00    +0.000 F 
ENDBRANCH   9  11
ENDBRANCH   4   7
BRANCH   1  20
ATOM     20  S   UNL     1       4.483   5.689  18.118  0.00  0.00    +0.000 S 
ATOM     21  O   UNL     1       5.288   5.553  19.316  0.00  0.00    +0.000 OA
ATOM     22  O   UNL     1       5.084   6.148  16.881  0.00  0.00    +0.000 OA
BRANCH  20  24
ATOM     23  C   UNL     1       4.295   3.300  16.852  0.00  0.00    +0.000 C 
ATOM     24  N   UNL     1       3.702   4.214  17.838  0.00  0.00    +0.000 N 
BRANCH  24  25
ATOM     25  C   UNL     1       2.891   3.640  18.868  0.00  0.00    +0.000 A 
ATOM     26  C   UNL     1       3.504   3.138  20.017  0.00  0.00    +0.000 A 
ATOM     27  C   UNL     1       2.723   2.691  21.086  0.00  0.00    +0.000 A 
ATOM     28  C   UNL     1       1.332   2.729  20.999  0.00  0.00    +0.000 A 
ATOM     29  C   UNL     1       0.719   3.193  19.834  0.00  0.00    +0.000 A 
ATOM     30  C   UNL     1       1.497   3.642  18.766  0.00  0.00    +0.000 A 
ENDBRANCH  24  25
ENDBRANCH  20  24
ENDBRANCH   1  20
TORSDOF 5
ENDMDL
MODEL 4
REMARK VINA RESULT:      -8.4      1.968      2.342
REMARK  Name = 
REMARK  6 active torsions:
REMARK  status: ('A' for Active; 'I' for Inactive)
REMARK    1  A    between atoms: C_1  and  N_2
REMARK    2  A    between atoms: N_2  and  C_3
REMARK    3  A    between atoms: N_2  and  S_9
REMARK    4  A    between atoms: S_9  and  C_12
REMARK    5  A    between atoms: C_15  and  C_16
REMARK    6  A    between atoms: N_18  and  C_19
REMARK                            x       y       z     vdW  Elec       q    Type
REMARK                         _______ _______ _______ _____ _____    ______ ____
ROOT
ATOM      1  C   UNL     1       3.339   5.051  18.709  0.00  0.00    +0.000 A 
ATOM      2  C   UNL     1       2.855   5.218  20.011  0.00  0.00    +0.000 A 
ATOM      3  C   UNL     1       2.222   6.419  20.363  0.00  0.00    +0.000 A 
ATOM      4  C   UNL     1       2.077   7.453  19.430  0.00  0.00    +0.000 A 
ATOM      5  C   UNL     1       2.576   7.282  18.131  0.00  0.00    +0.000 A 
ATOM      6  C   UNL     1       3.204   6.084  17.773  0.00  0.00    +0.000 A 
ENDROOT
BRANCH   4   7
ATOM      7  C   UNL     1       1.468   8.745  19.869  0.00  0.00    +0.000 C 
ATOM      8  O   UNL     1       1.223   8.897  21.060  0.00  0.00    +0.000 OA
ATOM      9  N   UNL     1       1.180   9.647  18.860  0.00  0.00    +0.000 N 
ATOM     10  H   UNL     1       1.231   9.318  17.901  0.00  0.00    +0.000 HD
BRANCH   9  11
ATOM     11  C   UNL     1       0.629  10.941  19.017  0.00  0.00    +0.000 A 
ATOM     12  C   UNL     1       1.395  12.103  19.158  0.00  0.00    +0.000 A 
ATOM     13  C   UNL     1       0.772  13.344  19.343  0.00  0.00    +0.000 A 
ATOM     14  C   UNL     1      -0.617  13.422  19.386  0.00  0.00    +0.000 A 
ATOM     15  F   UNL     1      -1.201  14.612  19.586  0.00  0.00    +0.000 F 
ATOM     16  C   UNL     1      -1.390  12.282  19.223  0.00  0.00    +0.000 A 
ATOM     17  F   UNL     1      -2.728  12.363  19.265  0.00  0.00    +0.000 F 
ATOM     18  C   UNL     1      -0.769  11.054  19.027  0.00  0.00    +0.000 A 
ATOM     19  F   UNL     1      -1.518   9.949  18.871  0.00  0.00    +0.000 F 
ENDBRANCH   9  11
ENDBRANCH   4   7
BRANCH   1  20
ATOM     20  S   UNL     1       4.351   3.632  18.295  0.00  0.00    +0.000 S 
ATOM     21  O   UNL     1       3.511   2.736  17.525  0.00  0.00    +0.000 OA
ATOM     22  O   UNL     1       4.962   3.182  19.532  0.00  0.00    +0.000 OA
BRANCH  20  24
ATOM     23  C   UNL     1       5.381   4.058  15.824  0.00  0.00    +0.000 C 
ATOM     24  N   UNL     1       5.559   4.233  17.272  0.00  0.00    +0.000 N 
BRANCH  24  25
ATOM     25  C   UNL     1       6.375   5.323  17.711  0.00  0.00    +0.000 A 
ATOM     26  C   UNL     1       7.150   5.174  18.861  0.00  0.00    +0.000 A 
ATOM     27  C   UNL     1       8.047   6.177  19.234  0.00  0.00    +0.000 A 
ATOM     28  C   UNL     1       8.157   7.336  18.466  0.00  0.00    +0.000 A 
ATOM     29  C   UNL     1       7.353   7.504  17.338  0.00  0.00    +0.000 A 
ATOM     30  C   UNL     1       6.457   6.501  16.963  0.00  0.00    +0.000 A 
ENDBRANCH  24  25
ENDBRANCH  20  24
ENDBRANCH   1  20
TORSDOF 5
ENDMDL
MODEL 5
REMARK VINA RESULT:      -8.4      2.334      3.677
REMARK  Name = 
REMARK  6 active torsions:
REMARK  status: ('A' for Active; 'I' for Inactive)
REMARK    1  A    between atoms: C_1  and  N_2
REMARK    2  A    between atoms: N_2  and  C_3
REMARK    3  A    between atoms: N_2  and  S_9
REMARK    4  A    between atoms: S_9  and  C_12
REMARK    5  A    between atoms: C_15  and  C_16
REMARK    6  A    between atoms: N_18  and  C_19
REMARK                            x       y       z     vdW  Elec       q    Type
REMARK                         _______ _______ _______ _____ _____    ______ ____
ROOT
ATOM      1  C   UNL     1       3.516   6.883  18.318  0.00  0.00    +0.000 A 
ATOM      2  C   UNL     1       2.916   6.721  19.571  0.00  0.00    +0.000 A 
ATOM      3  C   UNL     1       1.937   7.634  19.991  0.00  0.00    +0.000 A 
ATOM      4  C   UNL     1       1.560   8.707  19.175  0.00  0.00    +0.000 A 
ATOM      5  C   UNL     1       2.175   8.869  17.925  0.00  0.00    +0.000 A 
ATOM      6  C   UNL     1       3.148   7.959  17.499  0.00  0.00    +0.000 A 
ENDROOT
BRANCH   4   7
ATOM      7  C   UNL     1       0.572   9.700  19.693  0.00  0.00    +0.000 C 
ATOM      8  O   UNL     1      -0.322  10.075  18.944  0.00  0.00    +0.000 OA
ATOM      9  N   UNL     1       0.796  10.155  20.980  0.00  0.00    +0.000 N 
ATOM     10  H   UNL     1       1.687   9.933  21.414  0.00  0.00    +0.000 HD
BRANCH   9  11
ATOM     11  C   UNL     1      -0.005  11.071  21.703  0.00  0.00    +0.000 A 
ATOM     12  C   UNL     1      -0.973  10.690  22.639  0.00  0.00    +0.000 A 
ATOM     13  C   UNL     1      -1.750  11.659  23.288  0.00  0.00    +0.000 A 
ATOM     14  C   UNL     1      -1.556  13.008  23.003  0.00  0.00    +0.000 A 
ATOM     15  F   UNL     1      -2.320  13.923  23.614  0.00  0.00    +0.000 F 
ATOM     16  C   UNL     1      -0.583  13.401  22.096  0.00  0.00    +0.000 A 
ATOM     17  F   UNL     1      -0.401  14.701  21.824  0.00  0.00    +0.000 F 
ATOM     18  C   UNL     1       0.194  12.439  21.462  0.00  0.00    +0.000 A 
ATOM     19  F   UNL     1       1.136  12.820  20.582  0.00  0.00    +0.000 F 
ENDBRANCH   9  11
ENDBRANCH   4   7
BRANCH   1  20
ATOM     20  S   UNL     1       4.924   5.880  17.851  0.00  0.00    +0.000 S 
ATOM     21  O   UNL     1       5.463   5.328  19.079  0.00  0.00    +0.000 OA
ATOM     22  O   UNL     1       5.755   6.702  16.992  0.00  0.00    +0.000 OA
BRANCH  20  24
ATOM     23  C   UNL     1       5.079   4.089  15.823  0.00  0.00    +0.000 C 
ATOM     24  N   UNL     1       4.279   4.607  16.940  0.00  0.00    +0.000 N 
BRANCH  24  25
ATOM     25  C   UNL     1       3.332   3.720  17.543  0.00  0.00    +0.000 A 
ATOM     26  C   UNL     1       3.786   2.541  18.138  0.00  0.00    +0.000 A 
ATOM     27  C   UNL     1       2.895   1.727  18.840  0.00  0.00    +0.000 A 
ATOM     28  C   UNL     1       1.550   2.081  18.934  0.00  0.00    +0.000 A 
ATOM     29  C   UNL     1       1.088   3.238  18.305  0.00  0.00    +0.000 A 
ATOM     30  C   UNL     1       1.977   4.055  17.604  0.00  0.00    +0.000 A 
ENDBRANCH  24  25
ENDBRANCH  20  24
ENDBRANCH   1  20
TORSDOF 5
ENDMDL
MODEL 6
REMARK VINA RESULT:      -8.3      2.405      2.998
REMARK  Name = 
REMARK  6 active torsions:
REMARK  status: ('A' for Active; 'I' for Inactive)
REMARK    1  A    between atoms: C_1  and  N_2
REMARK    2  A    between atoms: N_2  and  C_3
REMARK    3  A    between atoms: N_2  and  S_9
REMARK    4  A    between atoms: S_9  and  C_12
REMARK    5  A    between atoms: C_15  and  C_16
REMARK    6  A    between atoms: N_18  and  C_19
REMARK                            x       y       z     vdW  Elec       q    Type
REMARK                         _______ _______ _______ _____ _____    ______ ____
ROOT
ATOM      1  C   UNL     1       3.383   5.059  18.706  0.00  0.00    +0.000 A 
ATOM      2  C   UNL     1       3.058   5.349  20.035  0.00  0.00    +0.000 A 
ATOM      3  C   UNL     1       2.425   6.563  20.341  0.00  0.00    +0.000 A 
ATOM      4  C   UNL     1       2.123   7.488  19.335  0.00  0.00    +0.000 A 
ATOM      5  C   UNL     1       2.463   7.196  18.007  0.00  0.00    +0.000 A 
ATOM      6  C   UNL     1       3.090   5.984  17.695  0.00  0.00    +0.000 A 
ENDROOT
BRANCH   4   7
ATOM      7  C   UNL     1       1.521   8.802  19.715  0.00  0.00    +0.000 C 
ATOM      8  O   UNL     1       1.251   8.997  20.894  0.00  0.00    +0.000 OA
ATOM      9  N   UNL     1       1.266   9.671  18.670  0.00  0.00    +0.000 N 
ATOM     10  H   UNL     1       1.334   9.309  17.724  0.00  0.00    +0.000 HD
BRANCH   9  11
ATOM     11  C   UNL     1       0.728  10.976  18.770  0.00  0.00    +0.000 A 
ATOM     12  C   UNL     1      -0.595  11.248  19.135  0.00  0.00    +0.000 A 
ATOM     13  C   UNL     1      -1.061  12.569  19.177  0.00  0.00    +0.000 A 
ATOM     14  C   UNL     1      -0.203  13.617  18.856  0.00  0.00    +0.000 A 
ATOM     15  F   UNL     1      -0.667  14.874  18.879  0.00  0.00    +0.000 F 
ATOM     16  C   UNL     1       1.118  13.364  18.517  0.00  0.00    +0.000 A 
ATOM     17  F   UNL     1       1.940  14.377  18.208  0.00  0.00    +0.000 F 
ATOM     18  C   UNL     1       1.581  12.054  18.487  0.00  0.00    +0.000 A 
ATOM     19  F   UNL     1       2.860  11.809  18.156  0.00  0.00    +0.000 F 
ENDBRANCH   9  11
ENDBRANCH   4   7
BRANCH   1  20
ATOM     20  S   UNL     1       4.394   3.634  18.311  0.00  0.00    +0.000 S 
ATOM     21  O   UNL     1       3.557   2.736  17.539  0.00  0.00    +0.000 OA
ATOM     22  O   UNL     1       4.990   3.189  19.557  0.00  0.00    +0.000 OA
BRANCH  20  24
ATOM     23  C   UNL     1       5.468   4.004  15.850  0.00  0.00    +0.000 C 
ATOM     24  N   UNL     1       5.613   4.223  17.296  0.00  0.00    +0.000 N 
BRANCH  24  25
ATOM     25  C   UNL     1       6.405   5.337  17.720  0.00  0.00    +0.000 A 
ATOM     26  C   UNL     1       7.201   5.212  18.859  0.00  0.00    +0.000 A 
ATOM     27  C   UNL     1       8.076   6.241  19.216  0.00  0.00    +0.000 A 
ATOM     28  C   UNL     1       8.141   7.401  18.444  0.00  0.00    +0.000 A 
ATOM     29  C   UNL     1       7.316   7.543  17.327  0.00  0.00    +0.000 A 
ATOM     30  C   UNL     1       6.443   6.514  16.968  0.00  0.00    +0.000 A 
ENDBRANCH  24  25
ENDBRANCH  20  24
ENDBRANCH   1  20
TORSDOF 5
ENDMDL
MODEL 7
REMARK VINA RESULT:      -8.3      2.764      4.006
REMARK  Name = 
REMARK  6 active torsions:
REMARK  status: ('A' for Active; 'I' for Inactive)
REMARK    1  A    between atoms: C_1  and  N_2
REMARK    2  A    between atoms: N_2  and  C_3
REMARK    3  A    between atoms: N_2  and  S_9
REMARK    4  A    between atoms: S_9  and  C_12
REMARK    5  A    between atoms: C_15  and  C_16
REMARK    6  A    between atoms: N_18  and  C_19
REMARK                            x       y       z     vdW  Elec       q    Type
REMARK                         _______ _______ _______ _____ _____    ______ ____
ROOT
ATOM      1  C   UNL     1       4.166   5.769  18.255  0.00  0.00    +0.000 A 
ATOM      2  C   UNL     1       4.178   6.668  17.183  0.00  0.00    +0.000 A 
ATOM      3  C   UNL     1       3.388   7.825  17.244  0.00  0.00    +0.000 A 
ATOM      4  C   UNL     1       2.582   8.085  18.358  0.00  0.00    +0.000 A 
ATOM      5  C   UNL     1       2.565   7.174  19.423  0.00  0.00    +0.000 A 
ATOM      6  C   UNL     1       3.356   6.020  19.371  0.00  0.00    +0.000 A 
ENDROOT
BRANCH   4   7
ATOM      7  C   UNL     1       1.696   9.288  18.347  0.00  0.00    +0.000 C 
ATOM      8  O   UNL     1       1.958  10.196  17.567  0.00  0.00    +0.000 OA
ATOM      9  N   UNL     1       0.672   9.289  19.278  0.00  0.00    +0.000 N 
ATOM     10  H   UNL     1       0.692   8.583  20.006  0.00  0.00    +0.000 HD
BRANCH   9  11
ATOM     11  C   UNL     1      -0.311  10.293  19.450  0.00  0.00    +0.000 A 
ATOM     12  C   UNL     1      -0.355  11.161  20.546  0.00  0.00    +0.000 A 
ATOM     13  C   UNL     1      -1.382  12.107  20.659  0.00  0.00    +0.000 A 
ATOM     14  C   UNL     1      -2.364  12.185  19.676  0.00  0.00    +0.000 A 
ATOM     15  F   UNL     1      -3.354  13.078  19.807  0.00  0.00    +0.000 F 
ATOM     16  C   UNL     1      -2.319  11.347  18.571  0.00  0.00    +0.000 A 
ATOM     17  F   UNL     1      -3.268  11.425  17.627  0.00  0.00    +0.000 F 
ATOM     18  C   UNL     1      -1.292  10.418  18.455  0.00  0.00    +0.000 A 
ATOM     19  F   UNL     1      -1.250   9.605  17.386  0.00  0.00    +0.000 F 
ENDBRANCH   9  11
ENDBRANCH   4   7
BRANCH   1  20
ATOM     20  S   UNL     1       4.977   4.179  18.113  0.00  0.00    +0.000 S 
ATOM     21  O   UNL     1       5.824   4.041  19.282  0.00  0.00    +0.000 OA
ATOM     22  O   UNL     1       5.552   4.123  16.782  0.00  0.00    +0.000 OA
BRANCH  20  24
ATOM     23  C   UNL     1       3.911   1.759  17.520  0.00  0.00    +0.000 C 
ATOM     24  N   UNL     1       3.734   3.035  18.224  0.00  0.00    +0.000 N 
BRANCH  24  25
ATOM     25  C   UNL     1       2.866   3.048  19.361  0.00  0.00    +0.000 A 
ATOM     26  C   UNL     1       1.514   3.345  19.183  0.00  0.00    +0.000 A 
ATOM     27  C   UNL     1       0.628   3.238  20.257  0.00  0.00    +0.000 A 
ATOM     28  C   UNL     1       1.096   2.852  21.513  0.00  0.00    +0.000 A 
ATOM     29  C   UNL     1       2.454   2.594  21.701  0.00  0.00    +0.000 A 
ATOM     30  C   UNL     1       3.341   2.698  20.628  0.00  0.00    +0.000 A 
ENDBRANCH  24  25
ENDBRANCH  20  24
ENDBRANCH   1  20
TORSDOF 5
ENDMDL
MODEL 8
REMARK VINA RESULT:      -8.3      2.047      2.487
REMARK  Name = 
REMARK  6 active torsions:
REMARK  status: ('A' for Active; 'I' for Inactive)
REMARK    1  A    between atoms: C_1  and  N_2
REMARK    2  A    between atoms: N_2  and  C_3
REMARK    3  A    between atoms: N_2  and  S_9
REMARK    4  A    between atoms: S_9  and  C_12
REMARK    5  A    between atoms: C_15  and  C_16
REMARK    6  A    between atoms: N_18  and  C_19
REMARK                            x       y       z     vdW  Elec       q    Type
REMARK                         _______ _______ _______ _____ _____    ______ ____
ROOT
ATOM      1  C   UNL     1       3.248   5.468  18.568  0.00  0.00    +0.000 A 
ATOM      2  C   UNL     1       3.061   6.597  17.763  0.00  0.00    +0.000 A 
ATOM      3  C   UNL     1       2.427   7.728  18.296  0.00  0.00    +0.000 A 
ATOM      4  C   UNL     1       1.972   7.737  19.620  0.00  0.00    +0.000 A 
ATOM      5  C   UNL     1       2.152   6.598  20.417  0.00  0.00    +0.000 A 
ATOM      6  C   UNL     1       2.789   5.468  19.891  0.00  0.00    +0.000 A 
ENDROOT
BRANCH   4   7
ATOM      7  C   UNL     1       1.230   8.932  20.124  0.00  0.00    +0.000 C 
ATOM      8  O   UNL     1       0.946   8.980  21.314  0.00  0.00    +0.000 OA
ATOM      9  N   UNL     1       0.877   9.867  19.167  0.00  0.00    +0.000 N 
ATOM     10  H   UNL     1       0.980   9.610  18.191  0.00  0.00    +0.000 HD
BRANCH   9  11
ATOM     11  C   UNL     1       0.199  11.089  19.391  0.00  0.00    +0.000 A 
ATOM     12  C   UNL     1      -1.166  11.181  19.684  0.00  0.00    +0.000 A 
ATOM     13  C   UNL     1      -1.770  12.433  19.859  0.00  0.00    +0.000 A 
ATOM     14  C   UNL     1      -1.009  13.592  19.744  0.00  0.00    +0.000 A 
ATOM     15  F   UNL     1      -1.602  14.784  19.891  0.00  0.00    +0.000 F 
ATOM     16  C   UNL     1       0.351  13.515  19.478  0.00  0.00    +0.000 A 
ATOM     17  F   UNL     1       1.080  14.635  19.367  0.00  0.00    +0.000 F 
ATOM     18  C   UNL     1       0.950  12.272  19.317  0.00  0.00    +0.000 A 
ATOM     19  F   UNL     1       2.267  12.198  19.058  0.00  0.00    +0.000 F 
ENDBRANCH   9  11
ENDBRANCH   4   7
BRANCH   1  20
ATOM     20  S   UNL     1       3.841   3.936  17.855  0.00  0.00    +0.000 S 
ATOM     21  O   UNL     1       2.842   3.514  16.893  0.00  0.00    +0.000 OA
ATOM     22  O   UNL     1       4.200   3.073  18.964  0.00  0.00    +0.000 OA
BRANCH  20  24
ATOM     23  C   UNL     1       5.227   4.227  15.544  0.00  0.00    +0.000 C 
ATOM     24  N   UNL     1       5.245   4.356  17.007  0.00  0.00    +0.000 N 
BRANCH  24  25
ATOM     25  C   UNL     1       6.155   5.302  17.577  0.00  0.00    +0.000 A 
ATOM     26  C   UNL     1       6.822   4.978  18.760  0.00  0.00    +0.000 A 
ATOM     27  C   UNL     1       7.806   5.833  19.262  0.00  0.00    +0.000 A 
ATOM     28  C   UNL     1       8.111   7.017  18.593  0.00  0.00    +0.000 A 
ATOM     29  C   UNL     1       7.416   7.360  17.432  0.00  0.00    +0.000 A 
ATOM     30  C   UNL     1       6.434   6.507  16.927  0.00  0.00    +0.000 A 
ENDBRANCH  24  25
ENDBRANCH  20  24
ENDBRANCH   1  20
TORSDOF 5
ENDMDL
MODEL 9
REMARK VINA RESULT:      -8.3      1.139      1.488
REMARK  Name = 
REMARK  6 active torsions:
REMARK  status: ('A' for Active; 'I' for Inactive)
REMARK    1  A    between atoms: C_1  and  N_2
REMARK    2  A    between atoms: N_2  and  C_3
REMARK    3  A    between atoms: N_2  and  S_9
REMARK    4  A    between atoms: S_9  and  C_12
REMARK    5  A    between atoms: C_15  and  C_16
REMARK    6  A    between atoms: N_18  and  C_19
REMARK                            x       y       z     vdW  Elec       q    Type
REMARK                         _______ _______ _______ _____ _____    ______ ____
ROOT
ATOM      1  C   UNL     1       3.174   5.954  18.500  0.00  0.00    +0.000 A 
ATOM      2  C   UNL     1       3.097   6.916  17.487  0.00  0.00    +0.000 A 
ATOM      3  C   UNL     1       2.478   8.147  17.751  0.00  0.00    +0.000 A 
ATOM      4  C   UNL     1       1.931   8.419  19.010  0.00  0.00    +0.000 A 
ATOM      5  C   UNL     1       2.001   7.445  20.016  0.00  0.00    +0.000 A 
ATOM      6  C   UNL     1       2.623   6.217  19.761  0.00  0.00    +0.000 A 
ENDROOT
BRANCH   4   7
ATOM      7  C   UNL     1       1.210   9.711  19.223  0.00  0.00    +0.000 C 
ATOM      8  O   UNL     1       1.596  10.699  18.611  0.00  0.00    +0.000 OA
ATOM      9  N   UNL     1       0.188   9.682  20.155  0.00  0.00    +0.000 N 
ATOM     10  H   UNL     1       0.109   8.861  20.747  0.00  0.00    +0.000 HD
BRANCH   9  11
ATOM     11  C   UNL     1      -0.656  10.759  20.515  0.00  0.00    +0.000 A 
ATOM     12  C   UNL     1      -1.502  11.421  19.618  0.00  0.00    +0.000 A 
ATOM     13  C   UNL     1      -2.282  12.503  20.048  0.00  0.00    +0.000 A 
ATOM     14  C   UNL     1      -2.217  12.921  21.374  0.00  0.00    +0.000 A 
ATOM     15  F   UNL     1      -2.951  13.970  21.767  0.00  0.00    +0.000 F 
ATOM     16  C   UNL     1      -1.402  12.258  22.279  0.00  0.00    +0.000 A 
ATOM     17  F   UNL     1      -1.343  12.666  23.556  0.00  0.00    +0.000 F 
ATOM     18  C   UNL     1      -0.638  11.178  21.854  0.00  0.00    +0.000 A 
ATOM     19  F   UNL     1       0.153  10.538  22.732  0.00  0.00    +0.000 F 
ENDBRANCH   9  11
ENDBRANCH   4   7
BRANCH   1  20
ATOM     20  S   UNL     1       3.747   4.297  18.133  0.00  0.00    +0.000 S 
ATOM     21  O   UNL     1       2.774   3.715  17.229  0.00  0.00    +0.000 OA
ATOM     22  O   UNL     1       4.033   3.664  19.406  0.00  0.00    +0.000 OA
BRANCH  20  24
ATOM     23  C   UNL     1       5.203   4.187  15.849  0.00  0.00    +0.000 C 
ATOM     24  N   UNL     1       5.196   4.507  17.283  0.00  0.00    +0.000 N 
BRANCH  24  25
ATOM     25  C   UNL     1       6.156   5.458  17.753  0.00  0.00    +0.000 A 
ATOM     26  C   UNL     1       6.880   5.179  18.913  0.00  0.00    +0.000 A 
ATOM     27  C   UNL     1       7.908   6.033  19.317  0.00  0.00    +0.000 A 
ATOM     28  C   UNL     1       8.201   7.174  18.571  0.00  0.00    +0.000 A 
ATOM     29  C   UNL     1       7.451   7.476  17.434  0.00  0.00    +0.000 A 
ATOM     30  C   UNL     1       6.424   6.622  17.028  0.00  0.00    +0.000 A 
ENDBRANCH  24  25
ENDBRANCH  20  24
ENDBRANCH   1  20
TORSDOF 5
ENDMDL
