MODEL 1
REMARK VINA RESULT:      -8.6      0.000      0.000
REMARK  Name = 
REMARK  5 active torsions:
REMARK  status: ('A' for Active; 'I' for Inactive)
REMARK    1  A    between atoms: C_1  and  C_2
REMARK    2  A    between atoms: C_2  and  N_3
REMARK    3  A    between atoms: C_2  and  C_18
REMARK    4  A    between atoms: C_4  and  C_6
REMARK    5  A    between atoms: C_9  and  C_10
REMARK                            x       y       z     vdW  Elec       q    Type
REMARK                         _______ _______ _______ _____ _____    ______ ____
ROOT
ATOM      1  N   UNL     1       1.134   9.901  19.479  0.00  0.00    +0.000 N 
ATOM      2  C   UNL     1       1.832   9.597  18.336  0.00  0.00    +0.000 C 
ATOM      3  O   UNL     1       1.975  10.411  17.428  0.00  0.00    +0.000 OA
ATOM      4  H   UNL     1       0.992   9.166  20.164  0.00  0.00    +0.000 HD
ENDROOT
BRANCH   2   5
ATOM      5  C   UNL     1       2.370   8.250  18.288  0.00  0.00    +0.000 A 
ATOM      6  C   UNL     1       3.395   7.731  17.522  0.00  0.00    +0.000 A 
ATOM      7  C   UNL     1       3.518   6.368  17.876  0.00  0.00    +0.000 A 
ATOM      8  C   UNL     1       2.560   6.109  18.837  0.00  0.00    +0.000 A 
ATOM      9  O   UNL     1       1.858   7.262  19.093  0.00  0.00    +0.000 OA
BRANCH   8  10
ATOM     10  C   UNL     1       2.165   4.907  19.574  0.00  0.00    +0.000 A 
ATOM     11  C   UNL     1       2.508   4.723  20.924  0.00  0.00    +0.000 A 
ATOM     12  C   UNL     1       2.088   3.586  21.628  0.00  0.00    +0.000 A 
ATOM     13  C   UNL     1       1.321   2.611  20.997  0.00  0.00    +0.000 A 
ATOM     14  C   UNL     1       0.983   2.765  19.656  0.00  0.00    +0.000 A 
ATOM     15  C   UNL     1       1.405   3.898  18.960  0.00  0.00    +0.000 A 
ATOM     16  F   UNL     1       1.049   3.994  17.669  0.00  0.00    +0.000 F 
ENDBRANCH   8  10
ENDBRANCH   2   5
BRANCH   1  18
ATOM     17  C   UNL     1       1.600  12.293  19.644  0.00  0.00    +0.000 C 
ATOM     18  C   UNL     1       0.533  11.201  19.718  0.00  0.00    +0.000 C 
BRANCH  18  19
ATOM     19  C   UNL     1      -0.092  11.167  21.071  0.00  0.00    +0.000 A 
ATOM     20  N   UNL     1       0.398  10.534  22.124  0.00  0.00    +0.000 NA
ATOM     21  N   UNL     1      -0.452  10.724  23.183  0.00  0.00    +0.000 NA
ATOM     22  C   UNL     1      -1.457  11.459  22.763  0.00  0.00    +0.000 A 
ATOM     23  C   UNL     1      -2.624  11.943  23.414  0.00  0.00    +0.000 A 
ATOM     24  C   UNL     1      -3.503  12.698  22.727  0.00  0.00    +0.000 A 
ATOM     25  C   UNL     1      -3.283  13.033  21.328  0.00  0.00    +0.000 A 
ATOM     26  C   UNL     1      -2.184  12.566  20.706  0.00  0.00    +0.000 A 
ATOM     27  N   UNL     1      -1.278  11.780  21.423  0.00  0.00    +0.000 N 
ENDBRANCH  18  19
ENDBRANCH   1  18
TORSDOF 4
ENDMDL
MODEL 2
REMARK VINA RESULT:      -8.4      3.708      8.831
REMARK  Name = 
REMARK  5 active torsions:
REMARK  status: ('A' for Active; 'I' for Inactive)
REMARK    1  A    between atoms: C_1  and  C_2
REMARK    2  A    between atoms: C_2  and  N_3
REMARK    3  A    between atoms: C_2  and  C_18
REMARK    4  A    between atoms: C_4  and  C_6
REMARK    5  A    between atoms: C_9  and  C_10
REMARK                            x       y       z     vdW  Elec       q    Type
REMARK                         _______ _______ _______ _____ _____    ______ ____
ROOT
ATOM      1  N   UNL     1       2.969   5.465  19.938  0.00  0.00    +0.000 N 
ATOM      2  C   UNL     1       2.379   6.396  19.118  0.00  0.00    +0.000 C 
ATOM      3  O   UNL     1       2.311   6.237  17.902  0.00  0.00    +0.000 OA
ATOM      4  H   UNL     1       3.056   5.683  20.926  0.00  0.00    +0.000 HD
ENDROOT
BRANCH   2   5
ATOM      5  C   UNL     1       1.861   7.568  19.796  0.00  0.00    +0.000 A 
ATOM      6  C   UNL     1       1.666   7.802  21.143  0.00  0.00    +0.000 A 
ATOM      7  C   UNL     1       1.148   9.112  21.259  0.00  0.00    +0.000 A 
ATOM      8  C   UNL     1       1.041   9.623  19.980  0.00  0.00    +0.000 A 
ATOM      9  O   UNL     1       1.480   8.679  19.083  0.00  0.00    +0.000 OA
BRANCH   8  10
ATOM     10  C   UNL     1       0.560  10.893  19.435  0.00  0.00    +0.000 A 
ATOM     11  C   UNL     1       1.368  12.042  19.418  0.00  0.00    +0.000 A 
ATOM     12  C   UNL     1       0.909  13.241  18.854  0.00  0.00    +0.000 A 
ATOM     13  C   UNL     1      -0.367  13.316  18.302  0.00  0.00    +0.000 A 
ATOM     14  C   UNL     1      -1.190  12.194  18.323  0.00  0.00    +0.000 A 
ATOM     15  C   UNL     1      -0.728  11.004  18.885  0.00  0.00    +0.000 A 
ATOM     16  F   UNL     1      -1.565   9.955  18.877  0.00  0.00    +0.000 F 
ENDBRANCH   8  10
ENDBRANCH   2   5
BRANCH   1  18
ATOM     17  C   UNL     1       3.517   3.166  20.553  0.00  0.00    +0.000 C 
ATOM     18  C   UNL     1       3.534   4.221  19.447  0.00  0.00    +0.000 C 
BRANCH  18  19
ATOM     19  C   UNL     1       4.931   4.502  19.010  0.00  0.00    +0.000 A 
ATOM     20  N   UNL     1       5.926   4.854  19.807  0.00  0.00    +0.000 NA
ATOM     21  N   UNL     1       7.054   5.032  19.047  0.00  0.00    +0.000 NA
ATOM     22  C   UNL     1       6.732   4.798  17.795  0.00  0.00    +0.000 A 
ATOM     23  C   UNL     1       7.485   4.848  16.590  0.00  0.00    +0.000 A 
ATOM     24  C   UNL     1       6.890   4.546  15.421  0.00  0.00    +0.000 A 
ATOM     25  C   UNL     1       5.486   4.166  15.362  0.00  0.00    +0.000 A 
ATOM     26  C   UNL     1       4.768   4.129  16.500  0.00  0.00    +0.000 A 
ATOM     27  N   UNL     1       5.391   4.447  17.710  0.00  0.00    +0.000 N 
ENDBRANCH  18  19
ENDBRANCH   1  18
TORSDOF 4
ENDMDL
MODEL 3
REMARK VINA RESULT:      -8.4      1.747      3.016
REMARK  Name = 
REMARK  5 active torsions:
REMARK  status: ('A' for Active; 'I' for Inactive)
REMARK    1  A    between atoms: C_1  and  C_2
REMARK    2  A    between atoms: C_2  and  N_3
REMARK    3  A    between atoms: C_2  and  C_18
REMARK    4  A    between atoms: C_4  and  C_6
REMARK    5  A    between atoms: C_9  and  C_10
REMARK                            x       y       z     vdW  Elec       q    Type
REMARK                         _______ _______ _______ _____ _____    ______ ____
ROOT
ATOM      1  N   UNL     1       1.269   9.691  19.838  0.00  0.00    +0.000 N 
ATOM      2  C   UNL     1       1.487   9.003  18.670  0.00  0.00    +0.000 C 
ATOM      3  O   UNL     1       1.046   9.397  17.593  0.00  0.00    +0.000 OA
ATOM      4  H   UNL     1       1.600   9.281  20.706  0.00  0.00    +0.000 HD
ENDROOT
BRANCH   2   5
ATOM      5  C   UNL     1       2.262   7.785  18.813  0.00  0.00    +0.000 A 
ATOM      6  C   UNL     1       2.228   6.822  19.802  0.00  0.00    +0.000 A 
ATOM      7  C   UNL     1       3.181   5.840  19.448  0.00  0.00    +0.000 A 
ATOM      8  C   UNL     1       3.762   6.245  18.262  0.00  0.00    +0.000 A 
ATOM      9  O   UNL     1       3.198   7.435  17.870  0.00  0.00    +0.000 OA
BRANCH   8  10
ATOM     10  C   UNL     1       4.814   5.689  17.408  0.00  0.00    +0.000 A 
ATOM     11  C   UNL     1       6.052   6.334  17.250  0.00  0.00    +0.000 A 
ATOM     12  C   UNL     1       7.065   5.769  16.464  0.00  0.00    +0.000 A 
ATOM     13  C   UNL     1       6.860   4.554  15.816  0.00  0.00    +0.000 A 
ATOM     14  C   UNL     1       5.635   3.906  15.946  0.00  0.00    +0.000 A 
ATOM     15  C   UNL     1       4.629   4.474  16.731  0.00  0.00    +0.000 A 
ATOM     16  F   UNL     1       3.469   3.804  16.820  0.00  0.00    +0.000 F 
ENDBRANCH   8  10
ENDBRANCH   2   5
BRANCH   1  18
ATOM     17  C   UNL     1       1.477  12.121  19.702  0.00  0.00    +0.000 C 
ATOM     18  C   UNL     1       0.528  10.939  19.896  0.00  0.00    +0.000 C 
BRANCH  18  19
ATOM     19  C   UNL     1      -0.133  11.009  21.231  0.00  0.00    +0.000 A 
ATOM     20  N   UNL     1       0.315  10.438  22.337  0.00  0.00    +0.000 NA
ATOM     21  N   UNL     1      -0.558  10.716  23.357  0.00  0.00    +0.000 NA
ATOM     22  C   UNL     1      -1.533  11.444  22.861  0.00  0.00    +0.000 A 
ATOM     23  C   UNL     1      -2.705  11.996  23.446  0.00  0.00    +0.000 A 
ATOM     24  C   UNL     1      -3.548  12.723  22.688  0.00  0.00    +0.000 A 
ATOM     25  C   UNL     1      -3.284  12.958  21.276  0.00  0.00    +0.000 A 
ATOM     26  C   UNL     1      -2.181  12.426  20.717  0.00  0.00    +0.000 A 
ATOM     27  N   UNL     1      -1.312  11.671  21.508  0.00  0.00    +0.000 N 
ENDBRANCH  18  19
ENDBRANCH   1  18
TORSDOF 4
ENDMDL
MODEL 4
REMARK VINA RESULT:      -8.3      2.121      3.316
REMARK  Name = 
REMARK  5 active torsions:
REMARK  status: ('A' for Active; 'I' for Inactive)
REMARK    1  A    between atoms: C_1  and  C_2
REMARK    2  A    between atoms: C_2  and  N_3
REMARK    3  A    between atoms: C_2  and  C_18
REMARK    4  A    between atoms: C_4  and  C_6
REMARK    5  A    between atoms: C_9  and  C_10
REMARK                            x       y       z     vdW  Elec       q    Type
REMARK                         _______ _______ _______ _____ _____    ______ ____
ROOT
ATOM      1  N   UNL     1       1.225   9.492  19.675  0.00  0.00    +0.000 N 
ATOM      2  C   UNL     1       1.814   8.970  18.550  0.00  0.00    +0.000 C 
ATOM      3  O   UNL     1       1.754   9.539  17.463  0.00  0.00    +0.000 OA
ATOM      4  H   UNL     1       1.250   8.943  20.528  0.00  0.00    +0.000 HD
ENDROOT
BRANCH   2   5
ATOM      5  C   UNL     1       2.495   7.704  18.746  0.00  0.00    +0.000 A 
ATOM      6  C   UNL     1       2.312   6.739  19.716  0.00  0.00    +0.000 A 
ATOM      7  C   UNL     1       3.229   5.700  19.436  0.00  0.00    +0.000 A 
ATOM      8  C   UNL     1       3.938   6.075  18.312  0.00  0.00    +0.000 A 
ATOM      9  O   UNL     1       3.488   7.302  17.886  0.00  0.00    +0.000 OA
BRANCH   8  10
ATOM     10  C   UNL     1       5.026   5.459  17.549  0.00  0.00    +0.000 A 
ATOM     11  C   UNL     1       4.854   5.059  16.213  0.00  0.00    +0.000 A 
ATOM     12  C   UNL     1       5.916   4.509  15.481  0.00  0.00    +0.000 A 
ATOM     13  C   UNL     1       7.166   4.344  16.071  0.00  0.00    +0.000 A 
ATOM     14  C   UNL     1       7.354   4.719  17.398  0.00  0.00    +0.000 A 
ATOM     15  C   UNL     1       6.293   5.266  18.121  0.00  0.00    +0.000 A 
ATOM     16  F   UNL     1       6.532   5.610  19.397  0.00  0.00    +0.000 F 
ENDBRANCH   8  10
ENDBRANCH   2   5
BRANCH   1  18
ATOM     17  C   UNL     1       1.473  11.903  19.377  0.00  0.00    +0.000 C 
ATOM     18  C   UNL     1       0.510  10.756  19.681  0.00  0.00    +0.000 C 
BRANCH  18  19
ATOM     19  C   UNL     1      -0.097  10.923  21.033  0.00  0.00    +0.000 A 
ATOM     20  N   UNL     1       0.377  10.404  22.153  0.00  0.00    +0.000 NA
ATOM     21  N   UNL     1      -0.448  10.767  23.187  0.00  0.00    +0.000 NA
ATOM     22  C   UNL     1      -1.421  11.494  22.684  0.00  0.00    +0.000 A 
ATOM     23  C   UNL     1      -2.554  12.115  23.278  0.00  0.00    +0.000 A 
ATOM     24  C   UNL     1      -3.404  12.821  22.509  0.00  0.00    +0.000 A 
ATOM     25  C   UNL     1      -3.188  12.966  21.076  0.00  0.00    +0.000 A 
ATOM     26  C   UNL     1      -2.122  12.370  20.510  0.00  0.00    +0.000 A 
ATOM     27  N   UNL     1      -1.245  11.635  21.313  0.00  0.00    +0.000 N 
ENDBRANCH  18  19
ENDBRANCH   1  18
TORSDOF 4
ENDMDL
MODEL 5
REMARK VINA RESULT:      -8.2      3.454      7.872
REMARK  Name = 
REMARK  5 active torsions:
REMARK  status: ('A' for Active; 'I' for Inactive)
REMARK    1  A    between atoms: C_1  and  C_2
REMARK    2  A    between atoms: C_2  and  N_3
REMARK    3  A    between atoms: C_2  and  C_18
REMARK    4  A    between atoms: C_4  and  C_6
REMARK    5  A    between atoms: C_9  and  C_10
REMARK                            x       y       z     vdW  Elec       q    Type
REMARK                         _______ _______ _______ _____ _____    ______ ____
ROOT
ATOM      1  N   UNL     1       2.508   7.935  18.362  0.00  0.00    +0.000 N 
ATOM      2  C   UNL     1       1.793   8.482  19.399  0.00  0.00    +0.000 C 
ATOM      3  O   UNL     1       1.806   7.991  20.525  0.00  0.00    +0.000 OA
ATOM      4  H   UNL     1       2.404   8.344  17.439  0.00  0.00    +0.000 HD
ENDROOT
BRANCH   2   5
ATOM      5  C   UNL     1       1.025   9.663  19.057  0.00  0.00    +0.000 A 
ATOM      6  C   UNL     1       1.338  11.000  19.206  0.00  0.00    +0.000 A 
ATOM      7  C   UNL     1       0.242  11.734  18.700  0.00  0.00    +0.000 A 
ATOM      8  C   UNL     1      -0.698  10.818  18.269  0.00  0.00    +0.000 A 
ATOM      9  O   UNL     1      -0.219   9.549  18.484  0.00  0.00    +0.000 OA
BRANCH   8  10
ATOM     10  C   UNL     1      -2.034  10.939  17.681  0.00  0.00    +0.000 A 
ATOM     11  C   UNL     1      -2.307  10.499  16.375  0.00  0.00    +0.000 A 
ATOM     12  C   UNL     1      -3.599  10.582  15.839  0.00  0.00    +0.000 A 
ATOM     13  C   UNL     1      -4.642  11.111  16.596  0.00  0.00    +0.000 A 
ATOM     14  C   UNL     1      -4.391  11.567  17.886  0.00  0.00    +0.000 A 
ATOM     15  C   UNL     1      -3.101  11.482  18.413  0.00  0.00    +0.000 A 
ATOM     16  F   UNL     1      -2.918  11.937  19.663  0.00  0.00    +0.000 F 
ENDBRANCH   8  10
ENDBRANCH   2   5
BRANCH   1  18
ATOM     17  C   UNL     1       4.406   6.729  17.409  0.00  0.00    +0.000 C 
ATOM     18  C   UNL     1       3.347   6.759  18.511  0.00  0.00    +0.000 C 
BRANCH  18  19
ATOM     19  C   UNL     1       2.463   5.561  18.424  0.00  0.00    +0.000 A 
ATOM     20  N   UNL     1       1.826   5.158  17.338  0.00  0.00    +0.000 NA
ATOM     21  N   UNL     1       1.110   4.029  17.644  0.00  0.00    +0.000 NA
ATOM     22  C   UNL     1       1.310   3.762  18.916  0.00  0.00    +0.000 A 
ATOM     23  C   UNL     1       0.813   2.737  19.766  0.00  0.00    +0.000 A 
ATOM     24  C   UNL     1       1.198   2.699  21.056  0.00  0.00    +0.000 A 
ATOM     25  C   UNL     1       2.116   3.687  21.602  0.00  0.00    +0.000 A 
ATOM     26  C   UNL     1       2.579   4.666  20.802  0.00  0.00    +0.000 A 
ATOM     27  N   UNL     1       2.173   4.702  19.465  0.00  0.00    +0.000 N 
ENDBRANCH  18  19
ENDBRANCH   1  18
TORSDOF 4
ENDMDL
MODEL 6
REMARK VINA RESULT:      -8.2      3.997      8.723
REMARK  Name = 
REMARK  5 active torsions:
REMARK  status: ('A' for Active; 'I' for Inactive)
REMARK    1  A    between atoms: C_1  and  C_2
REMARK    2  A    between atoms: C_2  and  N_3
REMARK    3  A    between atoms: C_2  and  C_18
REMARK    4  A    between atoms: C_4  and  C_6
REMARK    5  A    between atoms: C_9  and  C_10
REMARK                            x       y       z     vdW  Elec       q    Type
REMARK                         _______ _______ _______ _____ _____    ______ ____
ROOT
ATOM      1  N   UNL     1       3.613   5.614  19.079  0.00  0.00    +0.000 N 
ATOM      2  C   UNL     1       2.498   6.024  18.390  0.00  0.00    +0.000 C 
ATOM      3  O   UNL     1       1.909   5.282  17.608  0.00  0.00    +0.000 OA
ATOM      4  H   UNL     1       4.095   6.293  19.659  0.00  0.00    +0.000 HD
ENDROOT
BRANCH   2   5
ATOM      5  C   UNL     1       2.085   7.390  18.652  0.00  0.00    +0.000 A 
ATOM      6  C   UNL     1       2.268   8.532  17.899  0.00  0.00    +0.000 A 
ATOM      7  C   UNL     1       1.658   9.591  18.609  0.00  0.00    +0.000 A 
ATOM      8  C   UNL     1       1.132   9.054  19.768  0.00  0.00    +0.000 A 
ATOM      9  O   UNL     1       1.391   7.705  19.795  0.00  0.00    +0.000 OA
BRANCH   8  10
ATOM     10  C   UNL     1       0.414   9.621  20.911  0.00  0.00    +0.000 A 
ATOM     11  C   UNL     1       0.529   9.073  22.200  0.00  0.00    +0.000 A 
ATOM     12  C   UNL     1      -0.130   9.651  23.293  0.00  0.00    +0.000 A 
ATOM     13  C   UNL     1      -0.920  10.784  23.120  0.00  0.00    +0.000 A 
ATOM     14  C   UNL     1      -1.061  11.335  21.850  0.00  0.00    +0.000 A 
ATOM     15  C   UNL     1      -0.402  10.754  20.765  0.00  0.00    +0.000 A 
ATOM     16  F   UNL     1      -0.573  11.329  19.563  0.00  0.00    +0.000 F 
ENDBRANCH   8  10
ENDBRANCH   2   5
BRANCH   1  18
ATOM     17  C   UNL     1       4.313   3.646  20.344  0.00  0.00    +0.000 C 
ATOM     18  C   UNL     1       4.171   4.278  18.960  0.00  0.00    +0.000 C 
BRANCH  18  19
ATOM     19  C   UNL     1       5.501   4.403  18.299  0.00  0.00    +0.000 A 
ATOM     20  N   UNL     1       6.663   4.480  18.927  0.00  0.00    +0.000 NA
ATOM     21  N   UNL     1       7.659   4.591  17.991  0.00  0.00    +0.000 NA
ATOM     22  C   UNL     1       7.094   4.593  16.804  0.00  0.00    +0.000 A 
ATOM     23  C   UNL     1       7.629   4.701  15.492  0.00  0.00    +0.000 A 
ATOM     24  C   UNL     1       6.800   4.666  14.431  0.00  0.00    +0.000 A 
ATOM     25  C   UNL     1       5.362   4.517  14.598  0.00  0.00    +0.000 A 
ATOM     26  C   UNL     1       4.852   4.425  15.840  0.00  0.00    +0.000 A 
ATOM     27  N   UNL     1       5.717   4.466  16.937  0.00  0.00    +0.000 N 
ENDBRANCH  18  19
ENDBRANCH   1  18
TORSDOF 4
ENDMDL
MODEL 7
REMARK VINA RESULT:      -8.2      3.631      7.557
REMARK  Name = 
REMARK  5 active torsions:
REMARK  status: ('A' for Active; 'I' for Inactive)
REMARK    1  A    between atoms: C_1  and  C_2
REMARK    2  A    between atoms: C_2  and  N_3
REMARK    3  A    between atoms: C_2  and  C_18
REMARK    4  A    between atoms: C_4  and  C_6
REMARK    5  A    between atoms: C_9  and  C_10
REMARK                            x       y       z     vdW  Elec       q    Type
REMARK                         _______ _______ _______ _____ _____    ______ ____
ROOT
ATOM      1  N   UNL     1       3.293   5.841  17.958  0.00  0.00    +0.000 N 
ATOM      2  C   UNL     1       3.660   7.163  17.898  0.00  0.00    +0.000 C 
ATOM      3  O   UNL     1       4.812   7.506  17.646  0.00  0.00    +0.000 OA
ATOM      4  H   UNL     1       2.343   5.619  18.237  0.00  0.00    +0.000 HD
ENDROOT
BRANCH   2   5
ATOM      5  C   UNL     1       2.591   8.107  18.164  0.00  0.00    +0.000 A 
ATOM      6  C   UNL     1       1.910   8.943  17.302  0.00  0.00    +0.000 A 
ATOM      7  C   UNL     1       0.959   9.643  18.078  0.00  0.00    +0.000 A 
ATOM      8  C   UNL     1       1.103   9.214  19.383  0.00  0.00    +0.000 A 
ATOM      9  O   UNL     1       2.101   8.270  19.437  0.00  0.00    +0.000 OA
BRANCH   8  10
ATOM     10  C   UNL     1       0.447   9.567  20.643  0.00  0.00    +0.000 A 
ATOM     11  C   UNL     1       0.067   8.588  21.577  0.00  0.00    +0.000 A 
ATOM     12  C   UNL     1      -0.522   8.944  22.798  0.00  0.00    +0.000 A 
ATOM     13  C   UNL     1      -0.748  10.283  23.107  0.00  0.00    +0.000 A 
ATOM     14  C   UNL     1      -0.394  11.268  22.190  0.00  0.00    +0.000 A 
ATOM     15  C   UNL     1       0.192  10.907  20.976  0.00  0.00    +0.000 A 
ATOM     16  F   UNL     1       0.513  11.900  20.131  0.00  0.00    +0.000 F 
ENDBRANCH   8  10
ENDBRANCH   2   5
BRANCH   1  18
ATOM     17  C   UNL     1       3.814   4.000  16.440  0.00  0.00    +0.000 C 
ATOM     18  C   UNL     1       4.219   4.750  17.708  0.00  0.00    +0.000 C 
BRANCH  18  19
ATOM     19  C   UNL     1       4.175   3.844  18.892  0.00  0.00    +0.000 A 
ATOM     20  N   UNL     1       5.190   3.127  19.343  0.00  0.00    +0.000 NA
ATOM     21  N   UNL     1       4.771   2.416  20.439  0.00  0.00    +0.000 NA
ATOM     22  C   UNL     1       3.502   2.698  20.636  0.00  0.00    +0.000 A 
ATOM     23  C   UNL     1       2.562   2.246  21.601  0.00  0.00    +0.000 A 
ATOM     24  C   UNL     1       1.301   2.717  21.573  0.00  0.00    +0.000 A 
ATOM     25  C   UNL     1       0.877   3.686  20.573  0.00  0.00    +0.000 A 
ATOM     26  C   UNL     1       1.763   4.108  19.651  0.00  0.00    +0.000 A 
ATOM     27  N   UNL     1       3.069   3.612  19.683  0.00  0.00    +0.000 N 
ENDBRANCH  18  19
ENDBRANCH   1  18
TORSDOF 4
ENDMDL
MODEL 8
REMARK VINA RESULT:      -8.2      4.600      9.332
REMARK  Name = 
REMARK  5 active torsions:
REMARK  status: ('A' for Active; 'I' for Inactive)
REMARK    1  A    between atoms: C_1  and  C_2
REMARK    2  A    between atoms: C_2  and  N_3
REMARK    3  A    between atoms: C_2  and  C_18
REMARK    4  A    between atoms: C_4  and  C_6
REMARK    5  A    between atoms: C_9  and  C_10
REMARK                            x       y       z     vdW  Elec       q    Type
REMARK                         _______ _______ _______ _____ _____    ______ ____
ROOT
ATOM      1  N   UNL     1       4.173   5.857  17.282  0.00  0.00    +0.000 N 
ATOM      2  C   UNL     1       2.975   5.902  17.950  0.00  0.00    +0.000 C 
ATOM      3  O   UNL     1       2.363   4.881  18.254  0.00  0.00    +0.000 OA
ATOM      4  H   UNL     1       4.598   6.734  16.999  0.00  0.00    +0.000 HD
ENDROOT
BRANCH   2   5
ATOM      5  C   UNL     1       2.493   7.236  18.254  0.00  0.00    +0.000 A 
ATOM      6  C   UNL     1       2.580   8.401  17.518  0.00  0.00    +0.000 A 
ATOM      7  C   UNL     1       1.936   9.409  18.271  0.00  0.00    +0.000 A 
ATOM      8  C   UNL     1       1.488   8.821  19.438  0.00  0.00    +0.000 A 
ATOM      9  O   UNL     1       1.826   7.489  19.428  0.00  0.00    +0.000 OA
BRANCH   8  10
ATOM     10  C   UNL     1       0.782   9.325  20.618  0.00  0.00    +0.000 A 
ATOM     11  C   UNL     1       1.106   8.886  21.913  0.00  0.00    +0.000 A 
ATOM     12  C   UNL     1       0.451   9.407  23.038  0.00  0.00    +0.000 A 
ATOM     13  C   UNL     1      -0.542  10.373  22.890  0.00  0.00    +0.000 A 
ATOM     14  C   UNL     1      -0.888  10.810  21.615  0.00  0.00    +0.000 A 
ATOM     15  C   UNL     1      -0.233  10.287  20.499  0.00  0.00    +0.000 A 
ATOM     16  F   UNL     1      -0.609  10.747  19.295  0.00  0.00    +0.000 F 
ENDBRANCH   8  10
ENDBRANCH   2   5
BRANCH   1  18
ATOM     17  C   UNL     1       5.371   3.911  18.144  0.00  0.00    +0.000 C 
ATOM     18  C   UNL     1       4.823   4.615  16.903  0.00  0.00    +0.000 C 
BRANCH  18  19
ATOM     19  C   UNL     1       5.928   4.954  15.960  0.00  0.00    +0.000 A 
ATOM     20  N   UNL     1       6.953   5.743  16.236  0.00  0.00    +0.000 NA
ATOM     21  N   UNL     1       7.755   5.822  15.126  0.00  0.00    +0.000 NA
ATOM     22  C   UNL     1       7.204   5.090  14.183  0.00  0.00    +0.000 A 
ATOM     23  C   UNL     1       7.582   4.822  12.839  0.00  0.00    +0.000 A 
ATOM     24  C   UNL     1       6.818   4.011  12.083  0.00  0.00    +0.000 A 
ATOM     25  C   UNL     1       5.610   3.398  12.613  0.00  0.00    +0.000 A 
ATOM     26  C   UNL     1       5.244   3.658  13.882  0.00  0.00    +0.000 A 
ATOM     27  N   UNL     1       6.039   4.503  14.661  0.00  0.00    +0.000 N 
ENDBRANCH  18  19
ENDBRANCH   1  18
TORSDOF 4
ENDMDL
MODEL 9
REMARK VINA RESULT:      -8.2      2.161      2.890
REMARK  Name = 
REMARK  5 active torsions:
REMARK  status: ('A' for Active; 'I' for Inactive)
REMARK    1  A    between atoms: C_1  and  C_2
REMARK    2  A    between atoms: C_2  and  N_3
REMARK    3  A    between atoms: C_2  and  C_18
REMARK    4  A    between atoms: C_4  and  C_6
REMARK    5  A    between atoms: C_9  and  C_10
REMARK                            x       y       z     vdW  Elec       q    Type
REMARK                         _______ _______ _______ _____ _____    ______ ____
ROOT
ATOM      1  N   UNL     1       0.408   9.704  18.682  0.00  0.00    +0.000 N 
ATOM      2  C   UNL     1       1.707   9.657  18.240  0.00  0.00    +0.000 C 
ATOM      3  O   UNL     1       2.306  10.667  17.879  0.00  0.00    +0.000 OA
ATOM      4  H   UNL     1      -0.056   8.829  18.903  0.00  0.00    +0.000 HD
ENDROOT
BRANCH   2   5
ATOM      5  C   UNL     1       2.302   8.334  18.226  0.00  0.00    +0.000 A 
ATOM      6  C   UNL     1       3.392   7.858  17.527  0.00  0.00    +0.000 A 
ATOM      7  C   UNL     1       3.548   6.501  17.888  0.00  0.00    +0.000 A 
ATOM      8  C   UNL     1       2.544   6.201  18.788  0.00  0.00    +0.000 A 
ATOM      9  O   UNL     1       1.780   7.324  18.998  0.00  0.00    +0.000 OA
BRANCH   8  10
ATOM     10  C   UNL     1       2.152   4.982  19.499  0.00  0.00    +0.000 A 
ATOM     11  C   UNL     1       2.456   4.791  20.857  0.00  0.00    +0.000 A 
ATOM     12  C   UNL     1       2.039   3.638  21.536  0.00  0.00    +0.000 A 
ATOM     13  C   UNL     1       1.314   2.652  20.871  0.00  0.00    +0.000 A 
ATOM     14  C   UNL     1       1.016   2.814  19.521  0.00  0.00    +0.000 A 
ATOM     15  C   UNL     1       1.435   3.964  18.850  0.00  0.00    +0.000 A 
ATOM     16  F   UNL     1       1.118   4.066  17.550  0.00  0.00    +0.000 F 
ENDBRANCH   8  10
ENDBRANCH   2   5
BRANCH   1  18
ATOM     17  C   UNL     1      -0.579  11.297  20.249  0.00  0.00    +0.000 C 
ATOM     18  C   UNL     1      -0.351  10.938  18.781  0.00  0.00    +0.000 C 
BRANCH  18  19
ATOM     19  C   UNL     1      -1.652  10.724  18.083  0.00  0.00    +0.000 A 
ATOM     20  N   UNL     1      -1.829   9.971  17.011  0.00  0.00    +0.000 NA
ATOM     21  N   UNL     1      -3.153  10.022  16.655  0.00  0.00    +0.000 NA
ATOM     22  C   UNL     1      -3.765  10.814  17.506  0.00  0.00    +0.000 A 
ATOM     23  C   UNL     1      -5.117  11.242  17.609  0.00  0.00    +0.000 A 
ATOM     24  C   UNL     1      -5.477  12.070  18.609  0.00  0.00    +0.000 A 
ATOM     25  C   UNL     1      -4.510  12.538  19.591  0.00  0.00    +0.000 A 
ATOM     26  C   UNL     1      -3.227  12.142  19.488  0.00  0.00    +0.000 A 
ATOM     27  N   UNL     1      -2.859  11.286  18.447  0.00  0.00    +0.000 N 
ENDBRANCH  18  19
ENDBRANCH   1  18
TORSDOF 4
ENDMDL
