MODEL 1
REMARK VINA RESULT:      -8.9      0.000      0.000
REMARK  Name = 
REMARK  7 active torsions:
REMARK  status: ('A' for Active; 'I' for Inactive)
REMARK    1  A    between atoms: C_1  and  S_2
REMARK    2  A    between atoms: S_2  and  N_5
REMARK    3  A    between atoms: C_11  and  C_12
REMARK    4  A    between atoms: N_14  and  C_15
REMARK    5  A    between atoms: C_15  and  C_16
REMARK    6  A    between atoms: C_21  and  C_22
REMARK    7  A    between atoms: C_22  and  N_23
REMARK                            x       y       z     vdW  Elec       q    Type
REMARK                         _______ _______ _______ _____ _____    ______ ____
ROOT
ATOM      1  C   UNL     1       2.263   8.575  18.119  0.00  0.00    +0.000 C 
ATOM      2  O   UNL     1       2.567   8.927  16.982  0.00  0.00    +0.000 OA
ATOM      3  N   UNL     1       2.774   7.428  18.693  0.00  0.00    +0.000 N 
ATOM      4  H   UNL     1       2.502   7.142  19.619  0.00  0.00    +0.000 HD
ENDROOT
BRANCH   1  11
ATOM      5  N   UNL     1      -1.157  11.867  21.450  0.00  0.00    +0.000 N 
ATOM      6  C   UNL     1      -1.059  11.638  22.916  0.00  0.00    +0.000 C 
ATOM      7  C   UNL     1      -1.040  10.150  23.218  0.00  0.00    +0.000 C 
ATOM      8  C   UNL     1       0.170   9.513  22.558  0.00  0.00    +0.000 C 
ATOM      9  C   UNL     1       0.273   9.877  21.097  0.00  0.00    +0.000 A 
ATOM     10  C   UNL     1       1.113   9.096  20.271  0.00  0.00    +0.000 A 
ATOM     11  C   UNL     1       1.306   9.409  18.917  0.00  0.00    +0.000 A 
ATOM     12  C   UNL     1       0.656  10.527  18.403  0.00  0.00    +0.000 A 
ATOM     13  C   UNL     1      -0.151  11.325  19.229  0.00  0.00    +0.000 A 
ATOM     14  C   UNL     1      -0.384  11.005  20.572  0.00  0.00    +0.000 A 
BRANCH   5  16
ATOM     15  C   UNL     1      -3.568  12.659  22.358  0.00  0.00    +0.000 C 
ATOM     16  S   UNL     1      -2.516  12.744  20.923  0.00  0.00    +0.000 S 
ATOM     17  O   UNL     1      -3.219  12.076  19.842  0.00  0.00    +0.000 OA
ATOM     18  O   UNL     1      -2.122  14.128  20.779  0.00  0.00    +0.000 OA
ENDBRANCH   5  16
ENDBRANCH   1  11
BRANCH   3  19
ATOM     19  C   UNL     1       3.532   6.477  17.916  0.00  0.00    +0.000 C 
BRANCH  19  20
ATOM     20  C   UNL     1       3.111   5.040  18.134  0.00  0.00    +0.000 A 
ATOM     21  C   UNL     1       1.738   4.764  18.292  0.00  0.00    +0.000 A 
ATOM     22  C   UNL     1       1.261   3.453  18.311  0.00  0.00    +0.000 A 
ATOM     23  C   UNL     1       2.145   2.394  18.145  0.00  0.00    +0.000 A 
ATOM     24  C   UNL     1       3.512   2.644  18.054  0.00  0.00    +0.000 A 
ATOM     25  C   UNL     1       4.020   3.959  18.105  0.00  0.00    +0.000 A 
BRANCH  25  26
ATOM     26  C   UNL     1       5.524   4.127  18.215  0.00  0.00    +0.000 C 
BRANCH  26  27
ATOM     27  N   UNL     1       6.112   4.479  16.927  0.00  0.00    +0.000 N 
ATOM     28  C   UNL     1       5.918   3.854  15.723  0.00  0.00    +0.000 A 
ATOM     29  C   UNL     1       6.769   4.490  14.850  0.00  0.00    +0.000 A 
ATOM     30  N   UNL     1       7.395   5.542  15.460  0.00  0.00    +0.000 NA
ATOM     31  C   UNL     1       6.945   5.537  16.696  0.00  0.00    +0.000 A 
ENDBRANCH  26  27
ENDBRANCH  25  26
ENDBRANCH  19  20
ENDBRANCH   3  19
TORSDOF 6
ENDMDL
MODEL 2
REMARK VINA RESULT:      -8.8      3.509      9.708
REMARK  Name = 
REMARK  7 active torsions:
REMARK  status: ('A' for Active; 'I' for Inactive)
REMARK    1  A    between atoms: C_1  and  S_2
REMARK    2  A    between atoms: S_2  and  N_5
REMARK    3  A    between atoms: C_11  and  C_12
REMARK    4  A    between atoms: N_14  and  C_15
REMARK    5  A    between atoms: C_15  and  C_16
REMARK    6  A    between atoms: C_21  and  C_22
REMARK    7  A    between atoms: C_22  and  N_23
REMARK                            x       y       z     vdW  Elec       q    Type
REMARK                         _______ _______ _______ _____ _____    ______ ____
ROOT
ATOM      1  C   UNL     1       1.701   9.284  18.322  0.00  0.00    +0.000 C 
ATOM      2  O   UNL     1       2.185  10.088  17.530  0.00  0.00    +0.000 OA
ATOM      3  N   UNL     1       0.560   9.565  19.048  0.00  0.00    +0.000 N 
ATOM      4  H   UNL     1       0.185   8.903  19.708  0.00  0.00    +0.000 HD
ENDROOT
BRANCH   1  11
ATOM      5  N   UNL     1       4.586   4.312  19.084  0.00  0.00    +0.000 N 
ATOM      6  C   UNL     1       5.816   4.137  18.269  0.00  0.00    +0.000 C 
ATOM      7  C   UNL     1       5.565   4.567  16.834  0.00  0.00    +0.000 C 
ATOM      8  C   UNL     1       5.181   6.036  16.804  0.00  0.00    +0.000 C 
ATOM      9  C   UNL     1       4.071   6.349  17.776  0.00  0.00    +0.000 A 
ATOM     10  C   UNL     1       3.365   7.563  17.616  0.00  0.00    +0.000 A 
ATOM     11  C   UNL     1       2.361   7.952  18.516  0.00  0.00    +0.000 A 
ATOM     12  C   UNL     1       2.082   7.112  19.590  0.00  0.00    +0.000 A 
ATOM     13  C   UNL     1       2.805   5.922  19.772  0.00  0.00    +0.000 A 
ATOM     14  C   UNL     1       3.783   5.503  18.863  0.00  0.00    +0.000 A 
BRANCH   5  16
ATOM     15  C   UNL     1       3.225   2.084  18.412  0.00  0.00    +0.000 C 
ATOM     16  S   UNL     1       3.968   2.902  19.809  0.00  0.00    +0.000 S 
ATOM     17  O   UNL     1       2.900   3.187  20.750  0.00  0.00    +0.000 OA
ATOM     18  O   UNL     1       5.090   2.086  20.219  0.00  0.00    +0.000 OA
ENDBRANCH   5  16
ENDBRANCH   1  11
BRANCH   3  19
ATOM     19  C   UNL     1      -0.006  10.892  19.067  0.00  0.00    +0.000 C 
BRANCH  19  20
ATOM     20  C   UNL     1      -1.396  10.970  18.476  0.00  0.00    +0.000 A 
ATOM     21  C   UNL     1      -1.715  10.109  17.406  0.00  0.00    +0.000 A 
ATOM     22  C   UNL     1      -3.023   9.993  16.936  0.00  0.00    +0.000 A 
ATOM     23  C   UNL     1      -4.043  10.715  17.544  0.00  0.00    +0.000 A 
ATOM     24  C   UNL     1      -3.738  11.619  18.558  0.00  0.00    +0.000 A 
ATOM     25  C   UNL     1      -2.410  11.804  18.999  0.00  0.00    +0.000 A 
BRANCH  25  26
ATOM     26  C   UNL     1      -2.139  12.954  19.950  0.00  0.00    +0.000 C 
BRANCH  26  27
ATOM     27  N   UNL     1      -2.400  12.569  21.333  0.00  0.00    +0.000 N 
ATOM     28  C   UNL     1      -1.520  12.013  22.224  0.00  0.00    +0.000 A 
ATOM     29  C   UNL     1      -2.271  11.740  23.343  0.00  0.00    +0.000 A 
ATOM     30  N   UNL     1      -3.551  12.202  23.195  0.00  0.00    +0.000 NA
ATOM     31  C   UNL     1      -3.584  12.736  21.993  0.00  0.00    +0.000 A 
ENDBRANCH  26  27
ENDBRANCH  25  26
ENDBRANCH  19  20
ENDBRANCH   3  19
TORSDOF 6
ENDMDL
MODEL 3
REMARK VINA RESULT:      -8.6      0.955      1.001
REMARK  Name = 
REMARK  7 active torsions:
REMARK  status: ('A' for Active; 'I' for Inactive)
REMARK    1  A    between atoms: C_1  and  S_2
REMARK    2  A    between atoms: S_2  and  N_5
REMARK    3  A    between atoms: C_11  and  C_12
REMARK    4  A    between atoms: N_14  and  C_15
REMARK    5  A    between atoms: C_15  and  C_16
REMARK    6  A    between atoms: C_21  and  C_22
REMARK    7  A    between atoms: C_22  and  N_23
REMARK                            x       y       z     vdW  Elec       q    Type
REMARK                         _______ _______ _______ _____ _____    ______ ____
ROOT
ATOM      1  C   UNL     1       1.918   8.737  18.266  0.00  0.00    +0.000 C 
ATOM      2  O   UNL     1       2.333   9.069  17.159  0.00  0.00    +0.000 OA
ATOM      3  N   UNL     1       2.246   7.525  18.839  0.00  0.00    +0.000 N 
ATOM      4  H   UNL     1       1.883   7.258  19.740  0.00  0.00    +0.000 HD
ENDROOT
BRANCH   1  11
ATOM      5  N   UNL     1      -1.257  12.392  21.458  0.00  0.00    +0.000 N 
ATOM      6  C   UNL     1      -1.200  12.195  22.930  0.00  0.00    +0.000 C 
ATOM      7  C   UNL     1      -1.311  10.719  23.270  0.00  0.00    +0.000 C 
ATOM      8  C   UNL     1      -0.150   9.965  22.645  0.00  0.00    +0.000 C 
ATOM      9  C   UNL     1       0.004  10.280  21.178  0.00  0.00    +0.000 A 
ATOM     10  C   UNL     1       0.786   9.410  20.386  0.00  0.00    +0.000 A 
ATOM     11  C   UNL     1       1.024   9.669  19.028  0.00  0.00    +0.000 A 
ATOM     12  C   UNL     1       0.478  10.824  18.475  0.00  0.00    +0.000 A 
ATOM     13  C   UNL     1      -0.270  11.709  19.267  0.00  0.00    +0.000 A 
ATOM     14  C   UNL     1      -0.548  11.445  20.614  0.00  0.00    +0.000 A 
BRANCH   5  16
ATOM     15  C   UNL     1      -3.420  13.701  22.393  0.00  0.00    +0.000 C 
ATOM     16  S   UNL     1      -2.530  13.366  20.887  0.00  0.00    +0.000 S 
ATOM     17  O   UNL     1      -3.432  12.639  20.013  0.00  0.00    +0.000 OA
ATOM     18  O   UNL     1      -1.963  14.625  20.451  0.00  0.00    +0.000 OA
ENDBRANCH   5  16
ENDBRANCH   1  11
BRANCH   3  19
ATOM     19  C   UNL     1       2.926   6.501  18.084  0.00  0.00    +0.000 C 
BRANCH  19  20
ATOM     20  C   UNL     1       3.003   5.168  18.796  0.00  0.00    +0.000 A 
ATOM     21  C   UNL     1       1.801   4.479  19.053  0.00  0.00    +0.000 A 
ATOM     22  C   UNL     1       1.806   3.170  19.535  0.00  0.00    +0.000 A 
ATOM     23  C   UNL     1       3.014   2.515  19.744  0.00  0.00    +0.000 A 
ATOM     24  C   UNL     1       4.211   3.201  19.559  0.00  0.00    +0.000 A 
ATOM     25  C   UNL     1       4.226   4.548  19.140  0.00  0.00    +0.000 A 
BRANCH  25  26
ATOM     26  C   UNL     1       5.555   5.280  19.171  0.00  0.00    +0.000 C 
BRANCH  26  27
ATOM     27  N   UNL     1       6.297   5.078  17.932  0.00  0.00    +0.000 N 
ATOM     28  C   UNL     1       5.894   5.385  16.659  0.00  0.00    +0.000 A 
ATOM     29  C   UNL     1       6.893   4.906  15.844  0.00  0.00    +0.000 A 
ATOM     30  N   UNL     1       7.931   4.412  16.585  0.00  0.00    +0.000 NA
ATOM     31  C   UNL     1       7.562   4.570  17.838  0.00  0.00    +0.000 A 
ENDBRANCH  26  27
ENDBRANCH  25  26
ENDBRANCH  19  20
ENDBRANCH   3  19
TORSDOF 6
ENDMDL
MODEL 4
REMARK VINA RESULT:      -8.5      3.307      9.870
REMARK  Name = 
REMARK  7 active torsions:
REMARK  status: ('A' for Active; 'I' for Inactive)
REMARK    1  A    between atoms: C_1  and  S_2
REMARK    2  A    between atoms: S_2  and  N_5
REMARK    3  A    between atoms: C_11  and  C_12
REMARK    4  A    between atoms: N_14  and  C_15
REMARK    5  A    between atoms: C_15  and  C_16
REMARK    6  A    between atoms: C_21  and  C_22
REMARK    7  A    between atoms: C_22  and  N_23
REMARK                            x       y       z     vdW  Elec       q    Type
REMARK                         _______ _______ _______ _____ _____    ______ ____
ROOT
ATOM      1  C   UNL     1       1.198   8.845  19.983  0.00  0.00    +0.000 C 
ATOM      2  O   UNL     1       0.833   8.531  21.112  0.00  0.00    +0.000 OA
ATOM      3  N   UNL     1       0.757   9.999  19.364  0.00  0.00    +0.000 N 
ATOM      4  H   UNL     1       1.050  10.234  18.429  0.00  0.00    +0.000 HD
ENDROOT
BRANCH   1  11
ATOM      5  N   UNL     1       4.609   5.145  17.103  0.00  0.00    +0.000 N 
ATOM      6  C   UNL     1       4.591   3.735  17.574  0.00  0.00    +0.000 C 
ATOM      7  C   UNL     1       4.656   3.684  19.091  0.00  0.00    +0.000 C 
ATOM      8  C   UNL     1       3.447   4.395  19.675  0.00  0.00    +0.000 C 
ATOM      9  C   UNL     1       3.260   5.769  19.082  0.00  0.00    +0.000 A 
ATOM     10  C   UNL     1       2.421   6.681  19.761  0.00  0.00    +0.000 A 
ATOM     11  C   UNL     1       2.150   7.956  19.241  0.00  0.00    +0.000 A 
ATOM     12  C   UNL     1       2.723   8.302  18.020  0.00  0.00    +0.000 A 
ATOM     13  C   UNL     1       3.529   7.385  17.326  0.00  0.00    +0.000 A 
ATOM     14  C   UNL     1       3.838   6.124  17.849  0.00  0.00    +0.000 A 
BRANCH   5  16
ATOM     15  C   UNL     1       6.319   3.992  15.367  0.00  0.00    +0.000 C 
ATOM     16  S   UNL     1       5.900   5.570  16.079  0.00  0.00    +0.000 S 
ATOM     17  O   UNL     1       7.064   6.024  16.818  0.00  0.00    +0.000 OA
ATOM     18  O   UNL     1       5.367   6.381  15.007  0.00  0.00    +0.000 OA
ENDBRANCH   5  16
ENDBRANCH   1  11
BRANCH   3  19
ATOM     19  C   UNL     1      -0.310  10.789  19.928  0.00  0.00    +0.000 C 
BRANCH  19  20
ATOM     20  C   UNL     1      -1.513  10.926  19.020  0.00  0.00    +0.000 A 
ATOM     21  C   UNL     1      -1.652  10.012  17.956  0.00  0.00    +0.000 A 
ATOM     22  C   UNL     1      -2.821   9.960  17.196  0.00  0.00    +0.000 A 
ATOM     23  C   UNL     1      -3.882  10.802  17.503  0.00  0.00    +0.000 A 
ATOM     24  C   UNL     1      -3.739  11.756  18.507  0.00  0.00    +0.000 A 
ATOM     25  C   UNL     1      -2.539  11.872  19.239  0.00  0.00    +0.000 A 
BRANCH  25  26
ATOM     26  C   UNL     1      -2.391  13.069  20.160  0.00  0.00    +0.000 C 
BRANCH  26  27
ATOM     27  N   UNL     1      -2.903  12.775  21.494  0.00  0.00    +0.000 N 
ATOM     28  C   UNL     1      -2.179  12.465  22.616  0.00  0.00    +0.000 A 
ATOM     29  C   UNL     1      -3.119  12.171  23.576  0.00  0.00    +0.000 A 
ATOM     30  N   UNL     1      -4.384  12.390  23.103  0.00  0.00    +0.000 NA
ATOM     31  C   UNL     1      -4.219  12.795  21.862  0.00  0.00    +0.000 A 
ENDBRANCH  26  27
ENDBRANCH  25  26
ENDBRANCH  19  20
ENDBRANCH   3  19
TORSDOF 6
ENDMDL
MODEL 5
REMARK VINA RESULT:      -8.5      1.417      2.126
REMARK  Name = 
REMARK  7 active torsions:
REMARK  status: ('A' for Active; 'I' for Inactive)
REMARK    1  A    between atoms: C_1  and  S_2
REMARK    2  A    between atoms: S_2  and  N_5
REMARK    3  A    between atoms: C_11  and  C_12
REMARK    4  A    between atoms: N_14  and  C_15
REMARK    5  A    between atoms: C_15  and  C_16
REMARK    6  A    between atoms: C_21  and  C_22
REMARK    7  A    between atoms: C_22  and  N_23
REMARK                            x       y       z     vdW  Elec       q    Type
REMARK                         _______ _______ _______ _____ _____    ______ ____
ROOT
ATOM      1  C   UNL     1       2.136   8.371  18.214  0.00  0.00    +0.000 C 
ATOM      2  O   UNL     1       2.564   8.793  17.143  0.00  0.00    +0.000 OA
ATOM      3  N   UNL     1       2.442   7.107  18.679  0.00  0.00    +0.000 N 
ATOM      4  H   UNL     1       2.069   6.767  19.551  0.00  0.00    +0.000 HD
ENDROOT
BRANCH   1  11
ATOM      5  N   UNL     1      -1.544  11.731  21.179  0.00  0.00    +0.000 N 
ATOM      6  C   UNL     1      -2.234  12.793  20.400  0.00  0.00    +0.000 C 
ATOM      7  C   UNL     1      -1.250  13.501  19.485  0.00  0.00    +0.000 C 
ATOM      8  C   UNL     1      -0.659  12.502  18.505  0.00  0.00    +0.000 C 
ATOM      9  C   UNL     1      -0.125  11.275  19.202  0.00  0.00    +0.000 A 
ATOM     10  C   UNL     1       0.761  10.435  18.492  0.00  0.00    +0.000 A 
ATOM     11  C   UNL     1       1.252   9.246  19.051  0.00  0.00    +0.000 A 
ATOM     12  C   UNL     1       0.829   8.900  20.332  0.00  0.00    +0.000 A 
ATOM     13  C   UNL     1      -0.079   9.714  21.027  0.00  0.00    +0.000 A 
ATOM     14  C   UNL     1      -0.548  10.922  20.497  0.00  0.00    +0.000 A 
BRANCH   5  16
ATOM     15  C   UNL     1      -1.038  13.571  23.083  0.00  0.00    +0.000 C 
ATOM     16  S   UNL     1      -1.602  11.894  22.871  0.00  0.00    +0.000 S 
ATOM     17  O   UNL     1      -0.642  11.036  23.542  0.00  0.00    +0.000 OA
ATOM     18  O   UNL     1      -2.992  11.870  23.272  0.00  0.00    +0.000 OA
ENDBRANCH   5  16
ENDBRANCH   1  11
BRANCH   3  19
ATOM     19  C   UNL     1       3.111   6.143  17.839  0.00  0.00    +0.000 C 
BRANCH  19  20
ATOM     20  C   UNL     1       2.868   4.707  18.248  0.00  0.00    +0.000 A 
ATOM     21  C   UNL     1       1.539   4.238  18.275  0.00  0.00    +0.000 A 
ATOM     22  C   UNL     1       1.254   2.885  18.459  0.00  0.00    +0.000 A 
ATOM     23  C   UNL     1       2.291   1.971  18.593  0.00  0.00    +0.000 A 
ATOM     24  C   UNL     1       3.608   2.424  18.635  0.00  0.00    +0.000 A 
ATOM     25  C   UNL     1       3.913   3.796  18.522  0.00  0.00    +0.000 A 
BRANCH  25  26
ATOM     26  C   UNL     1       5.344   4.223  18.793  0.00  0.00    +0.000 C 
BRANCH  26  27
ATOM     27  N   UNL     1       6.047   4.529  17.552  0.00  0.00    +0.000 N 
ATOM     28  C   UNL     1       5.714   4.130  16.284  0.00  0.00    +0.000 A 
ATOM     29  C   UNL     1       6.740   4.581  15.487  0.00  0.00    +0.000 A 
ATOM     30  N   UNL     1       7.630   5.324  16.213  0.00  0.00    +0.000 NA
ATOM     31  C   UNL     1       7.162   5.312  17.443  0.00  0.00    +0.000 A 
ENDBRANCH  26  27
ENDBRANCH  25  26
ENDBRANCH  19  20
ENDBRANCH   3  19
TORSDOF 6
ENDMDL
MODEL 6
REMARK VINA RESULT:      -8.5      2.082      3.554
REMARK  Name = 
REMARK  7 active torsions:
REMARK  status: ('A' for Active; 'I' for Inactive)
REMARK    1  A    between atoms: C_1  and  S_2
REMARK    2  A    between atoms: S_2  and  N_5
REMARK    3  A    between atoms: C_11  and  C_12
REMARK    4  A    between atoms: N_14  and  C_15
REMARK    5  A    between atoms: C_15  and  C_16
REMARK    6  A    between atoms: C_21  and  C_22
REMARK    7  A    between atoms: C_22  and  N_23
REMARK                            x       y       z     vdW  Elec       q    Type
REMARK                         _______ _______ _______ _____ _____    ______ ____
ROOT
ATOM      1  C   UNL     1       2.120   6.545  20.266  0.00  0.00    +0.000 C 
ATOM      2  O   UNL     1       1.542   5.583  20.766  0.00  0.00    +0.000 OA
ATOM      3  N   UNL     1       3.353   6.424  19.657  0.00  0.00    +0.000 N 
ATOM      4  H   UNL     1       3.823   7.226  19.268  0.00  0.00    +0.000 HD
ENDROOT
BRANCH   1  11
ATOM      5  N   UNL     1      -0.154  11.857  20.750  0.00  0.00    +0.000 N 
ATOM      6  C   UNL     1      -0.508  12.296  22.125  0.00  0.00    +0.000 C 
ATOM      7  C   UNL     1      -1.220  11.179  22.869  0.00  0.00    +0.000 C 
ATOM      8  C   UNL     1      -0.300   9.974  22.977  0.00  0.00    +0.000 C 
ATOM      9  C   UNL     1       0.285   9.590  21.641  0.00  0.00    +0.000 A 
ATOM     10  C   UNL     1       0.858   8.305  21.506  0.00  0.00    +0.000 A 
ATOM     11  C   UNL     1       1.475   7.898  20.314  0.00  0.00    +0.000 A 
ATOM     12  C   UNL     1       1.525   8.804  19.258  0.00  0.00    +0.000 A 
ATOM     13  C   UNL     1       0.989  10.094  19.400  0.00  0.00    +0.000 A 
ATOM     14  C   UNL     1       0.337  10.501  20.570  0.00  0.00    +0.000 A 
BRANCH   5  16
ATOM     15  C   UNL     1      -1.613  14.094  20.381  0.00  0.00    +0.000 C 
ATOM     16  S   UNL     1      -0.823  12.774  19.482  0.00  0.00    +0.000 S 
ATOM     17  O   UNL     1      -1.869  12.058  18.774  0.00  0.00    +0.000 OA
ATOM     18  O   UNL     1       0.268  13.371  18.743  0.00  0.00    +0.000 OA
ENDBRANCH   5  16
ENDBRANCH   1  11
BRANCH   3  19
ATOM     19  C   UNL     1       4.119   5.206  19.755  0.00  0.00    +0.000 C 
BRANCH  19  20
ATOM     20  C   UNL     1       5.238   5.107  18.741  0.00  0.00    +0.000 A 
ATOM     21  C   UNL     1       6.529   5.513  19.131  0.00  0.00    +0.000 A 
ATOM     22  C   UNL     1       7.638   5.278  18.318  0.00  0.00    +0.000 A 
ATOM     23  C   UNL     1       7.481   4.608  17.111  0.00  0.00    +0.000 A 
ATOM     24  C   UNL     1       6.205   4.258  16.678  0.00  0.00    +0.000 A 
ATOM     25  C   UNL     1       5.063   4.551  17.453  0.00  0.00    +0.000 A 
BRANCH  25  26
ATOM     26  C   UNL     1       3.704   4.331  16.815  0.00  0.00    +0.000 C 
BRANCH  26  27
ATOM     27  N   UNL     1       2.916   3.364  17.571  0.00  0.00    +0.000 N 
ATOM     28  C   UNL     1       1.614   3.486  17.979  0.00  0.00    +0.000 A 
ATOM     29  C   UNL     1       1.372   2.368  18.742  0.00  0.00    +0.000 A 
ATOM     30  N   UNL     1       2.451   1.526  18.727  0.00  0.00    +0.000 NA
ATOM     31  C   UNL     1       3.346   2.132  17.977  0.00  0.00    +0.000 A 
ENDBRANCH  26  27
ENDBRANCH  25  26
ENDBRANCH  19  20
ENDBRANCH   3  19
TORSDOF 6
ENDMDL
MODEL 7
REMARK VINA RESULT:      -8.5      3.568      9.712
REMARK  Name = 
REMARK  7 active torsions:
REMARK  status: ('A' for Active; 'I' for Inactive)
REMARK    1  A    between atoms: C_1  and  S_2
REMARK    2  A    between atoms: S_2  and  N_5
REMARK    3  A    between atoms: C_11  and  C_12
REMARK    4  A    between atoms: N_14  and  C_15
REMARK    5  A    between atoms: C_15  and  C_16
REMARK    6  A    between atoms: C_21  and  C_22
REMARK    7  A    between atoms: C_22  and  N_23
REMARK                            x       y       z     vdW  Elec       q    Type
REMARK                         _______ _______ _______ _____ _____    ______ ____
ROOT
ATOM      1  C   UNL     1       1.704   9.169  18.541  0.00  0.00    +0.000 C 
ATOM      2  O   UNL     1       2.044   9.941  17.648  0.00  0.00    +0.000 OA
ATOM      3  N   UNL     1       0.728   9.497  19.462  0.00  0.00    +0.000 N 
ATOM      4  H   UNL     1       0.473   8.861  20.201  0.00  0.00    +0.000 HD
ENDROOT
BRANCH   1  11
ATOM      5  N   UNL     1       4.587   4.153  18.932  0.00  0.00    +0.000 N 
ATOM      6  C   UNL     1       5.737   3.985  18.005  0.00  0.00    +0.000 C 
ATOM      7  C   UNL     1       5.363   4.450  16.609  0.00  0.00    +0.000 C 
ATOM      8  C   UNL     1       4.995   5.924  16.645  0.00  0.00    +0.000 C 
ATOM      9  C   UNL     1       3.980   6.225  17.720  0.00  0.00    +0.000 A 
ATOM     10  C   UNL     1       3.278   7.449  17.652  0.00  0.00    +0.000 A 
ATOM     11  C   UNL     1       2.363   7.827  18.646  0.00  0.00    +0.000 A 
ATOM     12  C   UNL     1       2.172   6.965  19.722  0.00  0.00    +0.000 A 
ATOM     13  C   UNL     1       2.894   5.765  19.812  0.00  0.00    +0.000 A 
ATOM     14  C   UNL     1       3.782   5.357  18.809  0.00  0.00    +0.000 A 
BRANCH   5  16
ATOM     15  C   UNL     1       3.509   1.774  18.267  0.00  0.00    +0.000 C 
ATOM     16  S   UNL     1       4.020   2.733  19.678  0.00  0.00    +0.000 S 
ATOM     17  O   UNL     1       2.835   2.968  20.483  0.00  0.00    +0.000 OA
ATOM     18  O   UNL     1       5.158   2.050  20.254  0.00  0.00    +0.000 OA
ENDBRANCH   5  16
ENDBRANCH   1  11
BRANCH   3  19
ATOM     19  C   UNL     1       0.202  10.838  19.549  0.00  0.00    +0.000 C 
BRANCH  19  20
ATOM     20  C   UNL     1      -0.650  11.080  20.776  0.00  0.00    +0.000 A 
ATOM     21  C   UNL     1      -0.427  10.274  21.911  0.00  0.00    +0.000 A 
ATOM     22  C   UNL     1      -1.040  10.560  23.131  0.00  0.00    +0.000 A 
ATOM     23  C   UNL     1      -1.866  11.671  23.247  0.00  0.00    +0.000 A 
ATOM     24  C   UNL     1      -2.150  12.440  22.121  0.00  0.00    +0.000 A 
ATOM     25  C   UNL     1      -1.596  12.126  20.862  0.00  0.00    +0.000 A 
BRANCH  25  26
ATOM     26  C   UNL     1      -2.123  12.878  19.655  0.00  0.00    +0.000 C 
BRANCH  26  27
ATOM     27  N   UNL     1      -3.237  12.169  19.035  0.00  0.00    +0.000 N 
ATOM     28  C   UNL     1      -4.561  12.230  19.383  0.00  0.00    +0.000 A 
ATOM     29  C   UNL     1      -5.184  11.306  18.578  0.00  0.00    +0.000 A 
ATOM     30  N   UNL     1      -4.300  10.762  17.687  0.00  0.00    +0.000 NA
ATOM     31  C   UNL     1      -3.147  11.334  17.958  0.00  0.00    +0.000 A 
ENDBRANCH  26  27
ENDBRANCH  25  26
ENDBRANCH  19  20
ENDBRANCH   3  19
TORSDOF 6
ENDMDL
MODEL 8
REMARK VINA RESULT:      -8.5      3.631      9.645
REMARK  Name = 
REMARK  7 active torsions:
REMARK  status: ('A' for Active; 'I' for Inactive)
REMARK    1  A    between atoms: C_1  and  S_2
REMARK    2  A    between atoms: S_2  and  N_5
REMARK    3  A    between atoms: C_11  and  C_12
REMARK    4  A    between atoms: N_14  and  C_15
REMARK    5  A    between atoms: C_15  and  C_16
REMARK    6  A    between atoms: C_21  and  C_22
REMARK    7  A    between atoms: C_22  and  N_23
REMARK                            x       y       z     vdW  Elec       q    Type
REMARK                         _______ _______ _______ _____ _____    ______ ____
ROOT
ATOM      1  C   UNL     1       1.078   9.331  20.023  0.00  0.00    +0.000 C 
ATOM      2  O   UNL     1       1.095   9.847  21.137  0.00  0.00    +0.000 OA
ATOM      3  N   UNL     1       0.570   9.986  18.918  0.00  0.00    +0.000 N 
ATOM      4  H   UNL     1       0.545   9.543  18.014  0.00  0.00    +0.000 HD
ENDROOT
BRANCH   1  11
ATOM      5  N   UNL     1       3.523   4.117  19.338  0.00  0.00    +0.000 N 
ATOM      6  C   UNL     1       4.633   4.039  18.353  0.00  0.00    +0.000 C 
ATOM      7  C   UNL     1       4.269   4.794  17.086  0.00  0.00    +0.000 C 
ATOM      8  C   UNL     1       4.032   6.257  17.417  0.00  0.00    +0.000 C 
ATOM      9  C   UNL     1       3.071   6.426  18.568  0.00  0.00    +0.000 A 
ATOM     10  C   UNL     1       2.476   7.693  18.761  0.00  0.00    +0.000 A 
ATOM     11  C   UNL     1       1.620   7.944  19.844  0.00  0.00    +0.000 A 
ATOM     12  C   UNL     1       1.379   6.909  20.743  0.00  0.00    +0.000 A 
ATOM     13  C   UNL     1       1.996   5.660  20.574  0.00  0.00    +0.000 A 
ATOM     14  C   UNL     1       2.822   5.383  19.479  0.00  0.00    +0.000 A 
BRANCH   5  16
ATOM     15  C   UNL     1       3.707   1.493  18.750  0.00  0.00    +0.000 C 
ATOM     16  S   UNL     1       2.851   2.630  19.821  0.00  0.00    +0.000 S 
ATOM     17  O   UNL     1       1.439   2.532  19.502  0.00  0.00    +0.000 OA
ATOM     18  O   UNL     1       3.306   2.355  21.167  0.00  0.00    +0.000 OA
ENDBRANCH   5  16
ENDBRANCH   1  11
BRANCH   3  19
ATOM     19  C   UNL     1      -0.150  11.229  19.053  0.00  0.00    +0.000 C 
BRANCH  19  20
ATOM     20  C   UNL     1      -1.554  11.183  18.491  0.00  0.00    +0.000 A 
ATOM     21  C   UNL     1      -1.814  10.308  17.417  0.00  0.00    +0.000 A 
ATOM     22  C   UNL     1      -3.116  10.075  16.973  0.00  0.00    +0.000 A 
ATOM     23  C   UNL     1      -4.185  10.693  17.610  0.00  0.00    +0.000 A 
ATOM     24  C   UNL     1      -3.943  11.611  18.628  0.00  0.00    +0.000 A 
ATOM     25  C   UNL     1      -2.630  11.914  19.045  0.00  0.00    +0.000 A 
BRANCH  25  26
ATOM     26  C   UNL     1      -2.446  13.075  20.003  0.00  0.00    +0.000 C 
BRANCH  26  27
ATOM     27  N   UNL     1      -2.614  12.648  21.388  0.00  0.00    +0.000 N 
ATOM     28  C   UNL     1      -1.660  12.124  22.221  0.00  0.00    +0.000 A 
ATOM     29  C   UNL     1      -2.336  11.786  23.369  0.00  0.00    +0.000 A 
ATOM     30  N   UNL     1      -3.645  12.179  23.297  0.00  0.00    +0.000 NA
ATOM     31  C   UNL     1      -3.770  12.735  22.112  0.00  0.00    +0.000 A 
ENDBRANCH  26  27
ENDBRANCH  25  26
ENDBRANCH  19  20
ENDBRANCH   3  19
TORSDOF 6
ENDMDL
MODEL 9
REMARK VINA RESULT:      -8.4      3.328      9.870
REMARK  Name = 
REMARK  7 active torsions:
REMARK  status: ('A' for Active; 'I' for Inactive)
REMARK    1  A    between atoms: C_1  and  S_2
REMARK    2  A    between atoms: S_2  and  N_5
REMARK    3  A    between atoms: C_11  and  C_12
REMARK    4  A    between atoms: N_14  and  C_15
REMARK    5  A    between atoms: C_15  and  C_16
REMARK    6  A    between atoms: C_21  and  C_22
REMARK    7  A    between atoms: C_22  and  N_23
REMARK                            x       y       z     vdW  Elec       q    Type
REMARK                         _______ _______ _______ _____ _____    ______ ____
ROOT
ATOM      1  C   UNL     1       1.328   8.887  19.862  0.00  0.00    +0.000 C 
ATOM      2  O   UNL     1       0.901   8.611  20.980  0.00  0.00    +0.000 OA
ATOM      3  N   UNL     1       1.012  10.072  19.228  0.00  0.00    +0.000 N 
ATOM      4  H   UNL     1       1.355  10.276  18.303  0.00  0.00    +0.000 HD
ENDROOT
BRANCH   1  11
ATOM      5  N   UNL     1       4.491   4.872  17.123  0.00  0.00    +0.000 N 
ATOM      6  C   UNL     1       4.403   3.489  17.662  0.00  0.00    +0.000 C 
ATOM      7  C   UNL     1       4.488   3.507  19.178  0.00  0.00    +0.000 C 
ATOM      8  C   UNL     1       3.329   4.310  19.743  0.00  0.00    +0.000 C 
ATOM      9  C   UNL     1       3.207   5.663  19.086  0.00  0.00    +0.000 A 
ATOM     10  C   UNL     1       2.429   6.651  19.730  0.00  0.00    +0.000 A 
ATOM     11  C   UNL     1       2.220   7.912  19.153  0.00  0.00    +0.000 A 
ATOM     12  C   UNL     1       2.791   8.167  17.909  0.00  0.00    +0.000 A 
ATOM     13  C   UNL     1       3.536   7.176  17.251  0.00  0.00    +0.000 A 
ATOM     14  C   UNL     1       3.785   5.927  17.830  0.00  0.00    +0.000 A 
BRANCH   5  16
ATOM     15  C   UNL     1       7.031   5.771  17.192  0.00  0.00    +0.000 C 
ATOM     16  S   UNL     1       5.787   5.176  16.064  0.00  0.00    +0.000 S 
ATOM     17  O   UNL     1       5.502   6.258  15.139  0.00  0.00    +0.000 OA
ATOM     18  O   UNL     1       6.257   3.903  15.561  0.00  0.00    +0.000 OA
ENDBRANCH   5  16
ENDBRANCH   1  11
BRANCH   3  19
ATOM     19  C   UNL     1       0.003  10.957  19.757  0.00  0.00    +0.000 C 
BRANCH  19  20
ATOM     20  C   UNL     1      -1.254  11.018  18.918  0.00  0.00    +0.000 A 
ATOM     21  C   UNL     1      -1.380  10.119  17.840  0.00  0.00    +0.000 A 
ATOM     22  C   UNL     1      -2.581   9.991  17.142  0.00  0.00    +0.000 A 
ATOM     23  C   UNL     1      -3.687  10.739  17.525  0.00  0.00    +0.000 A 
ATOM     24  C   UNL     1      -3.563  11.680  18.545  0.00  0.00    +0.000 A 
ATOM     25  C   UNL     1      -2.338  11.875  19.215  0.00  0.00    +0.000 A 
BRANCH  25  26
ATOM     26  C   UNL     1      -2.233  13.060  20.157  0.00  0.00    +0.000 C 
BRANCH  26  27
ATOM     27  N   UNL     1      -2.967  12.818  21.394  0.00  0.00    +0.000 N 
ATOM     28  C   UNL     1      -4.225  13.254  21.716  0.00  0.00    +0.000 A 
ATOM     29  C   UNL     1      -4.416  12.859  23.020  0.00  0.00    +0.000 A 
ATOM     30  N   UNL     1      -3.358  12.114  23.463  0.00  0.00    +0.000 NA
ATOM     31  C   UNL     1      -2.523  12.069  22.447  0.00  0.00    +0.000 A 
ENDBRANCH  26  27
ENDBRANCH  25  26
ENDBRANCH  19  20
ENDBRANCH   3  19
TORSDOF 6
ENDMDL
