MODEL 1
REMARK VINA RESULT:     -10.2      0.000      0.000
REMARK  Name = 
REMARK  4 active torsions:
REMARK  status: ('A' for Active; 'I' for Inactive)
REMARK    1  A    between atoms: C_1  and  C_2
REMARK    2  A    between atoms: C_2  and  C_3
REMARK    3  A    between atoms: C_7  and  N_8
REMARK    4  A    between atoms: C_9  and  C_11
REMARK                            x       y       z     vdW  Elec       q    Type
REMARK                         _______ _______ _______ _____ _____    ______ ____
ROOT
ATOM      1  C   UNL     1       5.088   5.595  17.224  0.00  0.00    +0.000 A 
ATOM      2  C   UNL     1       4.490   4.342  16.997  0.00  0.00    +0.000 A 
ATOM      3  C   UNL     1       3.171   4.105  17.356  0.00  0.00    +0.000 A 
ATOM      4  C   UNL     1       2.422   5.108  17.963  0.00  0.00    +0.000 A 
ATOM      5  C   UNL     1       2.969   6.366  18.228  0.00  0.00    +0.000 A 
ATOM      6  C   UNL     1       4.304   6.603  17.845  0.00  0.00    +0.000 A 
ENDROOT
BRANCH   1   8
ATOM      7  C   UNL     1       6.971   4.929  15.622  0.00  0.00    +0.000 C 
ATOM      8  C   UNL     1       6.558   5.771  16.833  0.00  0.00    +0.000 C 
ATOM      9  N   UNL     1       6.927   7.159  16.644  0.00  0.00    +0.000 N 
ATOM     10  C   UNL     1       7.698   7.644  17.671  0.00  0.00    +0.000 C 
ATOM     11  O   UNL     1       8.093   8.793  17.759  0.00  0.00    +0.000 OA
ATOM     12  N   UNL     1       7.965   6.637  18.529  0.00  0.00    +0.000 N 
ATOM     13  C   UNL     1       7.480   5.462  18.043  0.00  0.00    +0.000 C 
ATOM     14  O   UNL     1       7.731   4.360  18.512  0.00  0.00    +0.000 OA
ATOM     15  H   UNL     1       6.625   7.751  15.883  0.00  0.00    +0.000 HD
ATOM     16  H   UNL     1       8.585   6.716  19.316  0.00  0.00    +0.000 HD
ENDBRANCH   1   8
BRANCH   5  17
ATOM     17  N   UNL     1       2.237   7.392  18.888  0.00  0.00    +0.000 N 
ATOM     18  C   UNL     1       1.904   8.636  18.353  0.00  0.00    +0.000 C 
ATOM     19  O   UNL     1       2.222   9.066  17.249  0.00  0.00    +0.000 OA
ATOM     20  H   UNL     1       1.901   7.215  19.831  0.00  0.00    +0.000 HD
BRANCH  18  21
ATOM     21  C   UNL     1       1.083   9.530  19.221  0.00  0.00    +0.000 A 
ATOM     22  C   UNL     1       0.745  10.791  18.750  0.00  0.00    +0.000 A 
ATOM     23  N   UNL     1       0.037  11.680  19.487  0.00  0.00    +0.000 NA
ATOM     24  C   UNL     1      -0.322  11.277  20.717  0.00  0.00    +0.000 A 
ATOM     25  C   UNL     1      -1.012  12.158  21.541  0.00  0.00    +0.000 A 
ATOM     26  C   UNL     1      -1.383  11.796  22.835  0.00  0.00    +0.000 A 
ATOM     27  C   UNL     1      -1.085  10.522  23.300  0.00  0.00    +0.000 A 
ATOM     28  C   UNL     1      -0.405   9.622  22.474  0.00  0.00    +0.000 A 
ATOM     29  C   UNL     1       0.004   9.975  21.194  0.00  0.00    +0.000 A 
ATOM     30  N   UNL     1       0.710   9.090  20.450  0.00  0.00    +0.000 NA
ENDBRANCH  18  21
ENDBRANCH   5  17
TORSDOF 3
ENDMDL
MODEL 2
REMARK VINA RESULT:      -9.9      0.761      1.450
REMARK  Name = 
REMARK  4 active torsions:
REMARK  status: ('A' for Active; 'I' for Inactive)
REMARK    1  A    between atoms: C_1  and  C_2
REMARK    2  A    between atoms: C_2  and  C_3
REMARK    3  A    between atoms: C_7  and  N_8
REMARK    4  A    between atoms: C_9  and  C_11
REMARK                            x       y       z     vdW  Elec       q    Type
REMARK                         _______ _______ _______ _____ _____    ______ ____
ROOT
ATOM      1  C   UNL     1       5.069   5.452  17.231  0.00  0.00    +0.000 A 
ATOM      2  C   UNL     1       4.456   4.248  16.842  0.00  0.00    +0.000 A 
ATOM      3  C   UNL     1       3.161   3.945  17.243  0.00  0.00    +0.000 A 
ATOM      4  C   UNL     1       2.455   4.830  18.051  0.00  0.00    +0.000 A 
ATOM      5  C   UNL     1       3.021   6.033  18.481  0.00  0.00    +0.000 A 
ATOM      6  C   UNL     1       4.329   6.341  18.056  0.00  0.00    +0.000 A 
ENDROOT
BRANCH   1   8
ATOM      7  C   UNL     1       6.909   4.897  15.540  0.00  0.00    +0.000 C 
ATOM      8  C   UNL     1       6.511   5.702  16.780  0.00  0.00    +0.000 C 
ATOM      9  N   UNL     1       6.808   7.108  16.597  0.00  0.00    +0.000 N 
ATOM     10  C   UNL     1       7.599   7.614  17.597  0.00  0.00    +0.000 C 
ATOM     11  O   UNL     1       7.945   8.779  17.686  0.00  0.00    +0.000 OA
ATOM     12  N   UNL     1       7.950   6.609  18.427  0.00  0.00    +0.000 N 
ATOM     13  C   UNL     1       7.498   5.420  17.945  0.00  0.00    +0.000 C 
ATOM     14  O   UNL     1       7.820   4.325  18.386  0.00  0.00    +0.000 OA
ATOM     15  H   UNL     1       6.446   7.696  15.859  0.00  0.00    +0.000 HD
ATOM     16  H   UNL     1       8.598   6.707  19.188  0.00  0.00    +0.000 HD
ENDBRANCH   1   8
BRANCH   5  17
ATOM     17  N   UNL     1       2.336   6.933  19.344  0.00  0.00    +0.000 N 
ATOM     18  C   UNL     1       1.888   8.210  19.009  0.00  0.00    +0.000 C 
ATOM     19  O   UNL     1       2.048   8.783  17.937  0.00  0.00    +0.000 OA
ATOM     20  H   UNL     1       2.127   6.628  20.292  0.00  0.00    +0.000 HD
BRANCH  18  21
ATOM     21  C   UNL     1       1.146   8.949  20.072  0.00  0.00    +0.000 A 
ATOM     22  C   UNL     1       1.268   8.525  21.388  0.00  0.00    +0.000 A 
ATOM     23  N   UNL     1       0.599   9.112  22.409  0.00  0.00    +0.000 NA
ATOM     24  C   UNL     1      -0.204  10.138  22.080  0.00  0.00    +0.000 A 
ATOM     25  C   UNL     1      -0.952  10.756  23.074  0.00  0.00    +0.000 A 
ATOM     26  C   UNL     1      -1.820  11.806  22.778  0.00  0.00    +0.000 A 
ATOM     27  C   UNL     1      -1.916  12.264  21.471  0.00  0.00    +0.000 A 
ATOM     28  C   UNL     1      -1.157  11.659  20.465  0.00  0.00    +0.000 A 
ATOM     29  C   UNL     1      -0.313  10.589  20.733  0.00  0.00    +0.000 A 
ATOM     30  N   UNL     1       0.361   9.999  19.717  0.00  0.00    +0.000 NA
ENDBRANCH  18  21
ENDBRANCH   5  17
TORSDOF 3
ENDMDL
MODEL 3
REMARK VINA RESULT:      -9.6      1.321      1.815
REMARK  Name = 
REMARK  4 active torsions:
REMARK  status: ('A' for Active; 'I' for Inactive)
REMARK    1  A    between atoms: C_1  and  C_2
REMARK    2  A    between atoms: C_2  and  C_3
REMARK    3  A    between atoms: C_7  and  N_8
REMARK    4  A    between atoms: C_9  and  C_11
REMARK                            x       y       z     vdW  Elec       q    Type
REMARK                         _______ _______ _______ _____ _____    ______ ____
ROOT
ATOM      1  C   UNL     1       5.004   5.699  17.225  0.00  0.00    +0.000 A 
ATOM      2  C   UNL     1       4.381   4.462  16.979  0.00  0.00    +0.000 A 
ATOM      3  C   UNL     1       3.064   4.240  17.355  0.00  0.00    +0.000 A 
ATOM      4  C   UNL     1       2.342   5.241  17.998  0.00  0.00    +0.000 A 
ATOM      5  C   UNL     1       2.916   6.482  18.283  0.00  0.00    +0.000 A 
ATOM      6  C   UNL     1       4.248   6.706  17.882  0.00  0.00    +0.000 A 
ENDROOT
BRANCH   1   8
ATOM      7  C   UNL     1       6.843   5.055  15.564  0.00  0.00    +0.000 C 
ATOM      8  C   UNL     1       6.471   5.859  16.813  0.00  0.00    +0.000 C 
ATOM      9  N   UNL     1       6.866   7.245  16.670  0.00  0.00    +0.000 N 
ATOM     10  C   UNL     1       7.665   7.674  17.700  0.00  0.00    +0.000 C 
ATOM     11  O   UNL     1       8.087   8.811  17.824  0.00  0.00    +0.000 OA
ATOM     12  N   UNL     1       7.926   6.630  18.514  0.00  0.00    +0.000 N 
ATOM     13  C   UNL     1       7.407   5.485  17.994  0.00  0.00    +0.000 C 
ATOM     14  O   UNL     1       7.643   4.361  18.416  0.00  0.00    +0.000 OA
ATOM     15  H   UNL     1       6.564   7.872  15.938  0.00  0.00    +0.000 HD
ATOM     16  H   UNL     1       8.561   6.666  19.292  0.00  0.00    +0.000 HD
ENDBRANCH   1   8
BRANCH   5  17
ATOM     17  N   UNL     1       2.213   7.505  18.978  0.00  0.00    +0.000 N 
ATOM     18  C   UNL     1       1.778   7.447  20.302  0.00  0.00    +0.000 C 
ATOM     19  O   UNL     1       1.890   6.496  21.067  0.00  0.00    +0.000 OA
ATOM     20  H   UNL     1       2.015   8.374  18.488  0.00  0.00    +0.000 HD
BRANCH  18  21
ATOM     21  C   UNL     1       1.103   8.670  20.829  0.00  0.00    +0.000 A 
ATOM     22  C   UNL     1       1.229   8.971  22.178  0.00  0.00    +0.000 A 
ATOM     23  N   UNL     1       0.618  10.038  22.747  0.00  0.00    +0.000 NA
ATOM     24  C   UNL     1      -0.130  10.798  21.930  0.00  0.00    +0.000 A 
ATOM     25  C   UNL     1      -0.819  11.882  22.460  0.00  0.00    +0.000 A 
ATOM     26  C   UNL     1      -1.629  12.685  21.658  0.00  0.00    +0.000 A 
ATOM     27  C   UNL     1      -1.727  12.416  20.300  0.00  0.00    +0.000 A 
ATOM     28  C   UNL     1      -1.026  11.336  19.753  0.00  0.00    +0.000 A 
ATOM     29  C   UNL     1      -0.241  10.504  20.540  0.00  0.00    +0.000 A 
ATOM     30  N   UNL     1       0.375   9.437  19.978  0.00  0.00    +0.000 NA
ENDBRANCH  18  21
ENDBRANCH   5  17
TORSDOF 3
ENDMDL
MODEL 4
REMARK VINA RESULT:      -9.4      0.990      1.051
REMARK  Name = 
REMARK  4 active torsions:
REMARK  status: ('A' for Active; 'I' for Inactive)
REMARK    1  A    between atoms: C_1  and  C_2
REMARK    2  A    between atoms: C_2  and  C_3
REMARK    3  A    between atoms: C_7  and  N_8
REMARK    4  A    between atoms: C_9  and  C_11
REMARK                            x       y       z     vdW  Elec       q    Type
REMARK                         _______ _______ _______ _____ _____    ______ ____
ROOT
ATOM      1  C   UNL     1       5.097   5.716  17.224  0.00  0.00    +0.000 A 
ATOM      2  C   UNL     1       4.521   4.437  17.133  0.00  0.00    +0.000 A 
ATOM      3  C   UNL     1       3.196   4.224  17.490  0.00  0.00    +0.000 A 
ATOM      4  C   UNL     1       2.422   5.280  17.961  0.00  0.00    +0.000 A 
ATOM      5  C   UNL     1       2.948   6.568  18.089  0.00  0.00    +0.000 A 
ATOM      6  C   UNL     1       4.288   6.779  17.707  0.00  0.00    +0.000 A 
ENDROOT
BRANCH   1   8
ATOM      7  C   UNL     1       6.975   5.040  15.620  0.00  0.00    +0.000 C 
ATOM      8  C   UNL     1       6.574   5.868  16.845  0.00  0.00    +0.000 C 
ATOM      9  N   UNL     1       6.975   7.250  16.686  0.00  0.00    +0.000 N 
ATOM     10  C   UNL     1       7.750   7.697  17.726  0.00  0.00    +0.000 C 
ATOM     11  O   UNL     1       8.170   8.836  17.839  0.00  0.00    +0.000 OA
ATOM     12  N   UNL     1       7.990   6.668  18.566  0.00  0.00    +0.000 N 
ATOM     13  C   UNL     1       7.481   5.514  18.054  0.00  0.00    +0.000 C 
ATOM     14  O   UNL     1       7.705   4.398  18.503  0.00  0.00    +0.000 OA
ATOM     15  H   UNL     1       6.691   7.864  15.935  0.00  0.00    +0.000 HD
ATOM     16  H   UNL     1       8.606   6.718  19.358  0.00  0.00    +0.000 HD
ENDBRANCH   1   8
BRANCH   5  17
ATOM     17  N   UNL     1       2.190   7.653  18.610  0.00  0.00    +0.000 N 
ATOM     18  C   UNL     1       1.697   7.761  19.910  0.00  0.00    +0.000 C 
ATOM     19  O   UNL     1       1.799   6.925  20.802  0.00  0.00    +0.000 OA
ATOM     20  H   UNL     1       1.992   8.441  17.998  0.00  0.00    +0.000 HD
BRANCH  18  21
ATOM     21  C   UNL     1       0.970   9.023  20.237  0.00  0.00    +0.000 A 
ATOM     22  C   UNL     1       0.961  10.049  19.303  0.00  0.00    +0.000 A 
ATOM     23  N   UNL     1       0.359  11.240  19.534  0.00  0.00    +0.000 NA
ATOM     24  C   UNL     1      -0.232  11.384  20.731  0.00  0.00    +0.000 A 
ATOM     25  C   UNL     1      -0.829  12.598  21.049  0.00  0.00    +0.000 A 
ATOM     26  C   UNL     1      -1.432  12.805  22.288  0.00  0.00    +0.000 A 
ATOM     27  C   UNL     1      -1.463  11.769  23.213  0.00  0.00    +0.000 A 
ATOM     28  C   UNL     1      -0.879  10.538  22.899  0.00  0.00    +0.000 A 
ATOM     29  C   UNL     1      -0.243  10.323  21.683  0.00  0.00    +0.000 A 
ATOM     30  N   UNL     1       0.357   9.133  21.444  0.00  0.00    +0.000 NA
ENDBRANCH  18  21
ENDBRANCH   5  17
TORSDOF 3
ENDMDL
MODEL 5
REMARK VINA RESULT:      -9.2      2.806      4.269
REMARK  Name = 
REMARK  4 active torsions:
REMARK  status: ('A' for Active; 'I' for Inactive)
REMARK    1  A    between atoms: C_1  and  C_2
REMARK    2  A    between atoms: C_2  and  C_3
REMARK    3  A    between atoms: C_7  and  N_8
REMARK    4  A    between atoms: C_9  and  C_11
REMARK                            x       y       z     vdW  Elec       q    Type
REMARK                         _______ _______ _______ _____ _____    ______ ____
ROOT
ATOM      1  C   UNL     1       3.057   4.340  18.611  0.00  0.00    +0.000 A 
ATOM      2  C   UNL     1       3.985   4.489  17.565  0.00  0.00    +0.000 A 
ATOM      3  C   UNL     1       4.335   5.748  17.097  0.00  0.00    +0.000 A 
ATOM      4  C   UNL     1       3.757   6.886  17.652  0.00  0.00    +0.000 A 
ATOM      5  C   UNL     1       2.816   6.796  18.682  0.00  0.00    +0.000 A 
ATOM      6  C   UNL     1       2.480   5.515  19.162  0.00  0.00    +0.000 A 
ENDROOT
BRANCH   1   8
ATOM      7  C   UNL     1       3.368   1.830  18.211  0.00  0.00    +0.000 C 
ATOM      8  C   UNL     1       2.694   2.918  19.052  0.00  0.00    +0.000 C 
ATOM      9  N   UNL     1       2.920   2.692  20.464  0.00  0.00    +0.000 N 
ATOM     10  C   UNL     1       1.753   2.638  21.183  0.00  0.00    +0.000 C 
ATOM     11  O   UNL     1       1.688   2.502  22.392  0.00  0.00    +0.000 OA
ATOM     12  N   UNL     1       0.710   2.725  20.330  0.00  0.00    +0.000 N 
ATOM     13  C   UNL     1       1.153   2.728  19.043  0.00  0.00    +0.000 C 
ATOM     14  O   UNL     1       0.432   2.613  18.061  0.00  0.00    +0.000 OA
ATOM     15  H   UNL     1       3.823   2.630  20.914  0.00  0.00    +0.000 HD
ATOM     16  H   UNL     1      -0.252   2.622  20.602  0.00  0.00    +0.000 HD
ENDBRANCH   1   8
BRANCH   5  17
ATOM     17  N   UNL     1       2.179   7.941  19.234  0.00  0.00    +0.000 N 
ATOM     18  C   UNL     1       1.732   9.054  18.523  0.00  0.00    +0.000 C 
ATOM     19  O   UNL     1       1.851   9.248  17.318  0.00  0.00    +0.000 OA
ATOM     20  H   UNL     1       2.009   7.962  20.237  0.00  0.00    +0.000 HD
BRANCH  18  21
ATOM     21  C   UNL     1       1.044  10.113  19.319  0.00  0.00    +0.000 A 
ATOM     22  C   UNL     1       1.071  11.420  18.853  0.00  0.00    +0.000 A 
ATOM     23  N   UNL     1       0.508  12.448  19.531  0.00  0.00    +0.000 NA
ATOM     24  C   UNL     1      -0.082  12.136  20.697  0.00  0.00    +0.000 A 
ATOM     25  C   UNL     1      -0.641  13.152  21.464  0.00  0.00    +0.000 A 
ATOM     26  C   UNL     1      -1.241  12.883  22.694  0.00  0.00    +0.000 A 
ATOM     27  C   UNL     1      -1.308  11.572  23.148  0.00  0.00    +0.000 A 
ATOM     28  C   UNL     1      -0.763  10.540  22.377  0.00  0.00    +0.000 A 
ATOM     29  C   UNL     1      -0.131  10.792  21.166  0.00  0.00    +0.000 A 
ATOM     30  N   UNL     1       0.432   9.768  20.481  0.00  0.00    +0.000 NA
ENDBRANCH  18  21
ENDBRANCH   5  17
TORSDOF 3
ENDMDL
MODEL 6
REMARK VINA RESULT:      -9.1      1.449      2.146
REMARK  Name = 
REMARK  4 active torsions:
REMARK  status: ('A' for Active; 'I' for Inactive)
REMARK    1  A    between atoms: C_1  and  C_2
REMARK    2  A    between atoms: C_2  and  C_3
REMARK    3  A    between atoms: C_7  and  N_8
REMARK    4  A    between atoms: C_9  and  C_11
REMARK                            x       y       z     vdW  Elec       q    Type
REMARK                         _______ _______ _______ _____ _____    ______ ____
ROOT
ATOM      1  C   UNL     1       4.541   4.970  17.555  0.00  0.00    +0.000 A 
ATOM      2  C   UNL     1       3.739   3.822  17.429  0.00  0.00    +0.000 A 
ATOM      3  C   UNL     1       2.406   3.838  17.816  0.00  0.00    +0.000 A 
ATOM      4  C   UNL     1       1.847   4.994  18.351  0.00  0.00    +0.000 A 
ATOM      5  C   UNL     1       2.602   6.159  18.515  0.00  0.00    +0.000 A 
ATOM      6  C   UNL     1       3.950   6.139  18.104  0.00  0.00    +0.000 A 
ENDROOT
BRANCH   1   8
ATOM      7  C   UNL     1       6.968   4.701  18.325  0.00  0.00    +0.000 C 
ATOM      8  C   UNL     1       6.012   4.868  17.140  0.00  0.00    +0.000 C 
ATOM      9  N   UNL     1       6.246   3.844  16.143  0.00  0.00    +0.000 N 
ATOM     10  C   UNL     1       6.486   4.367  14.897  0.00  0.00    +0.000 C 
ATOM     11  O   UNL     1       6.665   3.706  13.889  0.00  0.00    +0.000 OA
ATOM     12  N   UNL     1       6.523   5.713  14.989  0.00  0.00    +0.000 N 
ATOM     13  C   UNL     1       6.420   6.100  16.289  0.00  0.00    +0.000 C 
ATOM     14  O   UNL     1       6.607   7.241  16.691  0.00  0.00    +0.000 OA
ATOM     15  H   UNL     1       6.191   2.847  16.297  0.00  0.00    +0.000 HD
ATOM     16  H   UNL     1       6.771   6.324  14.230  0.00  0.00    +0.000 HD
ENDBRANCH   1   8
BRANCH   5  17
ATOM     17  N   UNL     1       2.066   7.339  19.100  0.00  0.00    +0.000 N 
ATOM     18  C   UNL     1       1.871   8.559  18.454  0.00  0.00    +0.000 C 
ATOM     19  O   UNL     1       2.167   8.829  17.295  0.00  0.00    +0.000 OA
ATOM     20  H   UNL     1       1.774   7.305  20.074  0.00  0.00    +0.000 HD
BRANCH  18  21
ATOM     21  C   UNL     1       1.242   9.643  19.266  0.00  0.00    +0.000 A 
ATOM     22  C   UNL     1       1.372  10.957  18.839  0.00  0.00    +0.000 A 
ATOM     23  N   UNL     1       0.868  12.004  19.535  0.00  0.00    +0.000 NA
ATOM     24  C   UNL     1       0.231  11.703  20.679  0.00  0.00    +0.000 A 
ATOM     25  C   UNL     1      -0.271  12.734  21.463  0.00  0.00    +0.000 A 
ATOM     26  C   UNL     1      -0.917  12.476  22.671  0.00  0.00    +0.000 A 
ATOM     27  C   UNL     1      -1.088  11.161  23.085  0.00  0.00    +0.000 A 
ATOM     28  C   UNL     1      -0.599  10.114  22.297  0.00  0.00    +0.000 A 
ATOM     29  C   UNL     1       0.076  10.353  21.107  0.00  0.00    +0.000 A 
ATOM     30  N   UNL     1       0.581   9.311  20.405  0.00  0.00    +0.000 NA
ENDBRANCH  18  21
ENDBRANCH   5  17
TORSDOF 3
ENDMDL
MODEL 7
REMARK VINA RESULT:      -9.1      2.486      3.697
REMARK  Name = 
REMARK  4 active torsions:
REMARK  status: ('A' for Active; 'I' for Inactive)
REMARK    1  A    between atoms: C_1  and  C_2
REMARK    2  A    between atoms: C_2  and  C_3
REMARK    3  A    between atoms: C_7  and  N_8
REMARK    4  A    between atoms: C_9  and  C_11
REMARK                            x       y       z     vdW  Elec       q    Type
REMARK                         _______ _______ _______ _____ _____    ______ ____
ROOT
ATOM      1  C   UNL     1       3.386   4.493  18.327  0.00  0.00    +0.000 A 
ATOM      2  C   UNL     1       4.360   4.840  17.374  0.00  0.00    +0.000 A 
ATOM      3  C   UNL     1       4.563   6.164  17.011  0.00  0.00    +0.000 A 
ATOM      4  C   UNL     1       3.789   7.170  17.580  0.00  0.00    +0.000 A 
ATOM      5  C   UNL     1       2.795   6.882  18.519  0.00  0.00    +0.000 A 
ATOM      6  C   UNL     1       2.608   5.537  18.894  0.00  0.00    +0.000 A 
ENDROOT
BRANCH   1   8
ATOM      7  C   UNL     1       2.579   2.208  17.501  0.00  0.00    +0.000 C 
ATOM      8  C   UNL     1       3.195   3.008  18.652  0.00  0.00    +0.000 C 
ATOM      9  N   UNL     1       4.408   2.375  19.127  0.00  0.00    +0.000 N 
ATOM     10  C   UNL     1       4.379   2.124  20.475  0.00  0.00    +0.000 C 
ATOM     11  O   UNL     1       5.299   1.640  21.111  0.00  0.00    +0.000 OA
ATOM     12  N   UNL     1       3.165   2.466  20.957  0.00  0.00    +0.000 N 
ATOM     13  C   UNL     1       2.344   2.842  19.939  0.00  0.00    +0.000 C 
ATOM     14  O   UNL     1       1.139   3.027  20.053  0.00  0.00    +0.000 OA
ATOM     15  H   UNL     1       5.227   2.176  18.568  0.00  0.00    +0.000 HD
ATOM     16  H   UNL     1       2.864   2.296  21.900  0.00  0.00    +0.000 HD
ENDBRANCH   1   8
BRANCH   5  17
ATOM     17  N   UNL     1       1.962   7.888  19.081  0.00  0.00    +0.000 N 
ATOM     18  C   UNL     1       1.625   9.102  18.483  0.00  0.00    +0.000 C 
ATOM     19  O   UNL     1       2.024   9.520  17.401  0.00  0.00    +0.000 OA
ATOM     20  H   UNL     1       1.549   7.718  19.994  0.00  0.00    +0.000 HD
BRANCH  18  21
ATOM     21  C   UNL     1       0.690   9.978  19.249  0.00  0.00    +0.000 A 
ATOM     22  C   UNL     1       0.112  11.062  18.603  0.00  0.00    +0.000 A 
ATOM     23  N   UNL     1      -0.717  11.929  19.232  0.00  0.00    +0.000 NA
ATOM     24  C   UNL     1      -0.950  11.688  20.533  0.00  0.00    +0.000 A 
ATOM     25  C   UNL     1      -1.756  12.566  21.248  0.00  0.00    +0.000 A 
ATOM     26  C   UNL     1      -2.007  12.374  22.606  0.00  0.00    +0.000 A 
ATOM     27  C   UNL     1      -1.466  11.269  23.250  0.00  0.00    +0.000 A 
ATOM     28  C   UNL     1      -0.666  10.370  22.536  0.00  0.00    +0.000 A 
ATOM     29  C   UNL     1      -0.376  10.563  21.192  0.00  0.00    +0.000 A 
ATOM     30  N   UNL     1       0.449   9.698  20.556  0.00  0.00    +0.000 NA
ENDBRANCH  18  21
ENDBRANCH   5  17
TORSDOF 3
ENDMDL
MODEL 8
REMARK VINA RESULT:      -9.0      1.791      2.688
REMARK  Name = 
REMARK  4 active torsions:
REMARK  status: ('A' for Active; 'I' for Inactive)
REMARK    1  A    between atoms: C_1  and  C_2
REMARK    2  A    between atoms: C_2  and  C_3
REMARK    3  A    between atoms: C_7  and  N_8
REMARK    4  A    between atoms: C_9  and  C_11
REMARK                            x       y       z     vdW  Elec       q    Type
REMARK                         _______ _______ _______ _____ _____    ______ ____
ROOT
ATOM      1  C   UNL     1       4.932   4.798  18.344  0.00  0.00    +0.000 A 
ATOM      2  C   UNL     1       4.465   3.486  18.539  0.00  0.00    +0.000 A 
ATOM      3  C   UNL     1       3.307   3.242  19.263  0.00  0.00    +0.000 A 
ATOM      4  C   UNL     1       2.597   4.300  19.823  0.00  0.00    +0.000 A 
ATOM      5  C   UNL     1       3.024   5.622  19.676  0.00  0.00    +0.000 A 
ATOM      6  C   UNL     1       4.191   5.862  18.924  0.00  0.00    +0.000 A 
ENDROOT
BRANCH   1   8
ATOM      7  C   UNL     1       7.465   5.157  18.462  0.00  0.00    +0.000 C 
ATOM      8  C   UNL     1       6.236   4.988  17.563  0.00  0.00    +0.000 C 
ATOM      9  N   UNL     1       6.459   3.950  16.578  0.00  0.00    +0.000 N 
ATOM     10  C   UNL     1       6.252   4.388  15.294  0.00  0.00    +0.000 C 
ATOM     11  O   UNL     1       6.333   3.688  14.300  0.00  0.00    +0.000 OA
ATOM     12  N   UNL     1       5.984   5.711  15.323  0.00  0.00    +0.000 N 
ATOM     13  C   UNL     1       6.112   6.190  16.589  0.00  0.00    +0.000 C 
ATOM     14  O   UNL     1       6.110   7.378  16.885  0.00  0.00    +0.000 OA
ATOM     15  H   UNL     1       6.687   2.986  16.779  0.00  0.00    +0.000 HD
ATOM     16  H   UNL     1       5.883   6.283  14.503  0.00  0.00    +0.000 HD
ENDBRANCH   1   8
BRANCH   5  17
ATOM     17  N   UNL     1       2.340   6.715  20.275  0.00  0.00    +0.000 N 
ATOM     18  C   UNL     1       1.893   7.862  19.620  0.00  0.00    +0.000 C 
ATOM     19  O   UNL     1       2.052   8.136  18.436  0.00  0.00    +0.000 OA
ATOM     20  H   UNL     1       2.132   6.667  21.270  0.00  0.00    +0.000 HD
BRANCH  18  21
ATOM     21  C   UNL     1       1.152   8.853  20.456  0.00  0.00    +0.000 A 
ATOM     22  C   UNL     1       1.328   8.828  21.832  0.00  0.00    +0.000 A 
ATOM     23  N   UNL     1       0.665   9.664  22.667  0.00  0.00    +0.000 NA
ATOM     24  C   UNL     1      -0.187  10.526  22.089  0.00  0.00    +0.000 A 
ATOM     25  C   UNL     1      -0.931  11.381  22.893  0.00  0.00    +0.000 A 
ATOM     26  C   UNL     1      -1.848  12.276  22.343  0.00  0.00    +0.000 A 
ATOM     27  C   UNL     1      -1.999  12.336  20.964  0.00  0.00    +0.000 A 
ATOM     28  C   UNL     1      -1.244  11.491  20.144  0.00  0.00    +0.000 A 
ATOM     29  C   UNL     1      -0.352  10.569  20.675  0.00  0.00    +0.000 A 
ATOM     30  N   UNL     1       0.317   9.732  19.845  0.00  0.00    +0.000 NA
ENDBRANCH  18  21
ENDBRANCH   5  17
TORSDOF 3
ENDMDL
MODEL 9
REMARK VINA RESULT:      -9.0      1.360      2.052
REMARK  Name = 
REMARK  4 active torsions:
REMARK  status: ('A' for Active; 'I' for Inactive)
REMARK    1  A    between atoms: C_1  and  C_2
REMARK    2  A    between atoms: C_2  and  C_3
REMARK    3  A    between atoms: C_7  and  N_8
REMARK    4  A    between atoms: C_9  and  C_11
REMARK                            x       y       z     vdW  Elec       q    Type
REMARK                         _______ _______ _______ _____ _____    ______ ____
ROOT
ATOM      1  C   UNL     1       4.992   5.806  17.254  0.00  0.00    +0.000 A 
ATOM      2  C   UNL     1       4.384   4.538  17.248  0.00  0.00    +0.000 A 
ATOM      3  C   UNL     1       3.057   4.381  17.621  0.00  0.00    +0.000 A 
ATOM      4  C   UNL     1       2.309   5.483  18.023  0.00  0.00    +0.000 A 
ATOM      5  C   UNL     1       2.866   6.764  18.066  0.00  0.00    +0.000 A 
ATOM      6  C   UNL     1       4.209   6.917  17.669  0.00  0.00    +0.000 A 
ENDROOT
BRANCH   1   8
ATOM      7  C   UNL     1       6.830   5.046  15.642  0.00  0.00    +0.000 C 
ATOM      8  C   UNL     1       6.470   5.897  16.863  0.00  0.00    +0.000 C 
ATOM      9  N   UNL     1       6.924   7.261  16.690  0.00  0.00    +0.000 N 
ATOM     10  C   UNL     1       7.723   7.686  17.722  0.00  0.00    +0.000 C 
ATOM     11  O   UNL     1       8.188   8.808  17.823  0.00  0.00    +0.000 OA
ATOM     12  N   UNL     1       7.929   6.654  18.567  0.00  0.00    +0.000 N 
ATOM     13  C   UNL     1       7.372   5.518  18.068  0.00  0.00    +0.000 C 
ATOM     14  O   UNL     1       7.556   4.397  18.524  0.00  0.00    +0.000 OA
ATOM     15  H   UNL     1       6.658   7.880  15.937  0.00  0.00    +0.000 HD
ATOM     16  H   UNL     1       8.552   6.687  19.355  0.00  0.00    +0.000 HD
ENDBRANCH   1   8
BRANCH   5  17
ATOM     17  N   UNL     1       2.136   7.898  18.515  0.00  0.00    +0.000 N 
ATOM     18  C   UNL     1       1.640   8.097  19.803  0.00  0.00    +0.000 C 
ATOM     19  O   UNL     1       1.713   7.314  20.744  0.00  0.00    +0.000 OA
ATOM     20  H   UNL     1       1.964   8.654  17.856  0.00  0.00    +0.000 HD
BRANCH  18  21
ATOM     21  C   UNL     1       0.946   9.395  20.051  0.00  0.00    +0.000 A 
ATOM     22  C   UNL     1       0.104   9.503  21.149  0.00  0.00    +0.000 A 
ATOM     23  N   UNL     1      -0.595  10.630  21.425  0.00  0.00    +0.000 NA
ATOM     24  C   UNL     1      -0.434  11.652  20.568  0.00  0.00    +0.000 A 
ATOM     25  C   UNL     1      -1.157  12.821  20.769  0.00  0.00    +0.000 A 
ATOM     26  C   UNL     1      -1.045  13.900  19.893  0.00  0.00    +0.000 A 
ATOM     27  C   UNL     1      -0.173  13.816  18.815  0.00  0.00    +0.000 A 
ATOM     28  C   UNL     1       0.570  12.649  18.611  0.00  0.00    +0.000 A 
ATOM     29  C   UNL     1       0.447  11.551  19.453  0.00  0.00    +0.000 A 
ATOM     30  N   UNL     1       1.145  10.422  19.185  0.00  0.00    +0.000 NA
ENDBRANCH  18  21
ENDBRANCH   5  17
TORSDOF 3
ENDMDL
