MODEL 1
REMARK VINA RESULT:      -8.9      0.000      0.000
REMARK  Name = 
REMARK  3 active torsions:
REMARK  status: ('A' for Active; 'I' for Inactive)
REMARK    1  A    between atoms: C_2  and  C_3
REMARK    2  A    between atoms: C_3  and  C_4
REMARK    3  A    between atoms: N_16  and  C_17
REMARK                            x       y       z     vdW  Elec       q    Type
REMARK                         _______ _______ _______ _____ _____    ______ ____
ROOT
ATOM      1  O   UNL     1       7.549   8.498  17.291  0.00  0.00    +0.000 OA
ATOM      2  C   UNL     1       8.127   8.051  18.281  0.00  0.00    +0.000 C 
ATOM      3  N   UNL     1       8.967   8.776  19.108  0.00  0.00    +0.000 N 
ATOM      4  H   UNL     1       9.578   8.252  19.729  0.00  0.00    +0.000 HD
ENDROOT
BRANCH   3   5
ATOM      5  C   UNL     1       9.211  10.172  19.044  0.00  0.00    +0.000 A 
ATOM      6  C   UNL     1       9.341  10.884  17.845  0.00  0.00    +0.000 A 
ATOM      7  C   UNL     1       9.590  12.262  17.863  0.00  0.00    +0.000 A 
ATOM      8  C   UNL     1       9.705  12.930  19.079  0.00  0.00    +0.000 A 
ATOM      9  F   UNL     1       9.959  14.245  19.083  0.00  0.00    +0.000 F 
ATOM     10  C   UNL     1       9.554  12.243  20.272  0.00  0.00    +0.000 A 
ATOM     11  F   UNL     1       9.656  12.890  21.441  0.00  0.00    +0.000 F 
ATOM     12  C   UNL     1       9.302  10.876  20.255  0.00  0.00    +0.000 A 
ATOM     13  F   UNL     1       9.147  10.211  21.409  0.00  0.00    +0.000 F 
ENDBRANCH   3   5
BRANCH   2  14
ATOM     14  C   UNL     1       7.900   6.613  18.724  0.00  0.00    +0.000 C 
BRANCH  14  15
ATOM     15  C   UNL     1       6.970   5.839  17.855  0.00  0.00    +0.000 A 
ATOM     16  C   UNL     1       7.236   5.301  16.611  0.00  0.00    +0.000 A 
ATOM     17  O   UNL     1       6.183   4.576  16.154  0.00  0.00    +0.000 OA
ATOM     18  C   UNL     1       5.217   4.623  17.114  0.00  0.00    +0.000 A 
ATOM     19  C   UNL     1       3.982   3.972  17.054  0.00  0.00    +0.000 A 
ATOM     20  C   UNL     1       3.162   4.162  18.165  0.00  0.00    +0.000 A 
ATOM     21  C   UNL     1       3.558   4.944  19.248  0.00  0.00    +0.000 A 
ATOM     22  C   UNL     1       4.796   5.579  19.289  0.00  0.00    +0.000 A 
ATOM     23  C   UNL     1       5.648   5.407  18.183  0.00  0.00    +0.000 A 
ATOM     24  C   UNL     1       2.522   4.987  20.320  0.00  0.00    +0.000 C 
ATOM     25  C   UNL     1       1.377   4.142  19.746  0.00  0.00    +0.000 C 
ATOM     26  C   UNL     1       1.800   3.583  18.377  0.00  0.00    +0.000 C 
ENDBRANCH  14  15
ENDBRANCH   2  14
TORSDOF 3
ENDMDL
MODEL 2
REMARK VINA RESULT:      -8.8      6.966      9.404
REMARK  Name = 
REMARK  3 active torsions:
REMARK  status: ('A' for Active; 'I' for Inactive)
REMARK    1  A    between atoms: C_2  and  C_3
REMARK    2  A    between atoms: C_3  and  C_4
REMARK    3  A    between atoms: N_16  and  C_17
REMARK                            x       y       z     vdW  Elec       q    Type
REMARK                         _______ _______ _______ _____ _____    ______ ____
ROOT
ATOM      1  O   UNL     1       1.890   7.615  19.917  0.00  0.00    +0.000 OA
ATOM      2  C   UNL     1       2.230   7.826  18.754  0.00  0.00    +0.000 C 
ATOM      3  N   UNL     1       2.944   6.946  17.960  0.00  0.00    +0.000 N 
ATOM      4  H   UNL     1       3.382   7.321  17.123  0.00  0.00    +0.000 HD
ENDROOT
BRANCH   3   5
ATOM      5  C   UNL     1       3.296   5.612  18.290  0.00  0.00    +0.000 A 
ATOM      6  C   UNL     1       4.481   5.261  18.948  0.00  0.00    +0.000 A 
ATOM      7  C   UNL     1       4.763   3.919  19.233  0.00  0.00    +0.000 A 
ATOM      8  C   UNL     1       3.859   2.928  18.863  0.00  0.00    +0.000 A 
ATOM      9  F   UNL     1       4.147   1.647  19.126  0.00  0.00    +0.000 F 
ATOM     10  C   UNL     1       2.671   3.262  18.233  0.00  0.00    +0.000 A 
ATOM     11  F   UNL     1       1.799   2.306  17.887  0.00  0.00    +0.000 F 
ATOM     12  C   UNL     1       2.389   4.594  17.956  0.00  0.00    +0.000 A 
ATOM     13  F   UNL     1       1.235   4.921  17.354  0.00  0.00    +0.000 F 
ENDBRANCH   3   5
BRANCH   2  14
ATOM     14  C   UNL     1       1.818   9.111  18.050  0.00  0.00    +0.000 C 
BRANCH  14  15
ATOM     15  C   UNL     1       0.873   9.963  18.825  0.00  0.00    +0.000 A 
ATOM     16  C   UNL     1       1.136  10.668  19.983  0.00  0.00    +0.000 A 
ATOM     17  O   UNL     1       0.064  11.414  20.358  0.00  0.00    +0.000 OA
ATOM     18  C   UNL     1      -0.910  11.211  19.428  0.00  0.00    +0.000 A 
ATOM     19  C   UNL     1      -2.165  11.825  19.422  0.00  0.00    +0.000 A 
ATOM     20  C   UNL     1      -2.992  11.466  18.359  0.00  0.00    +0.000 A 
ATOM     21  C   UNL     1      -2.582  10.560  17.381  0.00  0.00    +0.000 A 
ATOM     22  C   UNL     1      -1.325   9.964  17.404  0.00  0.00    +0.000 A 
ATOM     23  C   UNL     1      -0.466  10.307  18.464  0.00  0.00    +0.000 A 
ATOM     24  C   UNL     1      -3.629  10.344  16.341  0.00  0.00    +0.000 C 
ATOM     25  C   UNL     1      -4.794  11.221  16.817  0.00  0.00    +0.000 C 
ATOM     26  C   UNL     1      -4.375  11.968  18.094  0.00  0.00    +0.000 C 
ENDBRANCH  14  15
ENDBRANCH   2  14
TORSDOF 3
ENDMDL
MODEL 3
REMARK VINA RESULT:      -8.8      6.646      9.299
REMARK  Name = 
REMARK  3 active torsions:
REMARK  status: ('A' for Active; 'I' for Inactive)
REMARK    1  A    between atoms: C_2  and  C_3
REMARK    2  A    between atoms: C_3  and  C_4
REMARK    3  A    between atoms: N_16  and  C_17
REMARK                            x       y       z     vdW  Elec       q    Type
REMARK                         _______ _______ _______ _____ _____    ______ ____
ROOT
ATOM      1  O   UNL     1       2.035   7.621  20.012  0.00  0.00    +0.000 OA
ATOM      2  C   UNL     1       2.187   7.827  18.810  0.00  0.00    +0.000 C 
ATOM      3  N   UNL     1       2.522   6.865  17.873  0.00  0.00    +0.000 N 
ATOM      4  H   UNL     1       2.866   7.189  16.973  0.00  0.00    +0.000 HD
ENDROOT
BRANCH   3   5
ATOM      5  C   UNL     1       2.623   5.469  18.100  0.00  0.00    +0.000 A 
ATOM      6  C   UNL     1       1.619   4.552  17.764  0.00  0.00    +0.000 A 
ATOM      7  C   UNL     1       1.789   3.187  18.027  0.00  0.00    +0.000 A 
ATOM      8  C   UNL     1       2.963   2.737  18.622  0.00  0.00    +0.000 A 
ATOM      9  F   UNL     1       3.108   1.431  18.883  0.00  0.00    +0.000 F 
ATOM     10  C   UNL     1       3.976   3.629  18.936  0.00  0.00    +0.000 A 
ATOM     11  F   UNL     1       5.110   3.191  19.500  0.00  0.00    +0.000 F 
ATOM     12  C   UNL     1       3.810   4.982  18.670  0.00  0.00    +0.000 A 
ATOM     13  F   UNL     1       4.793   5.847  18.966  0.00  0.00    +0.000 F 
ENDBRANCH   3   5
BRANCH   2  14
ATOM     14  C   UNL     1       1.946   9.212  18.226  0.00  0.00    +0.000 C 
BRANCH  14  15
ATOM     15  C   UNL     1       0.929  10.020  18.956  0.00  0.00    +0.000 A 
ATOM     16  C   UNL     1       1.100  10.714  20.138  0.00  0.00    +0.000 A 
ATOM     17  O   UNL     1      -0.016  11.419  20.459  0.00  0.00    +0.000 OA
ATOM     18  C   UNL     1      -0.927  11.200  19.470  0.00  0.00    +0.000 A 
ATOM     19  C   UNL     1      -2.199  11.773  19.398  0.00  0.00    +0.000 A 
ATOM     20  C   UNL     1      -2.948  11.405  18.283  0.00  0.00    +0.000 A 
ATOM     21  C   UNL     1      -2.453  10.530  17.318  0.00  0.00    +0.000 A 
ATOM     22  C   UNL     1      -1.180   9.974  17.406  0.00  0.00    +0.000 A 
ATOM     23  C   UNL     1      -0.397  10.326  18.521  0.00  0.00    +0.000 A 
ATOM     24  C   UNL     1      -3.429  10.298  16.214  0.00  0.00    +0.000 C 
ATOM     25  C   UNL     1      -4.648  11.129  16.633  0.00  0.00    +0.000 C 
ATOM     26  C   UNL     1      -4.329  11.868  17.943  0.00  0.00    +0.000 C 
ENDBRANCH  14  15
ENDBRANCH   2  14
TORSDOF 3
ENDMDL
MODEL 4
REMARK VINA RESULT:      -8.6      5.027      6.977
REMARK  Name = 
REMARK  3 active torsions:
REMARK  status: ('A' for Active; 'I' for Inactive)
REMARK    1  A    between atoms: C_2  and  C_3
REMARK    2  A    between atoms: C_3  and  C_4
REMARK    3  A    between atoms: N_16  and  C_17
REMARK                            x       y       z     vdW  Elec       q    Type
REMARK                         _______ _______ _______ _____ _____    ______ ____
ROOT
ATOM      1  O   UNL     1       1.566   4.655  19.093  0.00  0.00    +0.000 OA
ATOM      2  C   UNL     1       2.716   5.076  19.212  0.00  0.00    +0.000 C 
ATOM      3  N   UNL     1       3.060   6.395  19.454  0.00  0.00    +0.000 N 
ATOM      4  H   UNL     1       4.025   6.665  19.280  0.00  0.00    +0.000 HD
ENDROOT
BRANCH   3   5
ATOM      5  C   UNL     1       2.167   7.460  19.732  0.00  0.00    +0.000 A 
ATOM      6  C   UNL     1       1.527   7.636  20.965  0.00  0.00    +0.000 A 
ATOM      7  C   UNL     1       0.650   8.710  21.162  0.00  0.00    +0.000 A 
ATOM      8  C   UNL     1       0.415   9.612  20.128  0.00  0.00    +0.000 A 
ATOM      9  F   UNL     1      -0.437  10.626  20.322  0.00  0.00    +0.000 F 
ATOM     10  C   UNL     1       1.060   9.465  18.910  0.00  0.00    +0.000 A 
ATOM     11  F   UNL     1       0.840  10.340  17.920  0.00  0.00    +0.000 F 
ATOM     12  C   UNL     1       1.935   8.402  18.717  0.00  0.00    +0.000 A 
ATOM     13  F   UNL     1       2.567   8.263  17.542  0.00  0.00    +0.000 F 
ENDBRANCH   3   5
BRANCH   2  14
ATOM     14  C   UNL     1       3.898   4.120  19.160  0.00  0.00    +0.000 C 
BRANCH  14  15
ATOM     15  C   UNL     1       5.130   4.694  18.549  0.00  0.00    +0.000 A 
ATOM     16  C   UNL     1       6.182   5.306  19.201  0.00  0.00    +0.000 A 
ATOM     17  O   UNL     1       7.180   5.620  18.334  0.00  0.00    +0.000 OA
ATOM     18  C   UNL     1       6.787   5.197  17.100  0.00  0.00    +0.000 A 
ATOM     19  C   UNL     1       7.545   5.296  15.930  0.00  0.00    +0.000 A 
ATOM     20  C   UNL     1       6.934   4.782  14.788  0.00  0.00    +0.000 A 
ATOM     21  C   UNL     1       5.662   4.214  14.825  0.00  0.00    +0.000 A 
ATOM     22  C   UNL     1       4.927   4.121  16.003  0.00  0.00    +0.000 A 
ATOM     23  C   UNL     1       5.516   4.630  17.175  0.00  0.00    +0.000 A 
ATOM     24  C   UNL     1       5.226   3.723  13.486  0.00  0.00    +0.000 C 
ATOM     25  C   UNL     1       6.397   4.096  12.568  0.00  0.00    +0.000 C 
ATOM     26  C   UNL     1       7.509   4.745  13.408  0.00  0.00    +0.000 C 
ENDBRANCH  14  15
ENDBRANCH   2  14
TORSDOF 3
ENDMDL
MODEL 5
REMARK VINA RESULT:      -8.6      5.416      7.645
REMARK  Name = 
REMARK  3 active torsions:
REMARK  status: ('A' for Active; 'I' for Inactive)
REMARK    1  A    between atoms: C_2  and  C_3
REMARK    2  A    between atoms: C_3  and  C_4
REMARK    3  A    between atoms: N_16  and  C_17
REMARK                            x       y       z     vdW  Elec       q    Type
REMARK                         _______ _______ _______ _____ _____    ______ ____
ROOT
ATOM      1  O   UNL     1       2.164   5.536  18.017  0.00  0.00    +0.000 OA
ATOM      2  C   UNL     1       2.836   6.218  18.787  0.00  0.00    +0.000 C 
ATOM      3  N   UNL     1       4.211   6.370  18.726  0.00  0.00    +0.000 N 
ATOM      4  H   UNL     1       4.677   6.740  19.549  0.00  0.00    +0.000 HD
ENDROOT
BRANCH   3   5
ATOM      5  C   UNL     1       5.066   5.880  17.706  0.00  0.00    +0.000 A 
ATOM      6  C   UNL     1       4.797   6.009  16.338  0.00  0.00    +0.000 A 
ATOM      7  C   UNL     1       5.687   5.492  15.389  0.00  0.00    +0.000 A 
ATOM      8  C   UNL     1       6.849   4.850  15.806  0.00  0.00    +0.000 A 
ATOM      9  F   UNL     1       7.685   4.346  14.889  0.00  0.00    +0.000 F 
ATOM     10  C   UNL     1       7.141   4.738  17.155  0.00  0.00    +0.000 A 
ATOM     11  F   UNL     1       8.266   4.128  17.554  0.00  0.00    +0.000 F 
ATOM     12  C   UNL     1       6.261   5.256  18.097  0.00  0.00    +0.000 A 
ATOM     13  F   UNL     1       6.546   5.155  19.404  0.00  0.00    +0.000 F 
ENDBRANCH   3   5
BRANCH   2  14
ATOM     14  C   UNL     1       2.165   7.034  19.882  0.00  0.00    +0.000 C 
BRANCH  14  15
ATOM     15  C   UNL     1       1.692   8.379  19.448  0.00  0.00    +0.000 A 
ATOM     16  C   UNL     1       1.845   8.960  18.204  0.00  0.00    +0.000 A 
ATOM     17  O   UNL     1       1.201  10.154  18.138  0.00  0.00    +0.000 OA
ATOM     18  C   UNL     1       0.605  10.355  19.346  0.00  0.00    +0.000 A 
ATOM     19  C   UNL     1      -0.192  11.453  19.684  0.00  0.00    +0.000 A 
ATOM     20  C   UNL     1      -0.703  11.433  20.980  0.00  0.00    +0.000 A 
ATOM     21  C   UNL     1      -0.432  10.388  21.862  0.00  0.00    +0.000 A 
ATOM     22  C   UNL     1       0.360   9.302  21.503  0.00  0.00    +0.000 A 
ATOM     23  C   UNL     1       0.891   9.292  20.200  0.00  0.00    +0.000 A 
ATOM     24  C   UNL     1      -1.098  10.581  23.183  0.00  0.00    +0.000 C 
ATOM     25  C   UNL     1      -1.811  11.931  23.032  0.00  0.00    +0.000 C 
ATOM     26  C   UNL     1      -1.587  12.463  21.607  0.00  0.00    +0.000 C 
ENDBRANCH  14  15
ENDBRANCH   2  14
TORSDOF 3
ENDMDL
MODEL 6
REMARK VINA RESULT:      -8.4      7.119      8.916
REMARK  Name = 
REMARK  3 active torsions:
REMARK  status: ('A' for Active; 'I' for Inactive)
REMARK    1  A    between atoms: C_2  and  C_3
REMARK    2  A    between atoms: C_3  and  C_4
REMARK    3  A    between atoms: N_16  and  C_17
REMARK                            x       y       z     vdW  Elec       q    Type
REMARK                         _______ _______ _______ _____ _____    ______ ____
ROOT
ATOM      1  O   UNL     1       0.877  11.285  18.309  0.00  0.00    +0.000 OA
ATOM      2  C   UNL     1       0.726  10.091  18.056  0.00  0.00    +0.000 C 
ATOM      3  N   UNL     1      -0.468   9.501  17.681  0.00  0.00    +0.000 N 
ATOM      4  H   UNL     1      -0.530   8.488  17.747  0.00  0.00    +0.000 HD
ENDROOT
BRANCH   3   5
ATOM      5  C   UNL     1      -1.686  10.171  17.399  0.00  0.00    +0.000 A 
ATOM      6  C   UNL     1      -2.295  10.178  16.138  0.00  0.00    +0.000 A 
ATOM      7  C   UNL     1      -3.495  10.871  15.935  0.00  0.00    +0.000 A 
ATOM      8  C   UNL     1      -4.090  11.553  16.992  0.00  0.00    +0.000 A 
ATOM      9  F   UNL     1      -5.229  12.224  16.782  0.00  0.00    +0.000 F 
ATOM     10  C   UNL     1      -3.512  11.534  18.251  0.00  0.00    +0.000 A 
ATOM     11  F   UNL     1      -4.091  12.183  19.270  0.00  0.00    +0.000 F 
ATOM     12  C   UNL     1      -2.324  10.842  18.455  0.00  0.00    +0.000 A 
ATOM     13  F   UNL     1      -1.767  10.815  19.675  0.00  0.00    +0.000 F 
ENDBRANCH   3   5
BRANCH   2  14
ATOM     14  C   UNL     1       1.914   9.141  18.080  0.00  0.00    +0.000 C 
BRANCH  14  15
ATOM     15  C   UNL     1       1.873   8.129  19.172  0.00  0.00    +0.000 A 
ATOM     16  C   UNL     1       1.547   8.339  20.498  0.00  0.00    +0.000 A 
ATOM     17  O   UNL     1       1.519   7.169  21.188  0.00  0.00    +0.000 OA
ATOM     18  C   UNL     1       1.816   6.176  20.304  0.00  0.00    +0.000 A 
ATOM     19  C   UNL     1       1.855   4.811  20.603  0.00  0.00    +0.000 A 
ATOM     20  C   UNL     1       2.172   3.982  19.528  0.00  0.00    +0.000 A 
ATOM     21  C   UNL     1       2.428   4.491  18.256  0.00  0.00    +0.000 A 
ATOM     22  C   UNL     1       2.378   5.854  17.980  0.00  0.00    +0.000 A 
ATOM     23  C   UNL     1       2.059   6.718  19.044  0.00  0.00    +0.000 A 
ATOM     24  C   UNL     1       2.730   3.414  17.269  0.00  0.00    +0.000 C 
ATOM     25  C   UNL     1       2.668   2.131  18.109  0.00  0.00    +0.000 C 
ATOM     26  C   UNL     1       2.276   2.491  19.552  0.00  0.00    +0.000 C 
ENDBRANCH  14  15
ENDBRANCH   2  14
TORSDOF 3
ENDMDL
MODEL 7
REMARK VINA RESULT:      -8.4      5.144      6.946
REMARK  Name = 
REMARK  3 active torsions:
REMARK  status: ('A' for Active; 'I' for Inactive)
REMARK    1  A    between atoms: C_2  and  C_3
REMARK    2  A    between atoms: C_3  and  C_4
REMARK    3  A    between atoms: N_16  and  C_17
REMARK                            x       y       z     vdW  Elec       q    Type
REMARK                         _______ _______ _______ _____ _____    ______ ____
ROOT
ATOM      1  O   UNL     1       1.690   5.096  18.152  0.00  0.00    +0.000 OA
ATOM      2  C   UNL     1       2.803   5.477  18.509  0.00  0.00    +0.000 C 
ATOM      3  N   UNL     1       3.120   6.771  18.885  0.00  0.00    +0.000 N 
ATOM      4  H   UNL     1       4.105   7.021  18.911  0.00  0.00    +0.000 HD
ENDROOT
BRANCH   3   5
ATOM      5  C   UNL     1       2.210   7.846  19.049  0.00  0.00    +0.000 A 
ATOM      6  C   UNL     1       1.943   8.796  18.056  0.00  0.00    +0.000 A 
ATOM      7  C   UNL     1       1.036   9.836  18.296  0.00  0.00    +0.000 A 
ATOM      8  C   UNL     1       0.393   9.924  19.527  0.00  0.00    +0.000 A 
ATOM      9  F   UNL     1      -0.461  10.932  19.750  0.00  0.00    +0.000 F 
ATOM     10  C   UNL     1       0.628   8.977  20.510  0.00  0.00    +0.000 A 
ATOM     11  F   UNL     1      -0.000   9.058  21.690  0.00  0.00    +0.000 F 
ATOM     12  C   UNL     1       1.524   7.941  20.270  0.00  0.00    +0.000 A 
ATOM     13  F   UNL     1       1.747   7.018  21.218  0.00  0.00    +0.000 F 
ENDBRANCH   3   5
BRANCH   2  14
ATOM     14  C   UNL     1       3.956   4.490  18.626  0.00  0.00    +0.000 C 
BRANCH  14  15
ATOM     15  C   UNL     1       5.209   4.923  17.947  0.00  0.00    +0.000 A 
ATOM     16  C   UNL     1       6.321   5.502  18.527  0.00  0.00    +0.000 A 
ATOM     17  O   UNL     1       7.316   5.674  17.618  0.00  0.00    +0.000 OA
ATOM     18  C   UNL     1       6.861   5.188  16.429  0.00  0.00    +0.000 A 
ATOM     19  C   UNL     1       7.592   5.141  15.240  0.00  0.00    +0.000 A 
ATOM     20  C   UNL     1       6.916   4.589  14.154  0.00  0.00    +0.000 A 
ATOM     21  C   UNL     1       5.607   4.122  14.262  0.00  0.00    +0.000 A 
ATOM     22  C   UNL     1       4.899   4.174  15.458  0.00  0.00    +0.000 A 
ATOM     23  C   UNL     1       5.554   4.725  16.574  0.00  0.00    +0.000 A 
ATOM     24  C   UNL     1       5.101   3.564  12.974  0.00  0.00    +0.000 C 
ATOM     25  C   UNL     1       6.272   3.777  12.006  0.00  0.00    +0.000 C 
ATOM     26  C   UNL     1       7.451   4.403  12.770  0.00  0.00    +0.000 C 
ENDBRANCH  14  15
ENDBRANCH   2  14
TORSDOF 3
ENDMDL
MODEL 8
REMARK VINA RESULT:      -8.4      5.364      6.950
REMARK  Name = 
REMARK  3 active torsions:
REMARK  status: ('A' for Active; 'I' for Inactive)
REMARK    1  A    between atoms: C_2  and  C_3
REMARK    2  A    between atoms: C_3  and  C_4
REMARK    3  A    between atoms: N_16  and  C_17
REMARK                            x       y       z     vdW  Elec       q    Type
REMARK                         _______ _______ _______ _____ _____    ______ ____
ROOT
ATOM      1  O   UNL     1       8.021   4.354  17.020  0.00  0.00    +0.000 OA
ATOM      2  C   UNL     1       7.240   5.295  16.898  0.00  0.00    +0.000 C 
ATOM      3  N   UNL     1       6.717   5.747  15.699  0.00  0.00    +0.000 N 
ATOM      4  H   UNL     1       6.295   6.672  15.692  0.00  0.00    +0.000 HD
ENDROOT
BRANCH   3   5
ATOM      5  C   UNL     1       6.881   5.140  14.428  0.00  0.00    +0.000 A 
ATOM      6  C   UNL     1       7.891   5.490  13.524  0.00  0.00    +0.000 A 
ATOM      7  C   UNL     1       7.984   4.850  12.282  0.00  0.00    +0.000 A 
ATOM      8  C   UNL     1       7.070   3.856  11.944  0.00  0.00    +0.000 A 
ATOM      9  F   UNL     1       7.160   3.262  10.748  0.00  0.00    +0.000 F 
ATOM     10  C   UNL     1       6.081   3.482  12.839  0.00  0.00    +0.000 A 
ATOM     11  F   UNL     1       5.209   2.518  12.515  0.00  0.00    +0.000 F 
ATOM     12  C   UNL     1       5.992   4.113  14.074  0.00  0.00    +0.000 A 
ATOM     13  F   UNL     1       5.040   3.746  14.944  0.00  0.00    +0.000 F 
ENDBRANCH   3   5
BRANCH   2  14
ATOM     14  C   UNL     1       6.718   6.029  18.125  0.00  0.00    +0.000 C 
BRANCH  14  15
ATOM     15  C   UNL     1       5.244   6.248  18.133  0.00  0.00    +0.000 A 
ATOM     16  C   UNL     1       4.529   7.171  17.395  0.00  0.00    +0.000 A 
ATOM     17  O   UNL     1       3.193   7.020  17.583  0.00  0.00    +0.000 OA
ATOM     18  C   UNL     1       3.024   5.977  18.442  0.00  0.00    +0.000 A 
ATOM     19  C   UNL     1       1.794   5.468  18.867  0.00  0.00    +0.000 A 
ATOM     20  C   UNL     1       1.875   4.386  19.741  0.00  0.00    +0.000 A 
ATOM     21  C   UNL     1       3.098   3.860  20.151  0.00  0.00    +0.000 A 
ATOM     22  C   UNL     1       4.312   4.379  19.710  0.00  0.00    +0.000 A 
ATOM     23  C   UNL     1       4.265   5.472  18.826  0.00  0.00    +0.000 A 
ATOM     24  C   UNL     1       2.932   2.699  21.074  0.00  0.00    +0.000 C 
ATOM     25  C   UNL     1       1.410   2.580  21.228  0.00  0.00    +0.000 C 
ATOM     26  C   UNL     1       0.729   3.640  20.346  0.00  0.00    +0.000 C 
ENDBRANCH  14  15
ENDBRANCH   2  14
TORSDOF 3
ENDMDL
MODEL 9
REMARK VINA RESULT:      -8.4      1.745      3.359
REMARK  Name = 
REMARK  3 active torsions:
REMARK  status: ('A' for Active; 'I' for Inactive)
REMARK    1  A    between atoms: C_2  and  C_3
REMARK    2  A    between atoms: C_3  and  C_4
REMARK    3  A    between atoms: N_16  and  C_17
REMARK                            x       y       z     vdW  Elec       q    Type
REMARK                         _______ _______ _______ _____ _____    ______ ____
ROOT
ATOM      1  O   UNL     1       7.516   8.405  17.340  0.00  0.00    +0.000 OA
ATOM      2  C   UNL     1       8.189   8.040  18.302  0.00  0.00    +0.000 C 
ATOM      3  N   UNL     1       8.982   8.866  19.080  0.00  0.00    +0.000 N 
ATOM      4  H   UNL     1       9.678   8.422  19.673  0.00  0.00    +0.000 HD
ENDROOT
BRANCH   3   5
ATOM      5  C   UNL     1       9.064  10.278  18.993  0.00  0.00    +0.000 A 
ATOM      6  C   UNL     1       8.942  10.992  17.794  0.00  0.00    +0.000 A 
ATOM      7  C   UNL     1       9.043  12.388  17.786  0.00  0.00    +0.000 A 
ATOM      8  C   UNL     1       9.260  13.074  18.978  0.00  0.00    +0.000 A 
ATOM      9  F   UNL     1       9.370  14.408  18.956  0.00  0.00    +0.000 F 
ATOM     10  C   UNL     1       9.358  12.384  20.175  0.00  0.00    +0.000 A 
ATOM     11  F   UNL     1       9.558  13.047  21.322  0.00  0.00    +0.000 F 
ATOM     12  C   UNL     1       9.253  10.998  20.183  0.00  0.00    +0.000 A 
ATOM     13  F   UNL     1       9.339  10.329  21.343  0.00  0.00    +0.000 F 
ENDBRANCH   3   5
BRANCH   2  14
ATOM     14  C   UNL     1       8.148   6.592  18.768  0.00  0.00    +0.000 C 
BRANCH  14  15
ATOM     15  C   UNL     1       6.970   5.820  18.281  0.00  0.00    +0.000 A 
ATOM     16  C   UNL     1       5.816   5.522  18.979  0.00  0.00    +0.000 A 
ATOM     17  O   UNL     1       4.914   4.886  18.187  0.00  0.00    +0.000 OA
ATOM     18  C   UNL     1       5.474   4.776  16.950  0.00  0.00    +0.000 A 
ATOM     19  C   UNL     1       4.858   4.214  15.829  0.00  0.00    +0.000 A 
ATOM     20  C   UNL     1       5.628   4.223  14.668  0.00  0.00    +0.000 A 
ATOM     21  C   UNL     1       6.915   4.758  14.641  0.00  0.00    +0.000 A 
ATOM     22  C   UNL     1       7.507   5.318  15.769  0.00  0.00    +0.000 A 
ATOM     23  C   UNL     1       6.756   5.325  16.958  0.00  0.00    +0.000 A 
ATOM     24  C   UNL     1       7.535   4.668  13.287  0.00  0.00    +0.000 C 
ATOM     25  C   UNL     1       6.464   3.957  12.450  0.00  0.00    +0.000 C 
ATOM     26  C   UNL     1       5.226   3.702  13.325  0.00  0.00    +0.000 C 
ENDBRANCH  14  15
ENDBRANCH   2  14
TORSDOF 3
ENDMDL
