MODEL 1
REMARK VINA RESULT:      -9.2      0.000      0.000
REMARK  Name = 
REMARK  7 active torsions:
REMARK  status: ('A' for Active; 'I' for Inactive)
REMARK    1  A    between atoms: C_1  and  C_2
REMARK    2  A    between atoms: C_2  and  N_3
REMARK    3  A    between atoms: C_2  and  C_21
REMARK    4  A    between atoms: C_4  and  C_6
REMARK    5  A    between atoms: C_6  and  C_7
REMARK    6  A    between atoms: C_7  and  C_8
REMARK    7  A    between atoms: C_11  and  C_12
REMARK                            x       y       z     vdW  Elec       q    Type
REMARK                         _______ _______ _______ _____ _____    ______ ____
ROOT
ATOM      1  N   UNL     1       5.148   5.956  18.074  0.00  0.00    +0.000 N 
ATOM      2  C   UNL     1       4.209   5.480  18.953  0.00  0.00    +0.000 C 
ATOM      3  O   UNL     1       4.307   4.388  19.513  0.00  0.00    +0.000 OA
ATOM      4  H   UNL     1       4.967   6.805  17.553  0.00  0.00    +0.000 HD
ENDROOT
BRANCH   1   6
ATOM      5  C   UNL     1       7.589   5.931  18.313  0.00  0.00    +0.000 C 
ATOM      6  C   UNL     1       6.358   5.219  17.758  0.00  0.00    +0.000 C 
BRANCH   6   7
ATOM      7  C   UNL     1       6.461   5.043  16.274  0.00  0.00    +0.000 A 
ATOM      8  N   UNL     1       7.374   5.543  15.462  0.00  0.00    +0.000 NA
ATOM      9  C   UNL     1       7.138   4.966  14.238  0.00  0.00    +0.000 A 
ATOM     10  C   UNL     1       7.847   5.091  13.034  0.00  0.00    +0.000 A 
ATOM     11  C   UNL     1       7.423   4.353  11.922  0.00  0.00    +0.000 A 
ATOM     12  C   UNL     1       6.310   3.512  12.006  0.00  0.00    +0.000 A 
ATOM     13  C   UNL     1       5.581   3.383  13.196  0.00  0.00    +0.000 A 
ATOM     14  C   UNL     1       6.031   4.127  14.291  0.00  0.00    +0.000 A 
ATOM     15  N   UNL     1       5.583   4.238  15.582  0.00  0.00    +0.000 N 
ATOM     16  H   UNL     1       4.779   3.776  15.986  0.00  0.00    +0.000 HD
ENDBRANCH   6   7
ENDBRANCH   1   6
BRANCH   2  17
ATOM     17  C   UNL     1       3.031   6.405  19.186  0.00  0.00    +0.000 C 
BRANCH  17  18
ATOM     18  C   UNL     1       2.776   7.293  17.971  0.00  0.00    +0.000 C 
BRANCH  18  19
ATOM     19  C   UNL     1       2.065   8.548  18.338  0.00  0.00    +0.000 A 
ATOM     20  N   UNL     1       1.921   9.644  17.623  0.00  0.00    +0.000 NA
ATOM     21  C   UNL     1       1.200  10.470  18.446  0.00  0.00    +0.000 A 
ATOM     22  C   UNL     1       0.915   9.843  19.642  0.00  0.00    +0.000 A 
ATOM     23  O   UNL     1       1.471   8.590  19.570  0.00  0.00    +0.000 OA
BRANCH  22  24
ATOM     24  C   UNL     1       0.211  10.223  20.861  0.00  0.00    +0.000 A 
ATOM     25  C   UNL     1       0.348   9.452  22.025  0.00  0.00    +0.000 A 
ATOM     26  F   UNL     1       1.152   8.378  22.042  0.00  0.00    +0.000 F 
ATOM     27  C   UNL     1      -0.335   9.756  23.203  0.00  0.00    +0.000 A 
ATOM     28  C   UNL     1      -1.183  10.857  23.252  0.00  0.00    +0.000 A 
ATOM     29  C   UNL     1      -1.328  11.651  22.116  0.00  0.00    +0.000 A 
ATOM     30  C   UNL     1      -0.636  11.335  20.940  0.00  0.00    +0.000 A 
ATOM     31  F   UNL     1      -0.824  12.141  19.883  0.00  0.00    +0.000 F 
ENDBRANCH  22  24
ENDBRANCH  18  19
ENDBRANCH  17  18
ENDBRANCH   2  17
TORSDOF 6
ENDMDL
MODEL 2
REMARK VINA RESULT:      -9.2      6.074      8.156
REMARK  Name = 
REMARK  7 active torsions:
REMARK  status: ('A' for Active; 'I' for Inactive)
REMARK    1  A    between atoms: C_1  and  C_2
REMARK    2  A    between atoms: C_2  and  N_3
REMARK    3  A    between atoms: C_2  and  C_21
REMARK    4  A    between atoms: C_4  and  C_6
REMARK    5  A    between atoms: C_6  and  C_7
REMARK    6  A    between atoms: C_7  and  C_8
REMARK    7  A    between atoms: C_11  and  C_12
REMARK                            x       y       z     vdW  Elec       q    Type
REMARK                         _______ _______ _______ _____ _____    ______ ____
ROOT
ATOM      1  N   UNL     1       7.682   5.452  17.273  0.00  0.00    +0.000 N 
ATOM      2  C   UNL     1       7.190   6.733  17.290  0.00  0.00    +0.000 C 
ATOM      3  O   UNL     1       6.170   7.067  16.690  0.00  0.00    +0.000 OA
ATOM      4  H   UNL     1       8.585   5.253  17.685  0.00  0.00    +0.000 HD
ENDROOT
BRANCH   1   6
ATOM      5  C   UNL     1       6.860   4.706  15.086  0.00  0.00    +0.000 C 
ATOM      6  C   UNL     1       7.013   4.375  16.568  0.00  0.00    +0.000 C 
BRANCH   6   7
ATOM      7  C   UNL     1       5.680   4.116  17.203  0.00  0.00    +0.000 A 
ATOM      8  N   UNL     1       4.487   4.219  16.648  0.00  0.00    +0.000 NA
ATOM      9  C   UNL     1       3.603   3.720  17.573  0.00  0.00    +0.000 A 
ATOM     10  C   UNL     1       2.216   3.534  17.480  0.00  0.00    +0.000 A 
ATOM     11  C   UNL     1       1.540   2.957  18.563  0.00  0.00    +0.000 A 
ATOM     12  C   UNL     1       2.231   2.581  19.718  0.00  0.00    +0.000 A 
ATOM     13  C   UNL     1       3.614   2.771  19.834  0.00  0.00    +0.000 A 
ATOM     14  C   UNL     1       4.264   3.343  18.736  0.00  0.00    +0.000 A 
ATOM     15  N   UNL     1       5.577   3.657  18.497  0.00  0.00    +0.000 N 
ATOM     16  H   UNL     1       6.354   3.534  19.133  0.00  0.00    +0.000 HD
ENDBRANCH   6   7
ENDBRANCH   1   6
BRANCH   2  17
ATOM     17  C   UNL     1       8.005   7.714  18.110  0.00  0.00    +0.000 C 
BRANCH  17  18
ATOM     18  C   UNL     1       7.896   9.129  17.549  0.00  0.00    +0.000 C 
BRANCH  18  19
ATOM     19  C   UNL     1       8.717  10.099  18.323  0.00  0.00    +0.000 A 
ATOM     20  N   UNL     1       9.372   9.900  19.448  0.00  0.00    +0.000 NA
ATOM     21  C   UNL     1       9.935  11.122  19.711  0.00  0.00    +0.000 A 
ATOM     22  C   UNL     1       9.613  12.033  18.725  0.00  0.00    +0.000 A 
ATOM     23  O   UNL     1       8.826  11.367  17.818  0.00  0.00    +0.000 OA
BRANCH  22  24
ATOM     24  C   UNL     1       9.909  13.441  18.488  0.00  0.00    +0.000 A 
ATOM     25  C   UNL     1      10.747  13.816  17.427  0.00  0.00    +0.000 A 
ATOM     26  F   UNL     1      11.257  12.891  16.599  0.00  0.00    +0.000 F 
ATOM     27  C   UNL     1      11.089  15.147  17.184  0.00  0.00    +0.000 A 
ATOM     28  C   UNL     1      10.592  16.153  18.005  0.00  0.00    +0.000 A 
ATOM     29  C   UNL     1       9.745  15.813  19.057  0.00  0.00    +0.000 A 
ATOM     30  C   UNL     1       9.410  14.474  19.290  0.00  0.00    +0.000 A 
ATOM     31  F   UNL     1       8.592  14.217  20.322  0.00  0.00    +0.000 F 
ENDBRANCH  22  24
ENDBRANCH  18  19
ENDBRANCH  17  18
ENDBRANCH   2  17
TORSDOF 6
ENDMDL
MODEL 3
REMARK VINA RESULT:      -9.2      1.419      2.115
REMARK  Name = 
REMARK  7 active torsions:
REMARK  status: ('A' for Active; 'I' for Inactive)
REMARK    1  A    between atoms: C_1  and  C_2
REMARK    2  A    between atoms: C_2  and  N_3
REMARK    3  A    between atoms: C_2  and  C_21
REMARK    4  A    between atoms: C_4  and  C_6
REMARK    5  A    between atoms: C_6  and  C_7
REMARK    6  A    between atoms: C_7  and  C_8
REMARK    7  A    between atoms: C_11  and  C_12
REMARK                            x       y       z     vdW  Elec       q    Type
REMARK                         _______ _______ _______ _____ _____    ______ ____
ROOT
ATOM      1  N   UNL     1       5.076   5.588  17.980  0.00  0.00    +0.000 N 
ATOM      2  C   UNL     1       4.334   4.700  18.717  0.00  0.00    +0.000 C 
ATOM      3  O   UNL     1       4.791   3.642  19.148  0.00  0.00    +0.000 OA
ATOM      4  H   UNL     1       4.626   6.387  17.550  0.00  0.00    +0.000 HD
ENDROOT
BRANCH   1   6
ATOM      5  C   UNL     1       7.294   6.632  17.913  0.00  0.00    +0.000 C 
ATOM      6  C   UNL     1       6.477   5.365  17.677  0.00  0.00    +0.000 C 
BRANCH   6   7
ATOM      7  C   UNL     1       6.612   4.893  16.261  0.00  0.00    +0.000 A 
ATOM      8  N   UNL     1       5.893   3.974  15.643  0.00  0.00    +0.000 NA
ATOM      9  C   UNL     1       6.284   4.020  14.327  0.00  0.00    +0.000 A 
ATOM     10  C   UNL     1       5.801   3.305  13.221  0.00  0.00    +0.000 A 
ATOM     11  C   UNL     1       6.346   3.569  11.959  0.00  0.00    +0.000 A 
ATOM     12  C   UNL     1       7.356   4.522  11.801  0.00  0.00    +0.000 A 
ATOM     13  C   UNL     1       7.861   5.236  12.896  0.00  0.00    +0.000 A 
ATOM     14  C   UNL     1       7.295   4.956  14.143  0.00  0.00    +0.000 A 
ATOM     15  N   UNL     1       7.525   5.458  15.399  0.00  0.00    +0.000 N 
ATOM     16  H   UNL     1       8.210   6.157  15.655  0.00  0.00    +0.000 HD
ENDBRANCH   6   7
ENDBRANCH   1   6
BRANCH   2  17
ATOM     17  C   UNL     1       2.899   5.122  18.962  0.00  0.00    +0.000 C 
BRANCH  17  18
ATOM     18  C   UNL     1       2.830   6.357  19.856  0.00  0.00    +0.000 C 
BRANCH  18  19
ATOM     19  C   UNL     1       2.367   7.558  19.110  0.00  0.00    +0.000 A 
ATOM     20  N   UNL     1       2.816   8.033  17.967  0.00  0.00    +0.000 NA
ATOM     21  C   UNL     1       2.045   9.147  17.758  0.00  0.00    +0.000 A 
ATOM     22  C   UNL     1       1.134   9.312  18.783  0.00  0.00    +0.000 A 
ATOM     23  O   UNL     1       1.338   8.275  19.659  0.00  0.00    +0.000 OA
BRANCH  22  24
ATOM     24  C   UNL     1       0.099  10.291  19.092  0.00  0.00    +0.000 A 
ATOM     25  C   UNL     1       0.234  11.132  20.206  0.00  0.00    +0.000 A 
ATOM     26  F   UNL     1       1.328  11.070  20.981  0.00  0.00    +0.000 F 
ATOM     27  C   UNL     1      -0.747  12.058  20.562  0.00  0.00    +0.000 A 
ATOM     28  C   UNL     1      -1.905  12.173  19.801  0.00  0.00    +0.000 A 
ATOM     29  C   UNL     1      -2.060  11.362  18.679  0.00  0.00    +0.000 A 
ATOM     30  C   UNL     1      -1.068  10.437  18.332  0.00  0.00    +0.000 A 
ATOM     31  F   UNL     1      -1.284   9.686  17.241  0.00  0.00    +0.000 F 
ENDBRANCH  22  24
ENDBRANCH  18  19
ENDBRANCH  17  18
ENDBRANCH   2  17
TORSDOF 6
ENDMDL
MODEL 4
REMARK VINA RESULT:      -9.2      2.710      4.112
REMARK  Name = 
REMARK  7 active torsions:
REMARK  status: ('A' for Active; 'I' for Inactive)
REMARK    1  A    between atoms: C_1  and  C_2
REMARK    2  A    between atoms: C_2  and  N_3
REMARK    3  A    between atoms: C_2  and  C_21
REMARK    4  A    between atoms: C_4  and  C_6
REMARK    5  A    between atoms: C_6  and  C_7
REMARK    6  A    between atoms: C_7  and  C_8
REMARK    7  A    between atoms: C_11  and  C_12
REMARK                            x       y       z     vdW  Elec       q    Type
REMARK                         _______ _______ _______ _____ _____    ______ ____
ROOT
ATOM      1  N   UNL     1       2.764   2.705  19.062  0.00  0.00    +0.000 N 
ATOM      2  C   UNL     1       1.475   3.164  18.963  0.00  0.00    +0.000 C 
ATOM      3  O   UNL     1       0.924   3.387  17.886  0.00  0.00    +0.000 OA
ATOM      4  H   UNL     1       3.211   2.646  19.969  0.00  0.00    +0.000 HD
ENDROOT
BRANCH   1   6
ATOM      5  C   UNL     1       4.175   1.012  17.987  0.00  0.00    +0.000 C 
ATOM      6  C   UNL     1       3.573   2.411  17.894  0.00  0.00    +0.000 C 
BRANCH   6   7
ATOM      7  C   UNL     1       4.644   3.451  17.756  0.00  0.00    +0.000 A 
ATOM      8  N   UNL     1       4.847   4.273  16.743  0.00  0.00    +0.000 NA
ATOM      9  C   UNL     1       5.832   5.136  17.158  0.00  0.00    +0.000 A 
ATOM     10  C   UNL     1       6.387   6.246  16.503  0.00  0.00    +0.000 A 
ATOM     11  C   UNL     1       7.361   7.001  17.167  0.00  0.00    +0.000 A 
ATOM     12  C   UNL     1       7.779   6.654  18.455  0.00  0.00    +0.000 A 
ATOM     13  C   UNL     1       7.246   5.542  19.120  0.00  0.00    +0.000 A 
ATOM     14  C   UNL     1       6.271   4.810  18.436  0.00  0.00    +0.000 A 
ATOM     15  N   UNL     1       5.540   3.699  18.772  0.00  0.00    +0.000 N 
ATOM     16  H   UNL     1       5.602   3.172  19.633  0.00  0.00    +0.000 HD
ENDBRANCH   6   7
ENDBRANCH   1   6
BRANCH   2  17
ATOM     17  C   UNL     1       0.774   3.378  20.291  0.00  0.00    +0.000 C 
BRANCH  17  18
ATOM     18  C   UNL     1       1.595   4.277  21.211  0.00  0.00    +0.000 C 
BRANCH  18  19
ATOM     19  C   UNL     1       1.985   5.549  20.543  0.00  0.00    +0.000 A 
ATOM     20  N   UNL     1       3.007   5.772  19.744  0.00  0.00    +0.000 NA
ATOM     21  C   UNL     1       2.889   7.102  19.437  0.00  0.00    +0.000 A 
ATOM     22  C   UNL     1       1.782   7.652  20.054  0.00  0.00    +0.000 A 
ATOM     23  O   UNL     1       1.189   6.640  20.768  0.00  0.00    +0.000 OA
BRANCH  22  24
ATOM     24  C   UNL     1       1.182   8.980  20.098  0.00  0.00    +0.000 A 
ATOM     25  C   UNL     1       0.849   9.643  18.908  0.00  0.00    +0.000 A 
ATOM     26  F   UNL     1       1.044   9.053  17.719  0.00  0.00    +0.000 F 
ATOM     27  C   UNL     1       0.307  10.929  18.901  0.00  0.00    +0.000 A 
ATOM     28  C   UNL     1       0.079  11.595  20.100  0.00  0.00    +0.000 A 
ATOM     29  C   UNL     1       0.386  10.956  21.298  0.00  0.00    +0.000 A 
ATOM     30  C   UNL     1       0.928   9.665  21.292  0.00  0.00    +0.000 A 
ATOM     31  F   UNL     1       1.203   9.109  22.483  0.00  0.00    +0.000 F 
ENDBRANCH  22  24
ENDBRANCH  18  19
ENDBRANCH  17  18
ENDBRANCH   2  17
TORSDOF 6
ENDMDL
MODEL 5
REMARK VINA RESULT:      -9.1      6.044      8.363
REMARK  Name = 
REMARK  7 active torsions:
REMARK  status: ('A' for Active; 'I' for Inactive)
REMARK    1  A    between atoms: C_1  and  C_2
REMARK    2  A    between atoms: C_2  and  N_3
REMARK    3  A    between atoms: C_2  and  C_21
REMARK    4  A    between atoms: C_4  and  C_6
REMARK    5  A    between atoms: C_6  and  C_7
REMARK    6  A    between atoms: C_7  and  C_8
REMARK    7  A    between atoms: C_11  and  C_12
REMARK                            x       y       z     vdW  Elec       q    Type
REMARK                         _______ _______ _______ _____ _____    ______ ____
ROOT
ATOM      1  N   UNL     1       6.426   5.777  18.004  0.00  0.00    +0.000 N 
ATOM      2  C   UNL     1       7.426   6.500  17.405  0.00  0.00    +0.000 C 
ATOM      3  O   UNL     1       7.803   6.295  16.252  0.00  0.00    +0.000 OA
ATOM      4  H   UNL     1       6.230   5.906  18.989  0.00  0.00    +0.000 HD
ENDROOT
BRANCH   1   6
ATOM      5  C   UNL     1       5.070   5.261  16.027  0.00  0.00    +0.000 C 
ATOM      6  C   UNL     1       5.704   4.728  17.308  0.00  0.00    +0.000 C 
BRANCH   6   7
ATOM      7  C   UNL     1       4.668   4.146  18.220  0.00  0.00    +0.000 A 
ATOM      8  N   UNL     1       4.863   3.424  19.308  0.00  0.00    +0.000 NA
ATOM      9  C   UNL     1       3.623   3.273  19.880  0.00  0.00    +0.000 A 
ATOM     10  C   UNL     1       3.259   2.649  21.083  0.00  0.00    +0.000 A 
ATOM     11  C   UNL     1       1.914   2.670  21.471  0.00  0.00    +0.000 A 
ATOM     12  C   UNL     1       0.949   3.294  20.675  0.00  0.00    +0.000 A 
ATOM     13  C   UNL     1       1.292   3.911  19.465  0.00  0.00    +0.000 A 
ATOM     14  C   UNL     1       2.642   3.880  19.104  0.00  0.00    +0.000 A 
ATOM     15  N   UNL     1       3.325   4.379  18.025  0.00  0.00    +0.000 N 
ATOM     16  H   UNL     1       2.931   4.877  17.238  0.00  0.00    +0.000 HD
ENDBRANCH   6   7
ENDBRANCH   1   6
BRANCH   2  17
ATOM     17  C   UNL     1       8.037   7.580  18.277  0.00  0.00    +0.000 C 
BRANCH  17  18
ATOM     18  C   UNL     1       7.993   8.940  17.587  0.00  0.00    +0.000 C 
BRANCH  18  19
ATOM     19  C   UNL     1       8.688   9.990  18.381  0.00  0.00    +0.000 A 
ATOM     20  N   UNL     1       9.284   9.869  19.549  0.00  0.00    +0.000 NA
ATOM     21  C   UNL     1       9.735  11.137  19.810  0.00  0.00    +0.000 A 
ATOM     22  C   UNL     1       9.407  11.996  18.780  0.00  0.00    +0.000 A 
ATOM     23  O   UNL     1       8.732  11.249  17.846  0.00  0.00    +0.000 OA
BRANCH  22  24
ATOM     24  C   UNL     1       9.611  13.416  18.520  0.00  0.00    +0.000 A 
ATOM     25  C   UNL     1      10.503  13.829  17.519  0.00  0.00    +0.000 A 
ATOM     26  F   UNL     1      11.152  12.927  16.767  0.00  0.00    +0.000 F 
ATOM     27  C   UNL     1      10.757  15.177  17.259  0.00  0.00    +0.000 A 
ATOM     28  C   UNL     1      10.116  16.161  18.002  0.00  0.00    +0.000 A 
ATOM     29  C   UNL     1       9.213  15.782  18.993  0.00  0.00    +0.000 A 
ATOM     30  C   UNL     1       8.966  14.427  19.242  0.00  0.00    +0.000 A 
ATOM     31  F   UNL     1       8.087  14.132  20.213  0.00  0.00    +0.000 F 
ENDBRANCH  22  24
ENDBRANCH  18  19
ENDBRANCH  17  18
ENDBRANCH   2  17
TORSDOF 6
ENDMDL
MODEL 6
REMARK VINA RESULT:      -9.1      1.408      2.316
REMARK  Name = 
REMARK  7 active torsions:
REMARK  status: ('A' for Active; 'I' for Inactive)
REMARK    1  A    between atoms: C_1  and  C_2
REMARK    2  A    between atoms: C_2  and  N_3
REMARK    3  A    between atoms: C_2  and  C_21
REMARK    4  A    between atoms: C_4  and  C_6
REMARK    5  A    between atoms: C_6  and  C_7
REMARK    6  A    between atoms: C_7  and  C_8
REMARK    7  A    between atoms: C_11  and  C_12
REMARK                            x       y       z     vdW  Elec       q    Type
REMARK                         _______ _______ _______ _____ _____    ______ ____
ROOT
ATOM      1  N   UNL     1       5.048   5.330  18.111  0.00  0.00    +0.000 N 
ATOM      2  C   UNL     1       4.097   4.450  18.566  0.00  0.00    +0.000 C 
ATOM      3  O   UNL     1       4.328   3.258  18.763  0.00  0.00    +0.000 OA
ATOM      4  H   UNL     1       4.782   6.272  17.855  0.00  0.00    +0.000 HD
ENDROOT
BRANCH   1   6
ATOM      5  C   UNL     1       7.396   6.009  18.309  0.00  0.00    +0.000 C 
ATOM      6  C   UNL     1       6.419   4.927  17.859  0.00  0.00    +0.000 C 
BRANCH   6   7
ATOM      7  C   UNL     1       6.588   4.620  16.402  0.00  0.00    +0.000 A 
ATOM      8  N   UNL     1       5.893   3.770  15.669  0.00  0.00    +0.000 NA
ATOM      9  C   UNL     1       6.309   3.969  14.375  0.00  0.00    +0.000 A 
ATOM     10  C   UNL     1       5.857   3.380  13.185  0.00  0.00    +0.000 A 
ATOM     11  C   UNL     1       6.423   3.791  11.972  0.00  0.00    +0.000 A 
ATOM     12  C   UNL     1       7.424   4.765  11.945  0.00  0.00    +0.000 A 
ATOM     13  C   UNL     1       7.898   5.357  13.124  0.00  0.00    +0.000 A 
ATOM     14  C   UNL     1       7.311   4.931  14.320  0.00  0.00    +0.000 A 
ATOM     15  N   UNL     1       7.510   5.289  15.629  0.00  0.00    +0.000 N 
ATOM     16  H   UNL     1       8.181   5.961  15.977  0.00  0.00    +0.000 HD
ENDBRANCH   6   7
ENDBRANCH   1   6
BRANCH   2  17
ATOM     17  C   UNL     1       2.731   5.062  18.807  0.00  0.00    +0.000 C 
BRANCH  17  18
ATOM     18  C   UNL     1       2.823   6.273  19.732  0.00  0.00    +0.000 C 
BRANCH  18  19
ATOM     19  C   UNL     1       2.391   7.525  19.053  0.00  0.00    +0.000 A 
ATOM     20  N   UNL     1       2.867   8.062  17.949  0.00  0.00    +0.000 NA
ATOM     21  C   UNL     1       2.116   9.198  17.796  0.00  0.00    +0.000 A 
ATOM     22  C   UNL     1       1.190   9.315  18.814  0.00  0.00    +0.000 A 
ATOM     23  O   UNL     1       1.363   8.223  19.628  0.00  0.00    +0.000 OA
BRANCH  22  24
ATOM     24  C   UNL     1       0.164  10.290  19.165  0.00  0.00    +0.000 A 
ATOM     25  C   UNL     1      -0.948  10.475  18.330  0.00  0.00    +0.000 A 
ATOM     26  F   UNL     1      -1.099   9.738  17.219  0.00  0.00    +0.000 F 
ATOM     27  C   UNL     1      -1.935  11.422  18.606  0.00  0.00    +0.000 A 
ATOM     28  C   UNL     1      -1.838  12.217  19.742  0.00  0.00    +0.000 A 
ATOM     29  C   UNL     1      -0.753  12.045  20.598  0.00  0.00    +0.000 A 
ATOM     30  C   UNL     1       0.230  11.091  20.310  0.00  0.00    +0.000 A 
ATOM     31  F   UNL     1       1.249  10.980  21.177  0.00  0.00    +0.000 F 
ENDBRANCH  22  24
ENDBRANCH  18  19
ENDBRANCH  17  18
ENDBRANCH   2  17
TORSDOF 6
ENDMDL
MODEL 7
REMARK VINA RESULT:      -9.0      1.405      2.180
REMARK  Name = 
REMARK  7 active torsions:
REMARK  status: ('A' for Active; 'I' for Inactive)
REMARK    1  A    between atoms: C_1  and  C_2
REMARK    2  A    between atoms: C_2  and  N_3
REMARK    3  A    between atoms: C_2  and  C_21
REMARK    4  A    between atoms: C_4  and  C_6
REMARK    5  A    between atoms: C_6  and  C_7
REMARK    6  A    between atoms: C_7  and  C_8
REMARK    7  A    between atoms: C_11  and  C_12
REMARK                            x       y       z     vdW  Elec       q    Type
REMARK                         _______ _______ _______ _____ _____    ______ ____
ROOT
ATOM      1  N   UNL     1       5.111   5.151  18.037  0.00  0.00    +0.000 N 
ATOM      2  C   UNL     1       4.528   4.330  18.969  0.00  0.00    +0.000 C 
ATOM      3  O   UNL     1       5.143   3.442  19.558  0.00  0.00    +0.000 OA
ATOM      4  H   UNL     1       4.538   5.788  17.497  0.00  0.00    +0.000 HD
ENDROOT
BRANCH   1   6
ATOM      5  C   UNL     1       7.239   6.368  17.993  0.00  0.00    +0.000 C 
ATOM      6  C   UNL     1       6.518   5.057  17.694  0.00  0.00    +0.000 C 
BRANCH   6   7
ATOM      7  C   UNL     1       6.654   4.685  16.248  0.00  0.00    +0.000 A 
ATOM      8  N   UNL     1       5.964   3.780  15.578  0.00  0.00    +0.000 NA
ATOM      9  C   UNL     1       6.337   3.927  14.265  0.00  0.00    +0.000 A 
ATOM     10  C   UNL     1       5.869   3.267  13.119  0.00  0.00    +0.000 A 
ATOM     11  C   UNL     1       6.388   3.635  11.871  0.00  0.00    +0.000 A 
ATOM     12  C   UNL     1       7.357   4.636  11.767  0.00  0.00    +0.000 A 
ATOM     13  C   UNL     1       7.847   5.297  12.901  0.00  0.00    +0.000 A 
ATOM     14  C   UNL     1       7.308   4.914  14.133  0.00  0.00    +0.000 A 
ATOM     15  N   UNL     1       7.533   5.341  15.416  0.00  0.00    +0.000 N 
ATOM     16  H   UNL     1       8.193   6.049  15.711  0.00  0.00    +0.000 HD
ENDBRANCH   6   7
ENDBRANCH   1   6
BRANCH   2  17
ATOM     17  C   UNL     1       3.058   4.601  19.223  0.00  0.00    +0.000 C 
BRANCH  17  18
ATOM     18  C   UNL     1       2.865   5.845  20.087  0.00  0.00    +0.000 C 
BRANCH  18  19
ATOM     19  C   UNL     1       2.485   7.033  19.275  0.00  0.00    +0.000 A 
ATOM     20  N   UNL     1       2.699   7.249  17.994  0.00  0.00    +0.000 NA
ATOM     21  C   UNL     1       2.156   8.490  17.784  0.00  0.00    +0.000 A 
ATOM     22  C   UNL     1       1.614   8.992  18.951  0.00  0.00    +0.000 A 
ATOM     23  O   UNL     1       1.821   8.041  19.920  0.00  0.00    +0.000 OA
BRANCH  22  24
ATOM     24  C   UNL     1       0.936  10.228  19.322  0.00  0.00    +0.000 A 
ATOM     25  C   UNL     1      -0.183  10.193  20.167  0.00  0.00    +0.000 A 
ATOM     26  F   UNL     1      -0.622   9.029  20.670  0.00  0.00    +0.000 F 
ATOM     27  C   UNL     1      -0.886  11.346  20.519  0.00  0.00    +0.000 A 
ATOM     28  C   UNL     1      -0.481  12.583  20.032  0.00  0.00    +0.000 A 
ATOM     29  C   UNL     1       0.636  12.652  19.202  0.00  0.00    +0.000 A 
ATOM     30  C   UNL     1       1.333  11.488  18.857  0.00  0.00    +0.000 A 
ATOM     31  F   UNL     1       2.398  11.626  18.052  0.00  0.00    +0.000 F 
ENDBRANCH  22  24
ENDBRANCH  18  19
ENDBRANCH  17  18
ENDBRANCH   2  17
TORSDOF 6
ENDMDL
MODEL 8
REMARK VINA RESULT:      -8.9      6.049      8.224
REMARK  Name = 
REMARK  7 active torsions:
REMARK  status: ('A' for Active; 'I' for Inactive)
REMARK    1  A    between atoms: C_1  and  C_2
REMARK    2  A    between atoms: C_2  and  N_3
REMARK    3  A    between atoms: C_2  and  C_21
REMARK    4  A    between atoms: C_4  and  C_6
REMARK    5  A    between atoms: C_6  and  C_7
REMARK    6  A    between atoms: C_7  and  C_8
REMARK    7  A    between atoms: C_11  and  C_12
REMARK                            x       y       z     vdW  Elec       q    Type
REMARK                         _______ _______ _______ _____ _____    ______ ____
ROOT
ATOM      1  N   UNL     1       7.720   5.532  17.425  0.00  0.00    +0.000 N 
ATOM      2  C   UNL     1       7.152   6.777  17.528  0.00  0.00    +0.000 C 
ATOM      3  O   UNL     1       6.049   7.052  17.059  0.00  0.00    +0.000 OA
ATOM      4  H   UNL     1       8.676   5.386  17.725  0.00  0.00    +0.000 HD
ENDROOT
BRANCH   1   6
ATOM      5  C   UNL     1       6.849   4.698  15.289  0.00  0.00    +0.000 C 
ATOM      6  C   UNL     1       7.043   4.423  16.778  0.00  0.00    +0.000 C 
BRANCH   6   7
ATOM      7  C   UNL     1       5.729   4.178  17.456  0.00  0.00    +0.000 A 
ATOM      8  N   UNL     1       5.512   3.942  18.736  0.00  0.00    +0.000 NA
ATOM      9  C   UNL     1       4.147   3.952  18.890  0.00  0.00    +0.000 A 
ATOM     10  C   UNL     1       3.373   3.818  20.052  0.00  0.00    +0.000 A 
ATOM     11  C   UNL     1       1.979   3.908  19.946  0.00  0.00    +0.000 A 
ATOM     12  C   UNL     1       1.369   4.121  18.707  0.00  0.00    +0.000 A 
ATOM     13  C   UNL     1       2.124   4.244  17.533  0.00  0.00    +0.000 A 
ATOM     14  C   UNL     1       3.513   4.155  17.669  0.00  0.00    +0.000 A 
ATOM     15  N   UNL     1       4.540   4.239  16.764  0.00  0.00    +0.000 N 
ATOM     16  H   UNL     1       4.456   4.373  15.765  0.00  0.00    +0.000 HD
ENDBRANCH   6   7
ENDBRANCH   1   6
BRANCH   2  17
ATOM     17  C   UNL     1       7.993   7.797  18.270  0.00  0.00    +0.000 C 
BRANCH  17  18
ATOM     18  C   UNL     1       7.942   9.161  17.586  0.00  0.00    +0.000 C 
BRANCH  18  19
ATOM     19  C   UNL     1       8.736  10.182  18.322  0.00  0.00    +0.000 A 
ATOM     20  N   UNL     1       9.338  10.066  19.487  0.00  0.00    +0.000 NA
ATOM     21  C   UNL     1       9.898  11.301  19.683  0.00  0.00    +0.000 A 
ATOM     22  C   UNL     1       9.628  12.136  18.617  0.00  0.00    +0.000 A 
ATOM     23  O   UNL     1       8.878  11.407  17.728  0.00  0.00    +0.000 OA
BRANCH  22  24
ATOM     24  C   UNL     1       9.947  13.521  18.288  0.00  0.00    +0.000 A 
ATOM     25  C   UNL     1       9.254  14.570  18.908  0.00  0.00    +0.000 A 
ATOM     26  F   UNL     1       8.315  14.317  19.833  0.00  0.00    +0.000 F 
ATOM     27  C   UNL     1       9.499  15.909  18.598  0.00  0.00    +0.000 A 
ATOM     28  C   UNL     1      10.459  16.239  17.649  0.00  0.00    +0.000 A 
ATOM     29  C   UNL     1      11.175  15.218  17.027  0.00  0.00    +0.000 A 
ATOM     30  C   UNL     1      10.920  13.879  17.348  0.00  0.00    +0.000 A 
ATOM     31  F   UNL     1      11.644  12.947  16.709  0.00  0.00    +0.000 F 
ENDBRANCH  22  24
ENDBRANCH  18  19
ENDBRANCH  17  18
ENDBRANCH   2  17
TORSDOF 6
ENDMDL
MODEL 9
REMARK VINA RESULT:      -8.9      6.036      8.313
REMARK  Name = 
REMARK  7 active torsions:
REMARK  status: ('A' for Active; 'I' for Inactive)
REMARK    1  A    between atoms: C_1  and  C_2
REMARK    2  A    between atoms: C_2  and  N_3
REMARK    3  A    between atoms: C_2  and  C_21
REMARK    4  A    between atoms: C_4  and  C_6
REMARK    5  A    between atoms: C_6  and  C_7
REMARK    6  A    between atoms: C_7  and  C_8
REMARK    7  A    between atoms: C_11  and  C_12
REMARK                            x       y       z     vdW  Elec       q    Type
REMARK                         _______ _______ _______ _____ _____    ______ ____
ROOT
ATOM      1  N   UNL     1       6.340   5.910  17.724  0.00  0.00    +0.000 N 
ATOM      2  C   UNL     1       7.405   6.589  17.187  0.00  0.00    +0.000 C 
ATOM      3  O   UNL     1       7.828   6.380  16.051  0.00  0.00    +0.000 OA
ATOM      4  H   UNL     1       6.103   6.035  18.700  0.00  0.00    +0.000 HD
ENDROOT
BRANCH   1   6
ATOM      5  C   UNL     1       5.297   5.402  15.563  0.00  0.00    +0.000 C 
ATOM      6  C   UNL     1       5.601   4.910  16.975  0.00  0.00    +0.000 C 
BRANCH   6   7
ATOM      7  C   UNL     1       4.341   4.569  17.710  0.00  0.00    +0.000 A 
ATOM      8  N   UNL     1       3.334   3.828  17.287  0.00  0.00    +0.000 NA
ATOM      9  C   UNL     1       2.505   3.673  18.371  0.00  0.00    +0.000 A 
ATOM     10  C   UNL     1       1.324   2.927  18.500  0.00  0.00    +0.000 A 
ATOM     11  C   UNL     1       0.679   2.897  19.742  0.00  0.00    +0.000 A 
ATOM     12  C   UNL     1       1.195   3.601  20.833  0.00  0.00    +0.000 A 
ATOM     13  C   UNL     1       2.366   4.362  20.721  0.00  0.00    +0.000 A 
ATOM     14  C   UNL     1       2.993   4.370  19.471  0.00  0.00    +0.000 A 
ATOM     15  N   UNL     1       4.132   4.978  19.008  0.00  0.00    +0.000 N 
ATOM     16  H   UNL     1       4.749   5.584  19.532  0.00  0.00    +0.000 HD
ENDBRANCH   6   7
ENDBRANCH   1   6
BRANCH   2  17
ATOM     17  C   UNL     1       8.027   7.622  18.106  0.00  0.00    +0.000 C 
BRANCH  17  18
ATOM     18  C   UNL     1       7.906   9.027  17.522  0.00  0.00    +0.000 C 
BRANCH  18  19
ATOM     19  C   UNL     1       8.650  10.031  18.330  0.00  0.00    +0.000 A 
ATOM     20  N   UNL     1       9.286   9.854  19.469  0.00  0.00    +0.000 NA
ATOM     21  C   UNL     1       9.772  11.101  19.761  0.00  0.00    +0.000 A 
ATOM     22  C   UNL     1       9.424  12.006  18.778  0.00  0.00    +0.000 A 
ATOM     23  O   UNL     1       8.700  11.309  17.842  0.00  0.00    +0.000 OA
BRANCH  22  24
ATOM     24  C   UNL     1       9.647  13.432  18.565  0.00  0.00    +0.000 A 
ATOM     25  C   UNL     1       8.998  14.375  19.376  0.00  0.00    +0.000 A 
ATOM     26  F   UNL     1       8.194  13.980  20.375  0.00  0.00    +0.000 F 
ATOM     27  C   UNL     1       9.152  15.749  19.186  0.00  0.00    +0.000 A 
ATOM     28  C   UNL     1       9.972  16.224  18.169  0.00  0.00    +0.000 A 
ATOM     29  C   UNL     1      10.641  15.310  17.357  0.00  0.00    +0.000 A 
ATOM     30  C   UNL     1      10.479  13.934  17.559  0.00  0.00    +0.000 A 
ATOM     31  F   UNL     1      11.152  13.111  16.739  0.00  0.00    +0.000 F 
ENDBRANCH  22  24
ENDBRANCH  18  19
ENDBRANCH  17  18
ENDBRANCH   2  17
TORSDOF 6
ENDMDL
