MODEL 1
REMARK VINA RESULT:      -8.2      0.000      0.000
REMARK  Name = 
REMARK  4 active torsions:
REMARK  status: ('A' for Active; 'I' for Inactive)
REMARK    1  A    between atoms: C_1  and  C_2
REMARK    2  A    between atoms: C_7  and  C_8
REMARK    3  A    between atoms: N_10  and  C_11
REMARK    4  A    between atoms: C_15  and  N_16
REMARK                            x       y       z     vdW  Elec       q    Type
REMARK                         _______ _______ _______ _____ _____    ______ ____
ROOT
ATOM      1  C   UNL     1       7.788   7.786  18.044  0.00  0.00    +0.000 C 
ATOM      2  O   UNL     1       8.172   6.804  18.688  0.00  0.00    +0.000 OA
ATOM      3  N   UNL     1       6.852   7.688  17.021  0.00  0.00    +0.000 N 
ATOM      4  H   UNL     1       6.892   8.417  16.321  0.00  0.00    +0.000 HD
ENDROOT
BRANCH   1  11
ATOM      5  C   UNL     1      10.440  14.580  18.022  0.00  0.00    +0.000 C 
ATOM      6  C   UNL     1      10.147  13.178  18.480  0.00  0.00    +0.000 A 
ATOM      7  C   UNL     1      10.756  12.659  19.630  0.00  0.00    +0.000 A 
ATOM      8  C   UNL     1      10.489  11.347  20.046  0.00  0.00    +0.000 A 
ATOM      9  C   UNL     1       9.609  10.640  19.237  0.00  0.00    +0.000 A 
ATOM     10  O   UNL     1       9.184   9.342  19.374  0.00  0.00    +0.000 OA
ATOM     11  C   UNL     1       8.362   9.091  18.299  0.00  0.00    +0.000 A 
ATOM     12  C   UNL     1       8.232  10.233  17.526  0.00  0.00    +0.000 A 
ATOM     13  C   UNL     1       9.039  11.218  18.111  0.00  0.00    +0.000 A 
ATOM     14  N   UNL     1       9.281  12.486  17.707  0.00  0.00    +0.000 NA
ENDBRANCH   1  11
BRANCH   3  15
ATOM     15  C   UNL     1       6.329   6.418  16.667  0.00  0.00    +0.000 A 
ATOM     16  C   UNL     1       7.070   5.580  15.840  0.00  0.00    +0.000 A 
ATOM     17  C   UNL     1       6.648   4.261  15.642  0.00  0.00    +0.000 A 
ATOM     18  C   UNL     1       5.448   3.805  16.196  0.00  0.00    +0.000 A 
ATOM     19  C   UNL     1       4.640   4.673  16.940  0.00  0.00    +0.000 A 
ATOM     20  C   UNL     1       5.101   5.978  17.189  0.00  0.00    +0.000 A 
BRANCH  19  21
ATOM     21  N   UNL     1       3.366   4.249  17.425  0.00  0.00    +0.000 N 
ATOM     22  C   UNL     1       2.438   5.004  18.112  0.00  0.00    +0.000 A 
ATOM     23  C   UNL     1       1.398   4.157  18.413  0.00  0.00    +0.000 A 
ATOM     24  N   UNL     1       1.642   2.902  17.940  0.00  0.00    +0.000 NA
ATOM     25  C   UNL     1       2.816   2.984  17.351  0.00  0.00    +0.000 A 
ENDBRANCH  19  21
ENDBRANCH   3  15
TORSDOF 3
ENDMDL
MODEL 2
REMARK VINA RESULT:      -8.1      0.947      1.352
REMARK  Name = 
REMARK  4 active torsions:
REMARK  status: ('A' for Active; 'I' for Inactive)
REMARK    1  A    between atoms: C_1  and  C_2
REMARK    2  A    between atoms: C_7  and  C_8
REMARK    3  A    between atoms: N_10  and  C_11
REMARK    4  A    between atoms: C_15  and  N_16
REMARK                            x       y       z     vdW  Elec       q    Type
REMARK                         _______ _______ _______ _____ _____    ______ ____
ROOT
ATOM      1  C   UNL     1       7.783   7.912  18.016  0.00  0.00    +0.000 C 
ATOM      2  O   UNL     1       8.205   6.952  18.668  0.00  0.00    +0.000 OA
ATOM      3  N   UNL     1       6.793   7.780  17.049  0.00  0.00    +0.000 N 
ATOM      4  H   UNL     1       6.793   8.487  16.325  0.00  0.00    +0.000 HD
ENDROOT
BRANCH   1  11
ATOM      5  C   UNL     1      11.000  14.088  20.182  0.00  0.00    +0.000 C 
ATOM      6  C   UNL     1      10.177  13.136  19.359  0.00  0.00    +0.000 A 
ATOM      7  C   UNL     1       9.415  13.599  18.279  0.00  0.00    +0.000 A 
ATOM      8  C   UNL     1       8.640  12.708  17.522  0.00  0.00    +0.000 A 
ATOM      9  C   UNL     1       8.691  11.384  17.937  0.00  0.00    +0.000 A 
ATOM     10  O   UNL     1       8.024  10.304  17.414  0.00  0.00    +0.000 OA
ATOM     11  C   UNL     1       8.365   9.226  18.199  0.00  0.00    +0.000 A 
ATOM     12  C   UNL     1       9.273   9.614  19.170  0.00  0.00    +0.000 A 
ATOM     13  C   UNL     1       9.470  10.995  19.017  0.00  0.00    +0.000 A 
ATOM     14  N   UNL     1      10.231  11.842  19.746  0.00  0.00    +0.000 NA
ENDBRANCH   1  11
BRANCH   3  15
ATOM     15  C   UNL     1       6.257   6.499  16.763  0.00  0.00    +0.000 A 
ATOM     16  C   UNL     1       6.972   5.623  15.952  0.00  0.00    +0.000 A 
ATOM     17  C   UNL     1       6.541   4.300  15.821  0.00  0.00    +0.000 A 
ATOM     18  C   UNL     1       5.356   3.872  16.427  0.00  0.00    +0.000 A 
ATOM     19  C   UNL     1       4.572   4.773  17.156  0.00  0.00    +0.000 A 
ATOM     20  C   UNL     1       5.043   6.085  17.336  0.00  0.00    +0.000 A 
BRANCH  19  21
ATOM     21  N   UNL     1       3.311   4.375  17.694  0.00  0.00    +0.000 N 
ATOM     22  C   UNL     1       2.697   4.853  18.833  0.00  0.00    +0.000 A 
ATOM     23  C   UNL     1       1.533   4.137  18.975  0.00  0.00    +0.000 A 
ATOM     24  N   UNL     1       1.396   3.230  17.966  0.00  0.00    +0.000 NA
ATOM     25  C   UNL     1       2.463   3.395  17.214  0.00  0.00    +0.000 A 
ENDBRANCH  19  21
ENDBRANCH   3  15
TORSDOF 3
ENDMDL
MODEL 3
REMARK VINA RESULT:      -7.7      4.989      6.963
REMARK  Name = 
REMARK  4 active torsions:
REMARK  status: ('A' for Active; 'I' for Inactive)
REMARK    1  A    between atoms: C_1  and  C_2
REMARK    2  A    between atoms: C_7  and  C_8
REMARK    3  A    between atoms: N_10  and  C_11
REMARK    4  A    between atoms: C_15  and  N_16
REMARK                            x       y       z     vdW  Elec       q    Type
REMARK                         _______ _______ _______ _____ _____    ______ ____
ROOT
ATOM      1  C   UNL     1       3.303   6.863  18.034  0.00  0.00    +0.000 C 
ATOM      2  O   UNL     1       3.036   5.657  18.074  0.00  0.00    +0.000 OA
ATOM      3  N   UNL     1       4.525   7.342  17.577  0.00  0.00    +0.000 N 
ATOM      4  H   UNL     1       4.800   8.249  17.934  0.00  0.00    +0.000 HD
ENDROOT
BRANCH   1  11
ATOM      5  C   UNL     1      -1.146  12.466  19.450  0.00  0.00    +0.000 C 
ATOM      6  C   UNL     1      -0.347  11.209  19.655  0.00  0.00    +0.000 A 
ATOM      7  C   UNL     1      -0.245  10.624  20.923  0.00  0.00    +0.000 A 
ATOM      8  C   UNL     1       0.511   9.458  21.109  0.00  0.00    +0.000 A 
ATOM      9  C   UNL     1       1.131   8.968  19.967  0.00  0.00    +0.000 A 
ATOM     10  O   UNL     1       1.949   7.872  19.848  0.00  0.00    +0.000 OA
ATOM     11  C   UNL     1       2.350   7.834  18.532  0.00  0.00    +0.000 A 
ATOM     12  C   UNL     1       1.750   8.863  17.823  0.00  0.00    +0.000 A 
ATOM     13  C   UNL     1       0.986   9.599  18.740  0.00  0.00    +0.000 A 
ATOM     14  N   UNL     1       0.249  10.716  18.545  0.00  0.00    +0.000 NA
ENDBRANCH   1  11
BRANCH   3  15
ATOM     15  C   UNL     1       5.528   6.428  17.168  0.00  0.00    +0.000 A 
ATOM     16  C   UNL     1       6.433   5.940  18.105  0.00  0.00    +0.000 A 
ATOM     17  C   UNL     1       7.300   4.902  17.748  0.00  0.00    +0.000 A 
ATOM     18  C   UNL     1       7.325   4.411  16.440  0.00  0.00    +0.000 A 
ATOM     19  C   UNL     1       6.495   4.969  15.461  0.00  0.00    +0.000 A 
ATOM     20  C   UNL     1       5.581   5.968  15.841  0.00  0.00    +0.000 A 
BRANCH  19  21
ATOM     21  N   UNL     1       6.582   4.546  14.101  0.00  0.00    +0.000 N 
ATOM     22  C   UNL     1       5.809   3.596  13.467  0.00  0.00    +0.000 A 
ATOM     23  C   UNL     1       6.294   3.493  12.186  0.00  0.00    +0.000 A 
ATOM     24  N   UNL     1       7.342   4.345  11.995  0.00  0.00    +0.000 NA
ATOM     25  C   UNL     1       7.490   4.964  13.147  0.00  0.00    +0.000 A 
ENDBRANCH  19  21
ENDBRANCH   3  15
TORSDOF 3
ENDMDL
MODEL 4
REMARK VINA RESULT:      -7.7      5.484      7.317
REMARK  Name = 
REMARK  4 active torsions:
REMARK  status: ('A' for Active; 'I' for Inactive)
REMARK    1  A    between atoms: C_1  and  C_2
REMARK    2  A    between atoms: C_7  and  C_8
REMARK    3  A    between atoms: N_10  and  C_11
REMARK    4  A    between atoms: C_15  and  N_16
REMARK                            x       y       z     vdW  Elec       q    Type
REMARK                         _______ _______ _______ _____ _____    ______ ____
ROOT
ATOM      1  C   UNL     1       1.966   8.275  18.706  0.00  0.00    +0.000 C 
ATOM      2  O   UNL     1       2.052   8.311  17.474  0.00  0.00    +0.000 OA
ATOM      3  N   UNL     1       2.294   7.144  19.444  0.00  0.00    +0.000 N 
ATOM      4  H   UNL     1       1.840   7.064  20.345  0.00  0.00    +0.000 HD
ENDROOT
BRANCH   1  11
ATOM      5  C   UNL     1      -1.175  13.108  23.175  0.00  0.00    +0.000 C 
ATOM      6  C   UNL     1      -0.490  12.541  21.962  0.00  0.00    +0.000 A 
ATOM      7  C   UNL     1      -0.296  13.325  20.818  0.00  0.00    +0.000 A 
ATOM      8  C   UNL     1       0.333  12.787  19.686  0.00  0.00    +0.000 A 
ATOM      9  C   UNL     1       0.717  11.458  19.801  0.00  0.00    +0.000 A 
ATOM     10  O   UNL     1       1.322  10.663  18.858  0.00  0.00    +0.000 OA
ATOM     11  C   UNL     1       1.451   9.419  19.431  0.00  0.00    +0.000 A 
ATOM     12  C   UNL     1       0.980   9.445  20.734  0.00  0.00    +0.000 A 
ATOM     13  C   UNL     1       0.495  10.740  20.967  0.00  0.00    +0.000 A 
ATOM     14  N   UNL     1      -0.099  11.251  22.069  0.00  0.00    +0.000 NA
ENDBRANCH   1  11
BRANCH   3  15
ATOM     15  C   UNL     1       2.713   5.966  18.775  0.00  0.00    +0.000 A 
ATOM     16  C   UNL     1       1.904   4.835  18.810  0.00  0.00    +0.000 A 
ATOM     17  C   UNL     1       2.220   3.738  18.002  0.00  0.00    +0.000 A 
ATOM     18  C   UNL     1       3.383   3.736  17.226  0.00  0.00    +0.000 A 
ATOM     19  C   UNL     1       4.260   4.825  17.266  0.00  0.00    +0.000 A 
ATOM     20  C   UNL     1       3.905   5.950  18.032  0.00  0.00    +0.000 A 
BRANCH  19  21
ATOM     21  N   UNL     1       5.499   4.792  16.558  0.00  0.00    +0.000 N 
ATOM     22  C   UNL     1       5.683   4.801  15.191  0.00  0.00    +0.000 A 
ATOM     23  C   UNL     1       7.038   4.705  14.982  0.00  0.00    +0.000 A 
ATOM     24  N   UNL     1       7.707   4.637  16.169  0.00  0.00    +0.000 NA
ATOM     25  C   UNL     1       6.770   4.697  17.090  0.00  0.00    +0.000 A 
ENDBRANCH  19  21
ENDBRANCH   3  15
TORSDOF 3
ENDMDL
MODEL 5
REMARK VINA RESULT:      -7.6      5.426      7.810
REMARK  Name = 
REMARK  4 active torsions:
REMARK  status: ('A' for Active; 'I' for Inactive)
REMARK    1  A    between atoms: C_1  and  C_2
REMARK    2  A    between atoms: C_7  and  C_8
REMARK    3  A    between atoms: N_10  and  C_11
REMARK    4  A    between atoms: C_15  and  N_16
REMARK                            x       y       z     vdW  Elec       q    Type
REMARK                         _______ _______ _______ _____ _____    ______ ____
ROOT
ATOM      1  C   UNL     1       2.104   7.463  19.724  0.00  0.00    +0.000 C 
ATOM      2  O   UNL     1       2.486   7.472  18.549  0.00  0.00    +0.000 OA
ATOM      3  N   UNL     1       2.350   6.396  20.580  0.00  0.00    +0.000 N 
ATOM      4  H   UNL     1       1.700   6.293  21.348  0.00  0.00    +0.000 HD
ENDROOT
BRANCH   1  11
ATOM      5  C   UNL     1      -2.051  12.204  23.391  0.00  0.00    +0.000 C 
ATOM      6  C   UNL     1      -1.307  11.561  22.253  0.00  0.00    +0.000 A 
ATOM      7  C   UNL     1      -1.434  12.052  20.948  0.00  0.00    +0.000 A 
ATOM      8  C   UNL     1      -0.747  11.441  19.889  0.00  0.00    +0.000 A 
ATOM      9  C   UNL     1       0.027  10.345  20.243  0.00  0.00    +0.000 A 
ATOM     10  O   UNL     1       0.781   9.537  19.428  0.00  0.00    +0.000 OA
ATOM     11  C   UNL     1       1.316   8.564  20.240  0.00  0.00    +0.000 A 
ATOM     12  C   UNL     1       0.945   8.787  21.556  0.00  0.00    +0.000 A 
ATOM     13  C   UNL     1       0.108   9.912  21.559  0.00  0.00    +0.000 A 
ATOM     14  N   UNL     1      -0.539  10.500  22.590  0.00  0.00    +0.000 NA
ENDBRANCH   1  11
BRANCH   3  15
ATOM     15  C   UNL     1       3.035   5.252  20.097  0.00  0.00    +0.000 A 
ATOM     16  C   UNL     1       2.647   3.988  20.530  0.00  0.00    +0.000 A 
ATOM     17  C   UNL     1       3.191   2.855  19.918  0.00  0.00    +0.000 A 
ATOM     18  C   UNL     1       4.179   2.978  18.937  0.00  0.00    +0.000 A 
ATOM     19  C   UNL     1       4.655   4.242  18.571  0.00  0.00    +0.000 A 
ATOM     20  C   UNL     1       4.060   5.379  19.144  0.00  0.00    +0.000 A 
BRANCH  19  21
ATOM     21  N   UNL     1       5.734   4.376  17.646  0.00  0.00    +0.000 N 
ATOM     22  C   UNL     1       5.676   4.282  16.271  0.00  0.00    +0.000 A 
ATOM     23  C   UNL     1       6.965   4.427  15.818  0.00  0.00    +0.000 A 
ATOM     24  N   UNL     1       7.826   4.610  16.859  0.00  0.00    +0.000 NA
ATOM     25  C   UNL     1       7.069   4.581  17.935  0.00  0.00    +0.000 A 
ENDBRANCH  19  21
ENDBRANCH   3  15
TORSDOF 3
ENDMDL
MODEL 6
REMARK VINA RESULT:      -7.6      5.603      7.505
REMARK  Name = 
REMARK  4 active torsions:
REMARK  status: ('A' for Active; 'I' for Inactive)
REMARK    1  A    between atoms: C_1  and  C_2
REMARK    2  A    between atoms: C_7  and  C_8
REMARK    3  A    between atoms: N_10  and  C_11
REMARK    4  A    between atoms: C_15  and  N_16
REMARK                            x       y       z     vdW  Elec       q    Type
REMARK                         _______ _______ _______ _____ _____    ______ ____
ROOT
ATOM      1  C   UNL     1       1.667   7.373  20.091  0.00  0.00    +0.000 C 
ATOM      2  O   UNL     1       1.827   6.463  20.911  0.00  0.00    +0.000 OA
ATOM      3  N   UNL     1       1.977   7.227  18.743  0.00  0.00    +0.000 N 
ATOM      4  H   UNL     1       2.188   8.083  18.248  0.00  0.00    +0.000 HD
ENDROOT
BRANCH   1  11
ATOM      5  C   UNL     1      -1.265  13.222  23.312  0.00  0.00    +0.000 C 
ATOM      6  C   UNL     1      -0.614  12.364  22.264  0.00  0.00    +0.000 A 
ATOM      7  C   UNL     1      -0.410  12.850  20.966  0.00  0.00    +0.000 A 
ATOM      8  C   UNL     1       0.187  12.040  19.989  0.00  0.00    +0.000 A 
ATOM      9  C   UNL     1       0.532  10.764  20.412  0.00  0.00    +0.000 A 
ATOM     10  O   UNL     1       1.099   9.750  19.680  0.00  0.00    +0.000 OA
ATOM     11  C   UNL     1       1.197   8.671  20.529  0.00  0.00    +0.000 A 
ATOM     12  C   UNL     1       0.744   9.019  21.791  0.00  0.00    +0.000 A 
ATOM     13  C   UNL     1       0.302  10.348  21.716  0.00  0.00    +0.000 A 
ATOM     14  N   UNL     1      -0.262  11.123  22.669  0.00  0.00    +0.000 NA
ENDBRANCH   1  11
BRANCH   3  15
ATOM     15  C   UNL     1       2.530   6.007  18.279  0.00  0.00    +0.000 A 
ATOM     16  C   UNL     1       1.811   4.826  18.437  0.00  0.00    +0.000 A 
ATOM     17  C   UNL     1       2.265   3.657  17.817  0.00  0.00    +0.000 A 
ATOM     18  C   UNL     1       3.474   3.644  17.115  0.00  0.00    +0.000 A 
ATOM     19  C   UNL     1       4.259   4.801  17.041  0.00  0.00    +0.000 A 
ATOM     20  C   UNL     1       3.766   5.987  17.612  0.00  0.00    +0.000 A 
BRANCH  19  21
ATOM     21  N   UNL     1       5.541   4.774  16.415  0.00  0.00    +0.000 N 
ATOM     22  C   UNL     1       5.816   4.867  15.066  0.00  0.00    +0.000 A 
ATOM     23  C   UNL     1       7.179   4.741  14.940  0.00  0.00    +0.000 A 
ATOM     24  N   UNL     1       7.765   4.575  16.160  0.00  0.00    +0.000 NA
ATOM     25  C   UNL     1       6.770   4.604  17.021  0.00  0.00    +0.000 A 
ENDBRANCH  19  21
ENDBRANCH   3  15
TORSDOF 3
ENDMDL
MODEL 7
REMARK VINA RESULT:      -7.5      2.309      9.409
REMARK  Name = 
REMARK  4 active torsions:
REMARK  status: ('A' for Active; 'I' for Inactive)
REMARK    1  A    between atoms: C_1  and  C_2
REMARK    2  A    between atoms: C_7  and  C_8
REMARK    3  A    between atoms: N_10  and  C_11
REMARK    4  A    between atoms: C_15  and  N_16
REMARK                            x       y       z     vdW  Elec       q    Type
REMARK                         _______ _______ _______ _____ _____    ______ ____
ROOT
ATOM      1  C   UNL     1       9.150  10.198  18.910  0.00  0.00    +0.000 C 
ATOM      2  O   UNL     1       9.128  10.495  20.109  0.00  0.00    +0.000 OA
ATOM      3  N   UNL     1       9.685  11.039  17.942  0.00  0.00    +0.000 N 
ATOM      4  H   UNL     1       9.322  10.914  17.006  0.00  0.00    +0.000 HD
ENDROOT
BRANCH   1  11
ATOM      5  C   UNL     1       5.229   4.771  16.017  0.00  0.00    +0.000 C 
ATOM      6  C   UNL     1       6.218   5.489  16.892  0.00  0.00    +0.000 A 
ATOM      7  C   UNL     1       6.872   4.818  17.933  0.00  0.00    +0.000 A 
ATOM      8  C   UNL     1       7.784   5.497  18.754  0.00  0.00    +0.000 A 
ATOM      9  C   UNL     1       7.959   6.842  18.455  0.00  0.00    +0.000 A 
ATOM     10  O   UNL     1       8.757   7.758  19.095  0.00  0.00    +0.000 OA
ATOM     11  C   UNL     1       8.547   8.960  18.458  0.00  0.00    +0.000 A 
ATOM     12  C   UNL     1       7.670   8.790  17.400  0.00  0.00    +0.000 A 
ATOM     13  C   UNL     1       7.279   7.443  17.406  0.00  0.00    +0.000 A 
ATOM     14  N   UNL     1       6.407   6.796  16.600  0.00  0.00    +0.000 NA
ENDBRANCH   1  11
BRANCH   3  15
ATOM     15  C   UNL     1      10.201  12.304  18.319  0.00  0.00    +0.000 A 
ATOM     16  C   UNL     1      11.543  12.419  18.672  0.00  0.00    +0.000 A 
ATOM     17  C   UNL     1      12.097  13.688  18.862  0.00  0.00    +0.000 A 
ATOM     18  C   UNL     1      11.300  14.834  18.785  0.00  0.00    +0.000 A 
ATOM     19  C   UNL     1       9.927  14.723  18.538  0.00  0.00    +0.000 A 
ATOM     20  C   UNL     1       9.388  13.450  18.286  0.00  0.00    +0.000 A 
BRANCH  19  21
ATOM     21  N   UNL     1       9.086  15.876  18.558  0.00  0.00    +0.000 N 
ATOM     22  C   UNL     1       7.728  15.919  18.795  0.00  0.00    +0.000 A 
ATOM     23  C   UNL     1       7.352  17.233  18.658  0.00  0.00    +0.000 A 
ATOM     24  N   UNL     1       8.425  18.014  18.346  0.00  0.00    +0.000 NA
ATOM     25  C   UNL     1       9.446  17.184  18.298  0.00  0.00    +0.000 A 
ENDBRANCH  19  21
ENDBRANCH   3  15
TORSDOF 3
ENDMDL
MODEL 8
REMARK VINA RESULT:      -7.5      5.478      7.530
REMARK  Name = 
REMARK  4 active torsions:
REMARK  status: ('A' for Active; 'I' for Inactive)
REMARK    1  A    between atoms: C_1  and  C_2
REMARK    2  A    between atoms: C_7  and  C_8
REMARK    3  A    between atoms: N_10  and  C_11
REMARK    4  A    between atoms: C_15  and  N_16
REMARK                            x       y       z     vdW  Elec       q    Type
REMARK                         _______ _______ _______ _____ _____    ______ ____
ROOT
ATOM      1  C   UNL     1       1.886   7.648  19.657  0.00  0.00    +0.000 C 
ATOM      2  O   UNL     1       2.054   7.638  18.433  0.00  0.00    +0.000 OA
ATOM      3  N   UNL     1       2.288   6.598  20.475  0.00  0.00    +0.000 N 
ATOM      4  H   UNL     1       1.784   6.506  21.347  0.00  0.00    +0.000 HD
ENDROOT
BRANCH   1  11
ATOM      5  C   UNL     1      -0.696  13.982  22.189  0.00  0.00    +0.000 C 
ATOM      6  C   UNL     1      -0.471  12.501  22.049  0.00  0.00    +0.000 A 
ATOM      7  C   UNL     1      -1.006  11.605  22.983  0.00  0.00    +0.000 A 
ATOM      8  C   UNL     1      -0.782  10.226  22.853  0.00  0.00    +0.000 A 
ATOM      9  C   UNL     1      -0.005   9.855  21.765  0.00  0.00    +0.000 A 
ATOM     10  O   UNL     1       0.400   8.595  21.400  0.00  0.00    +0.000 OA
ATOM     11  C   UNL     1       1.192   8.753  20.285  0.00  0.00    +0.000 A 
ATOM     12  C   UNL     1       1.240  10.090  19.925  0.00  0.00    +0.000 A 
ATOM     13  C   UNL     1       0.492  10.798  20.876  0.00  0.00    +0.000 A 
ATOM     14  N   UNL     1       0.274  12.128  20.984  0.00  0.00    +0.000 NA
ENDBRANCH   1  11
BRANCH   3  15
ATOM     15  C   UNL     1       2.886   5.449  19.898  0.00  0.00    +0.000 A 
ATOM     16  C   UNL     1       2.348   4.193  20.158  0.00  0.00    +0.000 A 
ATOM     17  C   UNL     1       2.816   3.084  19.447  0.00  0.00    +0.000 A 
ATOM     18  C   UNL     1       3.874   3.210  18.542  0.00  0.00    +0.000 A 
ATOM     19  C   UNL     1       4.496   4.450  18.353  0.00  0.00    +0.000 A 
ATOM     20  C   UNL     1       3.979   5.573  19.023  0.00  0.00    +0.000 A 
BRANCH  19  21
ATOM     21  N   UNL     1       5.641   4.572  17.510  0.00  0.00    +0.000 N 
ATOM     22  C   UNL     1       5.666   4.613  16.131  0.00  0.00    +0.000 A 
ATOM     23  C   UNL     1       6.989   4.682  15.769  0.00  0.00    +0.000 A 
ATOM     24  N   UNL     1       7.793   4.687  16.872  0.00  0.00    +0.000 NA
ATOM     25  C   UNL     1       6.966   4.627  17.894  0.00  0.00    +0.000 A 
ENDBRANCH  19  21
ENDBRANCH   3  15
TORSDOF 3
ENDMDL
MODEL 9
REMARK VINA RESULT:      -7.4      5.531      7.451
REMARK  Name = 
REMARK  4 active torsions:
REMARK  status: ('A' for Active; 'I' for Inactive)
REMARK    1  A    between atoms: C_1  and  C_2
REMARK    2  A    between atoms: C_7  and  C_8
REMARK    3  A    between atoms: N_10  and  C_11
REMARK    4  A    between atoms: C_15  and  N_16
REMARK                            x       y       z     vdW  Elec       q    Type
REMARK                         _______ _______ _______ _____ _____    ______ ____
ROOT
ATOM      1  C   UNL     1       1.682   8.230  18.946  0.00  0.00    +0.000 C 
ATOM      2  O   UNL     1       1.759   8.333  17.718  0.00  0.00    +0.000 OA
ATOM      3  N   UNL     1       2.110   7.097  19.629  0.00  0.00    +0.000 N 
ATOM      4  H   UNL     1       1.669   6.934  20.525  0.00  0.00    +0.000 HD
ENDROOT
BRANCH   1  11
ATOM      5  C   UNL     1      -0.470  14.344  22.289  0.00  0.00    +0.000 C 
ATOM      6  C   UNL     1      -0.325  12.881  21.975  0.00  0.00    +0.000 A 
ATOM      7  C   UNL     1      -0.863  11.909  22.827  0.00  0.00    +0.000 A 
ATOM      8  C   UNL     1      -0.714  10.546  22.535  0.00  0.00    +0.000 A 
ATOM      9  C   UNL     1      -0.004  10.266  21.375  0.00  0.00    +0.000 A 
ATOM     10  O   UNL     1       0.322   9.039  20.854  0.00  0.00    +0.000 OA
ATOM     11  C   UNL     1       1.072   9.287  19.726  0.00  0.00    +0.000 A 
ATOM     12  C   UNL     1       1.171  10.652  19.515  0.00  0.00    +0.000 A 
ATOM     13  C   UNL     1       0.501  11.281  20.574  0.00  0.00    +0.000 A 
ATOM     14  N   UNL     1       0.353  12.598  20.840  0.00  0.00    +0.000 NA
ENDBRANCH   1  11
BRANCH   3  15
ATOM     15  C   UNL     1       2.628   5.995  18.903  0.00  0.00    +0.000 A 
ATOM     16  C   UNL     1       1.952   4.779  18.930  0.00  0.00    +0.000 A 
ATOM     17  C   UNL     1       2.353   3.750  18.072  0.00  0.00    +0.000 A 
ATOM     18  C   UNL     1       3.475   3.902  17.251  0.00  0.00    +0.000 A 
ATOM     19  C   UNL     1       4.227   5.081  17.296  0.00  0.00    +0.000 A 
ATOM     20  C   UNL     1       3.782   6.134  18.114  0.00  0.00    +0.000 A 
BRANCH  19  21
ATOM     21  N   UNL     1       5.431   5.208  16.539  0.00  0.00    +0.000 N 
ATOM     22  C   UNL     1       5.824   4.451  15.455  0.00  0.00    +0.000 A 
ATOM     23  C   UNL     1       7.070   4.905  15.097  0.00  0.00    +0.000 A 
ATOM     24  N   UNL     1       7.470   5.919  15.917  0.00  0.00    +0.000 NA
ATOM     25  C   UNL     1       6.475   6.084  16.762  0.00  0.00    +0.000 A 
ENDBRANCH  19  21
ENDBRANCH   3  15
TORSDOF 3
ENDMDL
