MODEL 1
REMARK VINA RESULT:      -9.3      0.000      0.000
REMARK  Name = 
REMARK  4 active torsions:
REMARK  status: ('A' for Active; 'I' for Inactive)
REMARK    1  A    between atoms: C_7  and  N_8
REMARK    2  A    between atoms: N_8  and  C_9
REMARK    3  A    between atoms: C_9  and  C_10
REMARK    4  A    between atoms: C_12  and  C_13
REMARK                            x       y       z     vdW  Elec       q    Type
REMARK                         _______ _______ _______ _____ _____    ______ ____
ROOT
ATOM      1  N   UNL     1       5.146   6.452  16.547  0.00  0.00    +0.000 N 
ATOM      2  H   UNL     1       4.759   7.396  16.528  0.00  0.00    +0.000 HD
ENDROOT
BRANCH   1   9
ATOM      3  O   UNL     1       1.753   2.288  21.941  0.00  0.00    +0.000 OA
ATOM      4  C   UNL     1       1.924   3.048  20.991  0.00  0.00    +0.000 C 
ATOM      5  C   UNL     1       1.168   4.343  20.836  0.00  0.00    +0.000 C 
ATOM      6  C   UNL     1       2.057   5.450  20.301  0.00  0.00    +0.000 C 
ATOM      7  C   UNL     1       2.909   4.985  19.151  0.00  0.00    +0.000 A 
ATOM      8  C   UNL     1       3.520   5.926  18.308  0.00  0.00    +0.000 A 
ATOM      9  C   UNL     1       4.404   5.535  17.295  0.00  0.00    +0.000 A 
ATOM     10  C   UNL     1       4.628   4.156  17.138  0.00  0.00    +0.000 A 
ATOM     11  F   UNL     1       5.461   3.734  16.172  0.00  0.00    +0.000 F 
ATOM     12  C   UNL     1       4.040   3.203  17.970  0.00  0.00    +0.000 A 
ATOM     13  C   UNL     1       3.204   3.628  18.996  0.00  0.00    +0.000 A 
ATOM     14  N   UNL     1       2.737   2.707  19.941  0.00  0.00    +0.000 N 
ATOM     15  H   UNL     1       3.125   1.772  19.968  0.00  0.00    +0.000 HD
ENDBRANCH   1   9
BRANCH   1  16
ATOM     16  C   UNL     1       6.604   6.357  16.462  0.00  0.00    +0.000 C 
BRANCH  16  17
ATOM     17  C   UNL     1       7.383   7.236  17.386  0.00  0.00    +0.000 A 
ATOM     18  N   UNL     1       7.645   8.514  17.305  0.00  0.00    +0.000 NA
ATOM     19  C   UNL     1       8.437   8.729  18.411  0.00  0.00    +0.000 A 
ATOM     20  N   UNL     1       8.629   7.633  19.163  0.00  0.00    +0.000 NA
ATOM     21  O   UNL     1       7.922   6.641  18.495  0.00  0.00    +0.000 OA
BRANCH  19  22
ATOM     22  C   UNL     1       8.999  10.032  18.711  0.00  0.00    +0.000 A 
ATOM     23  C   UNL     1       9.311  10.372  20.037  0.00  0.00    +0.000 A 
ATOM     24  C   UNL     1       9.859  11.616  20.319  0.00  0.00    +0.000 A 
ATOM     25  F   UNL     1      10.172  11.920  21.587  0.00  0.00    +0.000 F 
ATOM     26  C   UNL     1      10.100  12.537  19.308  0.00  0.00    +0.000 A 
ATOM     27  F   UNL     1      10.637  13.728  19.590  0.00  0.00    +0.000 F 
ATOM     28  C   UNL     1       9.781  12.204  17.995  0.00  0.00    +0.000 A 
ATOM     29  F   UNL     1       9.994  13.085  17.010  0.00  0.00    +0.000 F 
ATOM     30  C   UNL     1       9.235  10.963  17.691  0.00  0.00    +0.000 A 
ENDBRANCH  19  22
ENDBRANCH  16  17
ENDBRANCH   1  16
TORSDOF 4
ENDMDL
MODEL 2
REMARK VINA RESULT:      -9.3      5.404      7.233
REMARK  Name = 
REMARK  4 active torsions:
REMARK  status: ('A' for Active; 'I' for Inactive)
REMARK    1  A    between atoms: C_7  and  N_8
REMARK    2  A    between atoms: N_8  and  C_9
REMARK    3  A    between atoms: C_9  and  C_10
REMARK    4  A    between atoms: C_12  and  C_13
REMARK                            x       y       z     vdW  Elec       q    Type
REMARK                         _______ _______ _______ _____ _____    ______ ____
ROOT
ATOM      1  N   UNL     1       3.395   4.661  19.071  0.00  0.00    +0.000 N 
ATOM      2  H   UNL     1       3.079   4.132  18.257  0.00  0.00    +0.000 HD
ENDROOT
BRANCH   1   9
ATOM      3  O   UNL     1       0.811  11.733  20.194  0.00  0.00    +0.000 OA
ATOM      4  C   UNL     1       0.963  10.609  19.721  0.00  0.00    +0.000 C 
ATOM      5  C   UNL     1       1.027  10.350  18.237  0.00  0.00    +0.000 C 
ATOM      6  C   UNL     1       2.064   9.296  17.896  0.00  0.00    +0.000 C 
ATOM      7  C   UNL     1       1.990   8.111  18.820  0.00  0.00    +0.000 A 
ATOM      8  C   UNL     1       2.609   6.903  18.459  0.00  0.00    +0.000 A 
ATOM      9  C   UNL     1       2.653   5.814  19.337  0.00  0.00    +0.000 A 
ATOM     10  C   UNL     1       2.023   5.970  20.584  0.00  0.00    +0.000 A 
ATOM     11  F   UNL     1       2.032   4.948  21.455  0.00  0.00    +0.000 F 
ATOM     12  C   UNL     1       1.411   7.164  20.969  0.00  0.00    +0.000 A 
ATOM     13  C   UNL     1       1.426   8.242  20.092  0.00  0.00    +0.000 A 
ATOM     14  N   UNL     1       0.967   9.493  20.518  0.00  0.00    +0.000 N 
ATOM     15  H   UNL     1       0.768   9.651  21.499  0.00  0.00    +0.000 HD
ENDBRANCH   1   9
BRANCH   1  16
ATOM     16  C   UNL     1       4.829   4.599  19.356  0.00  0.00    +0.000 C 
BRANCH  16  17
ATOM     17  C   UNL     1       5.743   4.596  18.173  0.00  0.00    +0.000 A 
ATOM     18  N   UNL     1       5.463   4.665  16.898  0.00  0.00    +0.000 NA
ATOM     19  C   UNL     1       6.706   4.564  16.313  0.00  0.00    +0.000 A 
ATOM     20  N   UNL     1       7.716   4.471  17.194  0.00  0.00    +0.000 NA
ATOM     21  O   UNL     1       7.083   4.504  18.431  0.00  0.00    +0.000 OA
BRANCH  19  22
ATOM     22  C   UNL     1       6.879   4.562  14.873  0.00  0.00    +0.000 A 
ATOM     23  C   UNL     1       6.140   3.670  14.080  0.00  0.00    +0.000 A 
ATOM     24  C   UNL     1       6.301   3.678  12.701  0.00  0.00    +0.000 A 
ATOM     25  F   UNL     1       5.573   2.835  11.953  0.00  0.00    +0.000 F 
ATOM     26  C   UNL     1       7.187   4.555  12.090  0.00  0.00    +0.000 A 
ATOM     27  F   UNL     1       7.326   4.561  10.760  0.00  0.00    +0.000 F 
ATOM     28  C   UNL     1       7.927   5.432  12.876  0.00  0.00    +0.000 A 
ATOM     29  F   UNL     1       8.796   6.274  12.304  0.00  0.00    +0.000 F 
ATOM     30  C   UNL     1       7.778   5.442  14.258  0.00  0.00    +0.000 A 
ENDBRANCH  19  22
ENDBRANCH  16  17
ENDBRANCH   1  16
TORSDOF 4
ENDMDL
MODEL 3
REMARK VINA RESULT:      -9.3      5.399      7.133
REMARK  Name = 
REMARK  4 active torsions:
REMARK  status: ('A' for Active; 'I' for Inactive)
REMARK    1  A    between atoms: C_7  and  N_8
REMARK    2  A    between atoms: N_8  and  C_9
REMARK    3  A    between atoms: C_9  and  C_10
REMARK    4  A    between atoms: C_12  and  C_13
REMARK                            x       y       z     vdW  Elec       q    Type
REMARK                         _______ _______ _______ _____ _____    ______ ____
ROOT
ATOM      1  N   UNL     1       3.373   3.854  19.242  0.00  0.00    +0.000 N 
ATOM      2  H   UNL     1       2.971   3.232  18.539  0.00  0.00    +0.000 HD
ENDROOT
BRANCH   1   9
ATOM      3  O   UNL     1       1.248  11.145  19.758  0.00  0.00    +0.000 OA
ATOM      4  C   UNL     1       1.343   9.984  19.369  0.00  0.00    +0.000 C 
ATOM      5  C   UNL     1       1.463   9.620  17.911  0.00  0.00    +0.000 C 
ATOM      6  C   UNL     1       2.438   8.477  17.697  0.00  0.00    +0.000 C 
ATOM      7  C   UNL     1       2.233   7.366  18.690  0.00  0.00    +0.000 A 
ATOM      8  C   UNL     1       2.781   6.097  18.443  0.00  0.00    +0.000 A 
ATOM      9  C   UNL     1       2.703   5.071  19.392  0.00  0.00    +0.000 A 
ATOM     10  C   UNL     1       2.023   5.354  20.589  0.00  0.00    +0.000 A 
ATOM     11  F   UNL     1       1.915   4.396  21.523  0.00  0.00    +0.000 F 
ATOM     12  C   UNL     1       1.480   6.610  20.861  0.00  0.00    +0.000 A 
ATOM     13  C   UNL     1       1.616   7.622  19.918  0.00  0.00    +0.000 A 
ATOM     14  N   UNL     1       1.226   8.928  20.236  0.00  0.00    +0.000 N 
ATOM     15  H   UNL     1       0.990   9.166  21.191  0.00  0.00    +0.000 HD
ENDBRANCH   1   9
BRANCH   1  16
ATOM     16  C   UNL     1       4.821   3.758  19.427  0.00  0.00    +0.000 C 
BRANCH  16  17
ATOM     17  C   UNL     1       5.668   4.119  18.249  0.00  0.00    +0.000 A 
ATOM     18  N   UNL     1       5.411   4.019  16.971  0.00  0.00    +0.000 NA
ATOM     19  C   UNL     1       6.584   4.455  16.396  0.00  0.00    +0.000 A 
ATOM     20  N   UNL     1       7.516   4.839  17.284  0.00  0.00    +0.000 NA
ATOM     21  O   UNL     1       6.909   4.630  18.516  0.00  0.00    +0.000 OA
BRANCH  19  22
ATOM     22  C   UNL     1       6.769   4.485  14.958  0.00  0.00    +0.000 A 
ATOM     23  C   UNL     1       7.735   5.332  14.392  0.00  0.00    +0.000 A 
ATOM     24  C   UNL     1       7.916   5.350  13.016  0.00  0.00    +0.000 A 
ATOM     25  F   UNL     1       8.858   6.148  12.490  0.00  0.00    +0.000 F 
ATOM     26  C   UNL     1       7.150   4.545  12.184  0.00  0.00    +0.000 A 
ATOM     27  F   UNL     1       7.339   4.563  10.861  0.00  0.00    +0.000 F 
ATOM     28  C   UNL     1       6.184   3.714  12.742  0.00  0.00    +0.000 A 
ATOM     29  F   UNL     1       5.428   2.941  11.954  0.00  0.00    +0.000 F 
ATOM     30  C   UNL     1       5.990   3.678  14.118  0.00  0.00    +0.000 A 
ENDBRANCH  19  22
ENDBRANCH  16  17
ENDBRANCH   1  16
TORSDOF 4
ENDMDL
MODEL 4
REMARK VINA RESULT:      -9.3      0.109      1.560
REMARK  Name = 
REMARK  4 active torsions:
REMARK  status: ('A' for Active; 'I' for Inactive)
REMARK    1  A    between atoms: C_7  and  N_8
REMARK    2  A    between atoms: N_8  and  C_9
REMARK    3  A    between atoms: C_9  and  C_10
REMARK    4  A    between atoms: C_12  and  C_13
REMARK                            x       y       z     vdW  Elec       q    Type
REMARK                         _______ _______ _______ _____ _____    ______ ____
ROOT
ATOM      1  N   UNL     1       5.069   6.569  16.622  0.00  0.00    +0.000 N 
ATOM      2  H   UNL     1       4.678   7.511  16.664  0.00  0.00    +0.000 HD
ENDROOT
BRANCH   1   9
ATOM      3  O   UNL     1       1.795   2.276  21.988  0.00  0.00    +0.000 OA
ATOM      4  C   UNL     1       1.945   3.029  21.028  0.00  0.00    +0.000 C 
ATOM      5  C   UNL     1       1.105   4.263  20.821  0.00  0.00    +0.000 C 
ATOM      6  C   UNL     1       1.931   5.421  20.292  0.00  0.00    +0.000 C 
ATOM      7  C   UNL     1       2.853   4.996  19.181  0.00  0.00    +0.000 A 
ATOM      8  C   UNL     1       3.424   5.962  18.338  0.00  0.00    +0.000 A 
ATOM      9  C   UNL     1       4.368   5.616  17.364  0.00  0.00    +0.000 A 
ATOM     10  C   UNL     1       4.694   4.254  17.244  0.00  0.00    +0.000 A 
ATOM     11  F   UNL     1       5.588   3.874  16.315  0.00  0.00    +0.000 F 
ATOM     12  C   UNL     1       4.147   3.277  18.077  0.00  0.00    +0.000 A 
ATOM     13  C   UNL     1       3.249   3.660  19.065  0.00  0.00    +0.000 A 
ATOM     14  N   UNL     1       2.816   2.727  20.014  0.00  0.00    +0.000 N 
ATOM     15  H   UNL     1       3.267   1.822  20.073  0.00  0.00    +0.000 HD
ENDBRANCH   1   9
BRANCH   1  16
ATOM     16  C   UNL     1       6.521   6.485  16.460  0.00  0.00    +0.000 C 
BRANCH  16  17
ATOM     17  C   UNL     1       7.343   7.328  17.381  0.00  0.00    +0.000 A 
ATOM     18  N   UNL     1       7.613   8.606  17.331  0.00  0.00    +0.000 NA
ATOM     19  C   UNL     1       8.448   8.778  18.412  0.00  0.00    +0.000 A 
ATOM     20  N   UNL     1       8.659   7.657  19.121  0.00  0.00    +0.000 NA
ATOM     21  O   UNL     1       7.918   6.693  18.449  0.00  0.00    +0.000 OA
BRANCH  19  22
ATOM     22  C   UNL     1       9.034  10.066  18.733  0.00  0.00    +0.000 A 
ATOM     23  C   UNL     1       9.331  10.976  17.705  0.00  0.00    +0.000 A 
ATOM     24  C   UNL     1       9.881  12.212  18.017  0.00  0.00    +0.000 A 
ATOM     25  F   UNL     1      10.141  13.080  17.027  0.00  0.00    +0.000 F 
ATOM     26  C   UNL     1      10.150  12.563  19.333  0.00  0.00    +0.000 A 
ATOM     27  F   UNL     1      10.671  13.760  19.622  0.00  0.00    +0.000 F 
ATOM     28  C   UNL     1       9.866  11.658  20.350  0.00  0.00    +0.000 A 
ATOM     29  F   UNL     1      10.131  11.976  21.623  0.00  0.00    +0.000 F 
ATOM     30  C   UNL     1       9.311  10.417  20.060  0.00  0.00    +0.000 A 
ENDBRANCH  19  22
ENDBRANCH  16  17
ENDBRANCH   1  16
TORSDOF 4
ENDMDL
MODEL 5
REMARK VINA RESULT:      -9.2      1.309      2.266
REMARK  Name = 
REMARK  4 active torsions:
REMARK  status: ('A' for Active; 'I' for Inactive)
REMARK    1  A    between atoms: C_7  and  N_8
REMARK    2  A    between atoms: N_8  and  C_9
REMARK    3  A    between atoms: C_9  and  C_10
REMARK    4  A    between atoms: C_12  and  C_13
REMARK                            x       y       z     vdW  Elec       q    Type
REMARK                         _______ _______ _______ _____ _____    ______ ____
ROOT
ATOM      1  N   UNL     1       5.357   5.358  16.163  0.00  0.00    +0.000 N 
ATOM      2  H   UNL     1       4.811   5.875  15.472  0.00  0.00    +0.000 HD
ENDROOT
BRANCH   1   9
ATOM      3  O   UNL     1       1.210   2.846  22.032  0.00  0.00    +0.000 OA
ATOM      4  C   UNL     1       2.170   3.183  21.342  0.00  0.00    +0.000 C 
ATOM      5  C   UNL     1       3.451   2.390  21.284  0.00  0.00    +0.000 C 
ATOM      6  C   UNL     1       4.022   2.351  19.879  0.00  0.00    +0.000 C 
ATOM      7  C   UNL     1       3.995   3.702  19.219  0.00  0.00    +0.000 A 
ATOM      8  C   UNL     1       4.785   3.943  18.084  0.00  0.00    +0.000 A 
ATOM      9  C   UNL     1       4.705   5.151  17.381  0.00  0.00    +0.000 A 
ATOM     10  C   UNL     1       3.824   6.126  17.880  0.00  0.00    +0.000 A 
ATOM     11  F   UNL     1       3.723   7.304  17.243  0.00  0.00    +0.000 F 
ATOM     12  C   UNL     1       3.021   5.906  19.000  0.00  0.00    +0.000 A 
ATOM     13  C   UNL     1       3.090   4.678  19.647  0.00  0.00    +0.000 A 
ATOM     14  N   UNL     1       2.180   4.376  20.667  0.00  0.00    +0.000 N 
ATOM     15  H   UNL     1       1.385   4.982  20.829  0.00  0.00    +0.000 HD
ENDBRANCH   1   9
BRANCH   1  16
ATOM     16  C   UNL     1       6.807   5.544  16.102  0.00  0.00    +0.000 C 
BRANCH  16  17
ATOM     17  C   UNL     1       7.389   6.549  17.043  0.00  0.00    +0.000 A 
ATOM     18  N   UNL     1       7.515   7.844  16.913  0.00  0.00    +0.000 NA
ATOM     19  C   UNL     1       8.165   8.199  18.075  0.00  0.00    +0.000 A 
ATOM     20  N   UNL     1       8.401   7.169  18.903  0.00  0.00    +0.000 NA
ATOM     21  O   UNL     1       7.877   6.073  18.229  0.00  0.00    +0.000 OA
BRANCH  19  22
ATOM     22  C   UNL     1       8.547   9.571  18.351  0.00  0.00    +0.000 A 
ATOM     23  C   UNL     1       8.057  10.611  17.545  0.00  0.00    +0.000 A 
ATOM     24  C   UNL     1       8.418  11.924  17.820  0.00  0.00    +0.000 A 
ATOM     25  F   UNL     1       7.925  12.910  17.055  0.00  0.00    +0.000 F 
ATOM     26  C   UNL     1       9.263  12.227  18.878  0.00  0.00    +0.000 A 
ATOM     27  F   UNL     1       9.595  13.495  19.139  0.00  0.00    +0.000 F 
ATOM     28  C   UNL     1       9.757  11.195  19.670  0.00  0.00    +0.000 A 
ATOM     29  F   UNL     1      10.584  11.468  20.687  0.00  0.00    +0.000 F 
ATOM     30  C   UNL     1       9.406   9.875  19.415  0.00  0.00    +0.000 A 
ENDBRANCH  19  22
ENDBRANCH  16  17
ENDBRANCH   1  16
TORSDOF 4
ENDMDL
MODEL 6
REMARK VINA RESULT:      -9.2      1.460      2.292
REMARK  Name = 
REMARK  4 active torsions:
REMARK  status: ('A' for Active; 'I' for Inactive)
REMARK    1  A    between atoms: C_7  and  N_8
REMARK    2  A    between atoms: N_8  and  C_9
REMARK    3  A    between atoms: C_9  and  C_10
REMARK    4  A    between atoms: C_12  and  C_13
REMARK                            x       y       z     vdW  Elec       q    Type
REMARK                         _______ _______ _______ _____ _____    ______ ____
ROOT
ATOM      1  N   UNL     1       7.257   4.933  17.801  0.00  0.00    +0.000 N 
ATOM      2  H   UNL     1       7.723   5.031  16.898  0.00  0.00    +0.000 HD
ENDROOT
BRANCH   1   9
ATOM      3  O   UNL     1       0.226   2.141  18.644  0.00  0.00    +0.000 OA
ATOM      4  C   UNL     1       1.174   2.922  18.616  0.00  0.00    +0.000 C 
ATOM      5  C   UNL     1       1.415   3.950  19.692  0.00  0.00    +0.000 C 
ATOM      6  C   UNL     1       2.892   4.093  20.010  0.00  0.00    +0.000 C 
ATOM      7  C   UNL     1       3.734   4.158  18.765  0.00  0.00    +0.000 A 
ATOM      8  C   UNL     1       5.052   4.638  18.836  0.00  0.00    +0.000 A 
ATOM      9  C   UNL     1       5.899   4.613  17.722  0.00  0.00    +0.000 A 
ATOM     10  C   UNL     1       5.364   4.118  16.520  0.00  0.00    +0.000 A 
ATOM     11  F   UNL     1       6.138   4.086  15.423  0.00  0.00    +0.000 F 
ATOM     12  C   UNL     1       4.061   3.627  16.428  0.00  0.00    +0.000 A 
ATOM     13  C   UNL     1       3.261   3.622  17.564  0.00  0.00    +0.000 A 
ATOM     14  N   UNL     1       2.015   2.986  17.535  0.00  0.00    +0.000 N 
ATOM     15  H   UNL     1       1.762   2.405  16.745  0.00  0.00    +0.000 HD
ENDBRANCH   1   9
BRANCH   1  16
ATOM     16  C   UNL     1       7.776   5.770  18.883  0.00  0.00    +0.000 C 
BRANCH  16  17
ATOM     17  C   UNL     1       8.053   7.200  18.544  0.00  0.00    +0.000 A 
ATOM     18  N   UNL     1       8.803   8.077  19.158  0.00  0.00    +0.000 NA
ATOM     19  C   UNL     1       8.613   9.213  18.404  0.00  0.00    +0.000 A 
ATOM     20  N   UNL     1       7.803   9.036  17.347  0.00  0.00    +0.000 NA
ATOM     21  O   UNL     1       7.438   7.698  17.428  0.00  0.00    +0.000 OA
BRANCH  19  22
ATOM     22  C   UNL     1       9.243  10.474  18.744  0.00  0.00    +0.000 A 
ATOM     23  C   UNL     1       9.688  11.333  17.726  0.00  0.00    +0.000 A 
ATOM     24  C   UNL     1      10.282  12.544  18.057  0.00  0.00    +0.000 A 
ATOM     25  F   UNL     1      10.683  13.365  17.074  0.00  0.00    +0.000 F 
ATOM     26  C   UNL     1      10.449  12.921  19.382  0.00  0.00    +0.000 A 
ATOM     27  F   UNL     1      11.012  14.094  19.688  0.00  0.00    +0.000 F 
ATOM     28  C   UNL     1      10.018  12.065  20.391  0.00  0.00    +0.000 A 
ATOM     29  F   UNL     1      10.183  12.407  21.675  0.00  0.00    +0.000 F 
ATOM     30  C   UNL     1       9.418  10.850  20.082  0.00  0.00    +0.000 A 
ENDBRANCH  19  22
ENDBRANCH  16  17
ENDBRANCH   1  16
TORSDOF 4
ENDMDL
MODEL 7
REMARK VINA RESULT:      -9.2      1.755      2.627
REMARK  Name = 
REMARK  4 active torsions:
REMARK  status: ('A' for Active; 'I' for Inactive)
REMARK    1  A    between atoms: C_7  and  N_8
REMARK    2  A    between atoms: N_8  and  C_9
REMARK    3  A    between atoms: C_9  and  C_10
REMARK    4  A    between atoms: C_12  and  C_13
REMARK                            x       y       z     vdW  Elec       q    Type
REMARK                         _______ _______ _______ _____ _____    ______ ____
ROOT
ATOM      1  N   UNL     1       6.520   5.739  17.205  0.00  0.00    +0.000 N 
ATOM      2  H   UNL     1       6.487   6.244  16.319  0.00  0.00    +0.000 HD
ENDROOT
BRANCH   1   9
ATOM      3  O   UNL     1      -0.013   2.050  18.498  0.00  0.00    +0.000 OA
ATOM      4  C   UNL     1       1.109   2.525  18.659  0.00  0.00    +0.000 C 
ATOM      5  C   UNL     1       2.230   1.763  19.319  0.00  0.00    +0.000 C 
ATOM      6  C   UNL     1       3.560   2.019  18.634  0.00  0.00    +0.000 C 
ATOM      7  C   UNL     1       3.773   3.479  18.339  0.00  0.00    +0.000 A 
ATOM      8  C   UNL     1       5.060   3.952  18.042  0.00  0.00    +0.000 A 
ATOM      9  C   UNL     1       5.280   5.280  17.658  0.00  0.00    +0.000 A 
ATOM     10  C   UNL     1       4.160   6.129  17.614  0.00  0.00    +0.000 A 
ATOM     11  F   UNL     1       4.325   7.414  17.262  0.00  0.00    +0.000 F 
ATOM     12  C   UNL     1       2.869   5.679  17.895  0.00  0.00    +0.000 A 
ATOM     13  C   UNL     1       2.679   4.342  18.227  0.00  0.00    +0.000 A 
ATOM     14  N   UNL     1       1.381   3.833  18.351  0.00  0.00    +0.000 N 
ATOM     15  H   UNL     1       0.590   4.390  18.053  0.00  0.00    +0.000 HD
ENDBRANCH   1   9
BRANCH   1  16
ATOM     16  C   UNL     1       7.561   6.159  18.143  0.00  0.00    +0.000 C 
BRANCH  16  17
ATOM     17  C   UNL     1       7.937   7.605  18.115  0.00  0.00    +0.000 A 
ATOM     18  N   UNL     1       8.796   8.262  18.850  0.00  0.00    +0.000 NA
ATOM     19  C   UNL     1       8.658   9.553  18.390  0.00  0.00    +0.000 A 
ATOM     20  N   UNL     1       7.772   9.682  17.388  0.00  0.00    +0.000 NA
ATOM     21  O   UNL     1       7.300   8.390  17.193  0.00  0.00    +0.000 OA
BRANCH  19  22
ATOM     22  C   UNL     1       9.413  10.654  18.956  0.00  0.00    +0.000 A 
ATOM     23  C   UNL     1      10.268  11.411  18.138  0.00  0.00    +0.000 A 
ATOM     24  C   UNL     1      10.981  12.471  18.682  0.00  0.00    +0.000 A 
ATOM     25  F   UNL     1      11.778  13.199  17.885  0.00  0.00    +0.000 F 
ATOM     26  C   UNL     1      10.868  12.794  20.027  0.00  0.00    +0.000 A 
ATOM     27  F   UNL     1      11.552  13.823  20.537  0.00  0.00    +0.000 F 
ATOM     28  C   UNL     1      10.030  12.037  20.840  0.00  0.00    +0.000 A 
ATOM     29  F   UNL     1       9.919  12.327  22.142  0.00  0.00    +0.000 F 
ATOM     30  C   UNL     1       9.304  10.975  20.315  0.00  0.00    +0.000 A 
ENDBRANCH  19  22
ENDBRANCH  16  17
ENDBRANCH   1  16
TORSDOF 4
ENDMDL
MODEL 8
REMARK VINA RESULT:      -9.2      1.494      2.483
REMARK  Name = 
REMARK  4 active torsions:
REMARK  status: ('A' for Active; 'I' for Inactive)
REMARK    1  A    between atoms: C_7  and  N_8
REMARK    2  A    between atoms: N_8  and  C_9
REMARK    3  A    between atoms: C_9  and  C_10
REMARK    4  A    between atoms: C_12  and  C_13
REMARK                            x       y       z     vdW  Elec       q    Type
REMARK                         _______ _______ _______ _____ _____    ______ ____
ROOT
ATOM      1  N   UNL     1       5.548   6.514  16.084  0.00  0.00    +0.000 N 
ATOM      2  H   UNL     1       5.258   7.432  15.743  0.00  0.00    +0.000 HD
ENDROOT
BRANCH   1   9
ATOM      3  O   UNL     1       0.038   2.193  19.072  0.00  0.00    +0.000 OA
ATOM      4  C   UNL     1       1.143   2.683  18.846  0.00  0.00    +0.000 C 
ATOM      5  C   UNL     1       2.394   1.850  18.722  0.00  0.00    +0.000 C 
ATOM      6  C   UNL     1       3.302   2.363  17.620  0.00  0.00    +0.000 C 
ATOM      7  C   UNL     1       3.448   3.860  17.660  0.00  0.00    +0.000 A 
ATOM      8  C   UNL     1       4.501   4.478  16.968  0.00  0.00    +0.000 A 
ATOM      9  C   UNL     1       4.607   5.872  16.893  0.00  0.00    +0.000 A 
ATOM     10  C   UNL     1       3.633   6.626  17.569  0.00  0.00    +0.000 A 
ATOM     11  F   UNL     1       3.701   7.967  17.534  0.00  0.00    +0.000 F 
ATOM     12  C   UNL     1       2.572   6.034  18.255  0.00  0.00    +0.000 A 
ATOM     13  C   UNL     1       2.468   4.648  18.270  0.00  0.00    +0.000 A 
ATOM     14  N   UNL     1       1.329   4.040  18.808  0.00  0.00    +0.000 N 
ATOM     15  H   UNL     1       0.521   4.603  19.046  0.00  0.00    +0.000 HD
ENDBRANCH   1   9
BRANCH   1  16
ATOM     16  C   UNL     1       6.984   6.337  16.303  0.00  0.00    +0.000 C 
BRANCH  16  17
ATOM     17  C   UNL     1       7.622   7.251  17.298  0.00  0.00    +0.000 A 
ATOM     18  N   UNL     1       7.844   8.538  17.231  0.00  0.00    +0.000 NA
ATOM     19  C   UNL     1       8.500   8.790  18.416  0.00  0.00    +0.000 A 
ATOM     20  N   UNL     1       8.647   7.708  19.198  0.00  0.00    +0.000 NA
ATOM     21  O   UNL     1       8.055   6.685  18.466  0.00  0.00    +0.000 OA
BRANCH  19  22
ATOM     22  C   UNL     1       8.977  10.115  18.762  0.00  0.00    +0.000 A 
ATOM     23  C   UNL     1       9.130  11.089  17.761  0.00  0.00    +0.000 A 
ATOM     24  C   UNL     1       9.577  12.359  18.098  0.00  0.00    +0.000 A 
ATOM     25  F   UNL     1       9.697  13.286  17.136  0.00  0.00    +0.000 F 
ATOM     26  C   UNL     1       9.884  12.684  19.412  0.00  0.00    +0.000 A 
ATOM     27  F   UNL     1      10.304  13.914  19.726  0.00  0.00    +0.000 F 
ATOM     28  C   UNL     1       9.744  11.717  20.402  0.00  0.00    +0.000 A 
ATOM     29  F   UNL     1      10.048  12.009  21.673  0.00  0.00    +0.000 F 
ATOM     30  C   UNL     1       9.294  10.440  20.087  0.00  0.00    +0.000 A 
ENDBRANCH  19  22
ENDBRANCH  16  17
ENDBRANCH   1  16
TORSDOF 4
ENDMDL
MODEL 9
REMARK VINA RESULT:      -9.2      5.284      7.269
REMARK  Name = 
REMARK  4 active torsions:
REMARK  status: ('A' for Active; 'I' for Inactive)
REMARK    1  A    between atoms: C_7  and  N_8
REMARK    2  A    between atoms: N_8  and  C_9
REMARK    3  A    between atoms: C_9  and  C_10
REMARK    4  A    between atoms: C_12  and  C_13
REMARK                            x       y       z     vdW  Elec       q    Type
REMARK                         _______ _______ _______ _____ _____    ______ ____
ROOT
ATOM      1  N   UNL     1       2.753   5.482  19.258  0.00  0.00    +0.000 N 
ATOM      2  H   UNL     1       2.384   5.034  18.418  0.00  0.00    +0.000 HD
ENDROOT
BRANCH   1   9
ATOM      3  O   UNL     1      -1.155  11.852  20.712  0.00  0.00    +0.000 OA
ATOM      4  C   UNL     1      -0.325  10.949  20.794  0.00  0.00    +0.000 C 
ATOM      5  C   UNL     1       0.057  10.309  22.104  0.00  0.00    +0.000 C 
ATOM      6  C   UNL     1       0.253   8.811  21.961  0.00  0.00    +0.000 C 
ATOM      7  C   UNL     1       1.059   8.461  20.740  0.00  0.00    +0.000 A 
ATOM      8  C   UNL     1       1.640   7.188  20.626  0.00  0.00    +0.000 A 
ATOM      9  C   UNL     1       2.305   6.790  19.461  0.00  0.00    +0.000 A 
ATOM     10  C   UNL     1       2.395   7.732  18.421  0.00  0.00    +0.000 A 
ATOM     11  F   UNL     1       3.034   7.397  17.288  0.00  0.00    +0.000 F 
ATOM     12  C   UNL     1       1.818   8.999  18.507  0.00  0.00    +0.000 A 
ATOM     13  C   UNL     1       1.123   9.346  19.659  0.00  0.00    +0.000 A 
ATOM     14  N   UNL     1       0.398  10.542  19.703  0.00  0.00    +0.000 N 
ATOM     15  H   UNL     1       0.255  11.077  18.854  0.00  0.00    +0.000 HD
ENDBRANCH   1   9
BRANCH   1  16
ATOM     16  C   UNL     1       4.095   5.068  19.669  0.00  0.00    +0.000 C 
BRANCH  16  17
ATOM     17  C   UNL     1       5.099   4.890  18.577  0.00  0.00    +0.000 A 
ATOM     18  N   UNL     1       4.946   4.951  17.280  0.00  0.00    +0.000 NA
ATOM     19  C   UNL     1       6.208   4.651  16.815  0.00  0.00    +0.000 A 
ATOM     20  N   UNL     1       7.111   4.445  17.788  0.00  0.00    +0.000 NA
ATOM     21  O   UNL     1       6.383   4.615  18.959  0.00  0.00    +0.000 OA
BRANCH  19  22
ATOM     22  C   UNL     1       6.505   4.571  15.398  0.00  0.00    +0.000 A 
ATOM     23  C   UNL     1       5.715   3.767  14.560  0.00  0.00    +0.000 A 
ATOM     24  C   UNL     1       5.996   3.701  13.203  0.00  0.00    +0.000 A 
ATOM     25  F   UNL     1       5.221   2.946  12.410  0.00  0.00    +0.000 F 
ATOM     26  C   UNL     1       7.053   4.416  12.656  0.00  0.00    +0.000 A 
ATOM     27  F   UNL     1       7.308   4.353  11.345  0.00  0.00    +0.000 F 
ATOM     28  C   UNL     1       7.843   5.204  13.487  0.00  0.00    +0.000 A 
ATOM     29  F   UNL     1       8.874   5.890  12.979  0.00  0.00    +0.000 F 
ATOM     30  C   UNL     1       7.576   5.287  14.849  0.00  0.00    +0.000 A 
ENDBRANCH  19  22
ENDBRANCH  16  17
ENDBRANCH   1  16
TORSDOF 4
ENDMDL
