MODEL 1
REMARK VINA RESULT:      -8.5      0.000      0.000
REMARK  Name = 
REMARK  8 active torsions:
REMARK  status: ('A' for Active; 'I' for Inactive)
REMARK    1  A    between atoms: C_1  and  O_2
REMARK    2  A    between atoms: O_2  and  C_3
REMARK    3  A    between atoms: C_6  and  C_7
REMARK    4  A    between atoms: C_7  and  C_8
REMARK    5  A    between atoms: C_7  and  C_19
REMARK    6  A    between atoms: C_8  and  N_9
REMARK    7  A    between atoms: C_10  and  C_12
REMARK    8  A    between atoms: C_14  and  C_15
REMARK                            x       y       z     vdW  Elec       q    Type
REMARK                         _______ _______ _______ _____ _____    ______ ____
ROOT
ATOM      1  C   UNL     1       3.242   7.178  18.533  0.00  0.00    +0.000 C 
ENDROOT
BRANCH   1   2
ATOM      2  C   UNL     1       2.485   6.056  19.203  0.00  0.00    +0.000 A 
ATOM      3  C   UNL     1       2.002   6.159  20.501  0.00  0.00    +0.000 A 
ATOM      4  N   UNL     1       1.162   5.105  20.685  0.00  0.00    +0.000 N 
ATOM      5  C   UNL     1       1.560   4.092  19.852  0.00  0.00    +0.000 A 
ATOM      6  C   UNL     1       1.428   2.706  19.954  0.00  0.00    +0.000 A 
ATOM      7  C   UNL     1       1.803   1.958  18.838  0.00  0.00    +0.000 A 
ATOM      8  C   UNL     1       2.149   2.588  17.643  0.00  0.00    +0.000 A 
ATOM      9  C   UNL     1       2.298   3.982  17.575  0.00  0.00    +0.000 A 
ATOM     10  C   UNL     1       2.128   4.736  18.752  0.00  0.00    +0.000 A 
ATOM     11  H   UNL     1       0.373   5.074  21.319  0.00  0.00    +0.000 HD
ENDBRANCH   1   2
BRANCH   1  15
ATOM     12  C   UNL     1       6.465   5.251  16.327  0.00  0.00    +0.000 A 
ATOM     13  C   UNL     1       6.415   5.151  17.715  0.00  0.00    +0.000 A 
ATOM     14  C   UNL     1       5.427   5.837  18.437  0.00  0.00    +0.000 A 
ATOM     15  C   UNL     1       4.448   6.607  17.793  0.00  0.00    +0.000 A 
ATOM     16  C   UNL     1       4.525   6.707  16.393  0.00  0.00    +0.000 A 
ATOM     17  C   UNL     1       5.527   6.048  15.674  0.00  0.00    +0.000 A 
BRANCH  12  19
ATOM     18  C   UNL     1       7.160   4.748  14.105  0.00  0.00    +0.000 C 
ATOM     19  O   UNL     1       7.360   4.620  15.508  0.00  0.00    +0.000 OA
ENDBRANCH  12  19
ENDBRANCH   1  15
BRANCH   1  20
ATOM     20  C   UNL     1       2.254   8.080  17.762  0.00  0.00    +0.000 C 
BRANCH  20  21
ATOM     21  N   UNL     1       1.201   8.679  18.566  0.00  0.00    +0.000 N 
ATOM     22  C   UNL     1       1.191  10.019  18.855  0.00  0.00    +0.000 C 
ATOM     23  O   UNL     1       1.920  10.856  18.343  0.00  0.00    +0.000 OA
ATOM     24  H   UNL     1       0.560   8.067  19.048  0.00  0.00    +0.000 HD
BRANCH  22  25
ATOM     25  C   UNL     1       0.224  10.386  19.921  0.00  0.00    +0.000 C 
ATOM     26  C   UNL     1       0.327  11.633  20.756  0.00  0.00    +0.000 C 
ATOM     27  C   UNL     1       0.709  10.299  21.349  0.00  0.00    +0.000 C 
BRANCH  27  28
ATOM     28  C   UNL     1      -0.107   9.555  22.344  0.00  0.00    +0.000 C 
ATOM     29  F   UNL     1      -1.219  10.244  22.688  0.00  0.00    +0.000 F 
ATOM     30  F   UNL     1      -0.498   8.367  21.837  0.00  0.00    +0.000 F 
ATOM     31  F   UNL     1       0.596   9.312  23.464  0.00  0.00    +0.000 F 
ENDBRANCH  27  28
ENDBRANCH  22  25
ENDBRANCH  20  21
ENDBRANCH   1  20
TORSDOF 7
ENDMDL
MODEL 2
REMARK VINA RESULT:      -8.2      4.452      7.743
REMARK  Name = 
REMARK  8 active torsions:
REMARK  status: ('A' for Active; 'I' for Inactive)
REMARK    1  A    between atoms: C_1  and  O_2
REMARK    2  A    between atoms: O_2  and  C_3
REMARK    3  A    between atoms: C_6  and  C_7
REMARK    4  A    between atoms: C_7  and  C_8
REMARK    5  A    between atoms: C_7  and  C_19
REMARK    6  A    between atoms: C_8  and  N_9
REMARK    7  A    between atoms: C_10  and  C_12
REMARK    8  A    between atoms: C_14  and  C_15
REMARK                            x       y       z     vdW  Elec       q    Type
REMARK                         _______ _______ _______ _____ _____    ______ ____
ROOT
ATOM      1  C   UNL     1       2.847   6.739  17.989  0.00  0.00    +0.000 C 
ENDROOT
BRANCH   1   2
ATOM      2  C   UNL     1       2.226   5.391  18.272  0.00  0.00    +0.000 A 
ATOM      3  C   UNL     1       1.412   4.742  17.354  0.00  0.00    +0.000 A 
ATOM      4  N   UNL     1       1.252   3.471  17.810  0.00  0.00    +0.000 N 
ATOM      5  C   UNL     1       1.395   3.485  19.173  0.00  0.00    +0.000 A 
ATOM      6  C   UNL     1       0.871   2.656  20.166  0.00  0.00    +0.000 A 
ATOM      7  C   UNL     1       1.353   2.849  21.461  0.00  0.00    +0.000 A 
ATOM      8  C   UNL     1       2.408   3.727  21.704  0.00  0.00    +0.000 A 
ATOM      9  C   UNL     1       2.899   4.567  20.692  0.00  0.00    +0.000 A 
ATOM     10  C   UNL     1       2.280   4.534  19.429  0.00  0.00    +0.000 A 
ATOM     11  H   UNL     1       1.069   2.652  17.243  0.00  0.00    +0.000 HD
ENDBRANCH   1   2
BRANCH   1  15
ATOM     12  C   UNL     1       0.588   9.562  20.417  0.00  0.00    +0.000 A 
ATOM     13  C   UNL     1       0.799   9.820  19.065  0.00  0.00    +0.000 A 
ATOM     14  C   UNL     1       1.593   8.957  18.298  0.00  0.00    +0.000 A 
ATOM     15  C   UNL     1       2.167   7.801  18.848  0.00  0.00    +0.000 A 
ATOM     16  C   UNL     1       1.955   7.567  20.218  0.00  0.00    +0.000 A 
ATOM     17  C   UNL     1       1.187   8.443  20.992  0.00  0.00    +0.000 A 
BRANCH  12  19
ATOM     18  C   UNL     1      -0.253   9.882  22.623  0.00  0.00    +0.000 C 
ATOM     19  O   UNL     1      -0.178  10.310  21.268  0.00  0.00    +0.000 OA
ENDBRANCH  12  19
ENDBRANCH   1  15
BRANCH   1  20
ATOM     20  C   UNL     1       4.385   6.620  18.033  0.00  0.00    +0.000 C 
BRANCH  20  21
ATOM     21  N   UNL     1       4.948   5.544  17.232  0.00  0.00    +0.000 N 
ATOM     22  C   UNL     1       5.156   5.684  15.884  0.00  0.00    +0.000 C 
ATOM     23  O   UNL     1       5.073   6.734  15.262  0.00  0.00    +0.000 OA
ATOM     24  H   UNL     1       5.036   4.631  17.651  0.00  0.00    +0.000 HD
BRANCH  22  25
ATOM     25  C   UNL     1       5.447   4.401  15.195  0.00  0.00    +0.000 C 
ATOM     26  C   UNL     1       6.727   3.629  15.362  0.00  0.00    +0.000 C 
ATOM     27  C   UNL     1       6.492   4.428  14.103  0.00  0.00    +0.000 C 
BRANCH  27  28
ATOM     28  C   UNL     1       6.166   3.836  12.780  0.00  0.00    +0.000 C 
ATOM     29  F   UNL     1       6.453   2.516  12.742  0.00  0.00    +0.000 F 
ATOM     30  F   UNL     1       4.852   3.980  12.510  0.00  0.00    +0.000 F 
ATOM     31  F   UNL     1       6.855   4.441  11.795  0.00  0.00    +0.000 F 
ENDBRANCH  27  28
ENDBRANCH  22  25
ENDBRANCH  20  21
ENDBRANCH   1  20
TORSDOF 7
ENDMDL
MODEL 3
REMARK VINA RESULT:      -8.2      4.592      7.748
REMARK  Name = 
REMARK  8 active torsions:
REMARK  status: ('A' for Active; 'I' for Inactive)
REMARK    1  A    between atoms: C_1  and  O_2
REMARK    2  A    between atoms: O_2  and  C_3
REMARK    3  A    between atoms: C_6  and  C_7
REMARK    4  A    between atoms: C_7  and  C_8
REMARK    5  A    between atoms: C_7  and  C_19
REMARK    6  A    between atoms: C_8  and  N_9
REMARK    7  A    between atoms: C_10  and  C_12
REMARK    8  A    between atoms: C_14  and  C_15
REMARK                            x       y       z     vdW  Elec       q    Type
REMARK                         _______ _______ _______ _____ _____    ______ ____
ROOT
ATOM      1  C   UNL     1       3.023   6.257  17.784  0.00  0.00    +0.000 C 
ENDROOT
BRANCH   1   2
ATOM      2  C   UNL     1       2.286   5.010  18.215  0.00  0.00    +0.000 A 
ATOM      3  C   UNL     1       1.351   4.383  17.402  0.00  0.00    +0.000 A 
ATOM      4  N   UNL     1       1.091   3.176  17.972  0.00  0.00    +0.000 N 
ATOM      5  C   UNL     1       1.323   3.282  19.319  0.00  0.00    +0.000 A 
ATOM      6  C   UNL     1       0.781   2.595  20.407  0.00  0.00    +0.000 A 
ATOM      7  C   UNL     1       1.362   2.836  21.651  0.00  0.00    +0.000 A 
ATOM      8  C   UNL     1       2.516   3.612  21.759  0.00  0.00    +0.000 A 
ATOM      9  C   UNL     1       3.025   4.311  20.654  0.00  0.00    +0.000 A 
ATOM     10  C   UNL     1       2.325   4.246  19.435  0.00  0.00    +0.000 A 
ATOM     11  H   UNL     1       0.788   2.340  17.488  0.00  0.00    +0.000 HD
ENDBRANCH   1   2
BRANCH   1  15
ATOM     12  C   UNL     1       0.965   9.546  19.762  0.00  0.00    +0.000 A 
ATOM     13  C   UNL     1       1.277   9.635  18.408  0.00  0.00    +0.000 A 
ATOM     14  C   UNL     1       2.011   8.615  17.785  0.00  0.00    +0.000 A 
ATOM     15  C   UNL     1       2.420   7.470  18.485  0.00  0.00    +0.000 A 
ATOM     16  C   UNL     1       2.109   7.408  19.854  0.00  0.00    +0.000 A 
ATOM     17  C   UNL     1       1.403   8.438  20.484  0.00  0.00    +0.000 A 
BRANCH  12  19
ATOM     18  C   UNL     1       0.079  10.206  21.872  0.00  0.00    +0.000 C 
ATOM     19  O   UNL     1       0.242  10.457  20.481  0.00  0.00    +0.000 OA
ENDBRANCH  12  19
ENDBRANCH   1  15
BRANCH   1  20
ATOM     20  C   UNL     1       4.545   6.019  17.884  0.00  0.00    +0.000 C 
BRANCH  20  21
ATOM     21  N   UNL     1       5.187   5.579  16.656  0.00  0.00    +0.000 N 
ATOM     22  C   UNL     1       5.283   4.251  16.330  0.00  0.00    +0.000 C 
ATOM     23  O   UNL     1       4.707   3.339  16.907  0.00  0.00    +0.000 OA
ATOM     24  H   UNL     1       5.708   6.256  16.118  0.00  0.00    +0.000 HD
BRANCH  22  25
ATOM     25  C   UNL     1       6.221   3.983  15.210  0.00  0.00    +0.000 C 
ATOM     26  C   UNL     1       7.084   5.035  14.567  0.00  0.00    +0.000 C 
ATOM     27  C   UNL     1       5.850   4.538  13.854  0.00  0.00    +0.000 C 
BRANCH  27  28
ATOM     28  C   UNL     1       5.866   3.632  12.676  0.00  0.00    +0.000 C 
ATOM     29  F   UNL     1       6.867   3.945  11.822  0.00  0.00    +0.000 F 
ATOM     30  F   UNL     1       6.044   2.353  13.068  0.00  0.00    +0.000 F 
ATOM     31  F   UNL     1       4.705   3.695  11.999  0.00  0.00    +0.000 F 
ENDBRANCH  27  28
ENDBRANCH  22  25
ENDBRANCH  20  21
ENDBRANCH   1  20
TORSDOF 7
ENDMDL
MODEL 4
REMARK VINA RESULT:      -8.0      2.310      4.758
REMARK  Name = 
REMARK  8 active torsions:
REMARK  status: ('A' for Active; 'I' for Inactive)
REMARK    1  A    between atoms: C_1  and  O_2
REMARK    2  A    between atoms: O_2  and  C_3
REMARK    3  A    between atoms: C_6  and  C_7
REMARK    4  A    between atoms: C_7  and  C_8
REMARK    5  A    between atoms: C_7  and  C_19
REMARK    6  A    between atoms: C_8  and  N_9
REMARK    7  A    between atoms: C_10  and  C_12
REMARK    8  A    between atoms: C_14  and  C_15
REMARK                            x       y       z     vdW  Elec       q    Type
REMARK                         _______ _______ _______ _____ _____    ______ ____
ROOT
ATOM      1  C   UNL     1       3.672   6.276  17.029  0.00  0.00    +0.000 C 
ENDROOT
BRANCH   1   2
ATOM      2  C   UNL     1       5.051   6.054  16.452  0.00  0.00    +0.000 A 
ATOM      3  C   UNL     1       6.152   6.799  16.855  0.00  0.00    +0.000 A 
ATOM      4  N   UNL     1       7.247   6.173  16.348  0.00  0.00    +0.000 N 
ATOM      5  C   UNL     1       6.867   5.496  15.218  0.00  0.00    +0.000 A 
ATOM      6  C   UNL     1       7.582   5.130  14.076  0.00  0.00    +0.000 A 
ATOM      7  C   UNL     1       6.929   4.292  13.172  0.00  0.00    +0.000 A 
ATOM      8  C   UNL     1       5.687   3.741  13.483  0.00  0.00    +0.000 A 
ATOM      9  C   UNL     1       4.980   4.144  14.626  0.00  0.00    +0.000 A 
ATOM     10  C   UNL     1       5.534   5.150  15.440  0.00  0.00    +0.000 A 
ATOM     11  H   UNL     1       8.181   6.194  16.739  0.00  0.00    +0.000 HD
ENDBRANCH   1   2
BRANCH   1  15
ATOM     12  C   UNL     1       2.354   3.059  19.651  0.00  0.00    +0.000 A 
ATOM     13  C   UNL     1       3.662   3.529  19.730  0.00  0.00    +0.000 A 
ATOM     14  C   UNL     1       4.115   4.507  18.834  0.00  0.00    +0.000 A 
ATOM     15  C   UNL     1       3.270   5.064  17.863  0.00  0.00    +0.000 A 
ATOM     16  C   UNL     1       1.958   4.565  17.790  0.00  0.00    +0.000 A 
ATOM     17  C   UNL     1       1.513   3.567  18.663  0.00  0.00    +0.000 A 
BRANCH  12  19
ATOM     18  C   UNL     1       1.399   2.554  21.774  0.00  0.00    +0.000 C 
ATOM     19  O   UNL     1       1.784   2.126  20.473  0.00  0.00    +0.000 OA
ENDBRANCH  12  19
ENDBRANCH   1  15
BRANCH   1  20
ATOM     20  C   UNL     1       3.599   7.679  17.669  0.00  0.00    +0.000 C 
BRANCH  20  21
ATOM     21  N   UNL     1       2.330   8.011  18.295  0.00  0.00    +0.000 N 
ATOM     22  C   UNL     1       1.814   9.280  18.248  0.00  0.00    +0.000 C 
ATOM     23  O   UNL     1       2.244  10.191  17.553  0.00  0.00    +0.000 OA
ATOM     24  H   UNL     1       1.904   7.330  18.906  0.00  0.00    +0.000 HD
BRANCH  22  25
ATOM     25  C   UNL     1       0.681   9.493  19.184  0.00  0.00    +0.000 C 
ATOM     26  C   UNL     1       0.290  10.835  19.739  0.00  0.00    +0.000 C 
ATOM     27  C   UNL     1       1.026   9.848  20.612  0.00  0.00    +0.000 C 
BRANCH  27  28
ATOM     28  C   UNL     1       0.403   9.075  21.717  0.00  0.00    +0.000 C 
ATOM     29  F   UNL     1       0.315   7.760  21.416  0.00  0.00    +0.000 F 
ATOM     30  F   UNL     1       1.136   9.191  22.844  0.00  0.00    +0.000 F 
ATOM     31  F   UNL     1      -0.836   9.526  21.986  0.00  0.00    +0.000 F 
ENDBRANCH  27  28
ENDBRANCH  22  25
ENDBRANCH  20  21
ENDBRANCH   1  20
TORSDOF 7
ENDMDL
MODEL 5
REMARK VINA RESULT:      -8.0      0.426      1.223
REMARK  Name = 
REMARK  8 active torsions:
REMARK  status: ('A' for Active; 'I' for Inactive)
REMARK    1  A    between atoms: C_1  and  O_2
REMARK    2  A    between atoms: O_2  and  C_3
REMARK    3  A    between atoms: C_6  and  C_7
REMARK    4  A    between atoms: C_7  and  C_8
REMARK    5  A    between atoms: C_7  and  C_19
REMARK    6  A    between atoms: C_8  and  N_9
REMARK    7  A    between atoms: C_10  and  C_12
REMARK    8  A    between atoms: C_14  and  C_15
REMARK                            x       y       z     vdW  Elec       q    Type
REMARK                         _______ _______ _______ _____ _____    ______ ____
ROOT
ATOM      1  C   UNL     1       3.318   7.399  18.401  0.00  0.00    +0.000 C 
ENDROOT
BRANCH   1   2
ATOM      2  C   UNL     1       2.516   6.435  19.244  0.00  0.00    +0.000 A 
ATOM      3  C   UNL     1       2.199   6.697  20.570  0.00  0.00    +0.000 A 
ATOM      4  N   UNL     1       1.269   5.775  20.934  0.00  0.00    +0.000 N 
ATOM      5  C   UNL     1       1.448   4.660  20.159  0.00  0.00    +0.000 A 
ATOM      6  C   UNL     1       1.166   3.313  20.397  0.00  0.00    +0.000 A 
ATOM      7  C   UNL     1       1.321   2.441  19.320  0.00  0.00    +0.000 A 
ATOM      8  C   UNL     1       1.600   2.929  18.044  0.00  0.00    +0.000 A 
ATOM      9  C   UNL     1       1.903   4.284  17.837  0.00  0.00    +0.000 A 
ATOM     10  C   UNL     1       1.958   5.141  18.952  0.00  0.00    +0.000 A 
ATOM     11  H   UNL     1       0.559   5.892  21.647  0.00  0.00    +0.000 HD
ENDBRANCH   1   2
BRANCH   1  15
ATOM     12  C   UNL     1       6.408   5.446  16.034  0.00  0.00    +0.000 A 
ATOM     13  C   UNL     1       5.431   6.212  15.405  0.00  0.00    +0.000 A 
ATOM     14  C   UNL     1       4.387   6.776  16.153  0.00  0.00    +0.000 A 
ATOM     15  C   UNL     1       4.311   6.620  17.545  0.00  0.00    +0.000 A 
ATOM     16  C   UNL     1       5.299   5.829  18.158  0.00  0.00    +0.000 A 
ATOM     17  C   UNL     1       6.324   5.241  17.410  0.00  0.00    +0.000 A 
BRANCH  12  19
ATOM     18  C   UNL     1       7.439   4.725  14.010  0.00  0.00    +0.000 C 
ATOM     19  O   UNL     1       7.484   4.860  15.426  0.00  0.00    +0.000 OA
ENDBRANCH  12  19
ENDBRANCH   1  15
BRANCH   1  20
ATOM     20  C   UNL     1       2.366   8.400  17.712  0.00  0.00    +0.000 C 
BRANCH  20  21
ATOM     21  N   UNL     1       1.231   8.830  18.513  0.00  0.00    +0.000 N 
ATOM     22  C   UNL     1       1.081  10.135  18.904  0.00  0.00    +0.000 C 
ATOM     23  O   UNL     1       1.745  11.076  18.493  0.00  0.00    +0.000 OA
ATOM     24  H   UNL     1       0.634   8.124  18.916  0.00  0.00    +0.000 HD
BRANCH  22  25
ATOM     25  C   UNL     1       0.044  10.322  19.951  0.00  0.00    +0.000 C 
ATOM     26  C   UNL     1      -0.123  11.583  20.753  0.00  0.00    +0.000 C 
ATOM     27  C   UNL     1       0.516  10.372  21.386  0.00  0.00    +0.000 C 
BRANCH  27  28
ATOM     28  C   UNL     1      -0.144   9.501  22.393  0.00  0.00    +0.000 C 
ATOM     29  F   UNL     1       0.699   9.176  23.398  0.00  0.00    +0.000 F 
ATOM     30  F   UNL     1      -1.208  10.131  22.934  0.00  0.00    +0.000 F 
ATOM     31  F   UNL     1      -0.585   8.360  21.833  0.00  0.00    +0.000 F 
ENDBRANCH  27  28
ENDBRANCH  22  25
ENDBRANCH  20  21
ENDBRANCH   1  20
TORSDOF 7
ENDMDL
MODEL 6
REMARK VINA RESULT:      -8.0      2.101      4.520
REMARK  Name = 
REMARK  8 active torsions:
REMARK  status: ('A' for Active; 'I' for Inactive)
REMARK    1  A    between atoms: C_1  and  O_2
REMARK    2  A    between atoms: O_2  and  C_3
REMARK    3  A    between atoms: C_6  and  C_7
REMARK    4  A    between atoms: C_7  and  C_8
REMARK    5  A    between atoms: C_7  and  C_19
REMARK    6  A    between atoms: C_8  and  N_9
REMARK    7  A    between atoms: C_10  and  C_12
REMARK    8  A    between atoms: C_14  and  C_15
REMARK                            x       y       z     vdW  Elec       q    Type
REMARK                         _______ _______ _______ _____ _____    ______ ____
ROOT
ATOM      1  C   UNL     1       3.066   6.845  17.459  0.00  0.00    +0.000 C 
ENDROOT
BRANCH   1   2
ATOM      2  C   UNL     1       4.517   6.545  17.161  0.00  0.00    +0.000 A 
ATOM      3  C   UNL     1       5.552   7.329  17.652  0.00  0.00    +0.000 A 
ATOM      4  N   UNL     1       6.701   6.638  17.424  0.00  0.00    +0.000 N 
ATOM      5  C   UNL     1       6.501   5.824  16.339  0.00  0.00    +0.000 A 
ATOM      6  C   UNL     1       7.390   5.311  15.392  0.00  0.00    +0.000 A 
ATOM      7  C   UNL     1       6.878   4.368  14.501  0.00  0.00    +0.000 A 
ATOM      8  C   UNL     1       5.587   3.868  14.659  0.00  0.00    +0.000 A 
ATOM      9  C   UNL     1       4.707   4.417  15.604  0.00  0.00    +0.000 A 
ATOM     10  C   UNL     1       5.140   5.516  16.369  0.00  0.00    +0.000 A 
ATOM     11  H   UNL     1       7.555   6.704  17.965  0.00  0.00    +0.000 HD
ENDBRANCH   1   2
BRANCH   1  15
ATOM     12  C   UNL     1       1.701   3.428  19.788  0.00  0.00    +0.000 A 
ATOM     13  C   UNL     1       1.268   3.592  18.475  0.00  0.00    +0.000 A 
ATOM     14  C   UNL     1       1.639   4.732  17.748  0.00  0.00    +0.000 A 
ATOM     15  C   UNL     1       2.475   5.716  18.296  0.00  0.00    +0.000 A 
ATOM     16  C   UNL     1       2.888   5.538  19.628  0.00  0.00    +0.000 A 
ATOM     17  C   UNL     1       2.495   4.416  20.365  0.00  0.00    +0.000 A 
BRANCH  12  19
ATOM     18  C   UNL     1       1.682   2.513  21.987  0.00  0.00    +0.000 C 
ATOM     19  O   UNL     1       1.429   2.358  20.596  0.00  0.00    +0.000 OA
ENDBRANCH  12  19
ENDBRANCH   1  15
BRANCH   1  20
ATOM     20  C   UNL     1       2.933   8.297  17.967  0.00  0.00    +0.000 C 
BRANCH  20  21
ATOM     21  N   UNL     1       1.690   8.602  18.657  0.00  0.00    +0.000 N 
ATOM     22  C   UNL     1       1.247   9.891  18.805  0.00  0.00    +0.000 C 
ATOM     23  O   UNL     1       1.721  10.869  18.244  0.00  0.00    +0.000 OA
ATOM     24  H   UNL     1       1.232   7.863  19.169  0.00  0.00    +0.000 HD
BRANCH  22  25
ATOM     25  C   UNL     1       0.137  10.025  19.782  0.00  0.00    +0.000 C 
ATOM     26  C   UNL     1      -0.279  11.328  20.408  0.00  0.00    +0.000 C 
ATOM     27  C   UNL     1       0.513  10.328  21.214  0.00  0.00    +0.000 C 
BRANCH  27  28
ATOM     28  C   UNL     1      -0.051   9.487  22.301  0.00  0.00    +0.000 C 
ATOM     29  F   UNL     1      -0.400   8.261  21.850  0.00  0.00    +0.000 F 
ATOM     30  F   UNL     1       0.855   9.321  23.287  0.00  0.00    +0.000 F 
ATOM     31  F   UNL     1      -1.143  10.060  22.840  0.00  0.00    +0.000 F 
ENDBRANCH  27  28
ENDBRANCH  22  25
ENDBRANCH  20  21
ENDBRANCH   1  20
TORSDOF 7
ENDMDL
MODEL 7
REMARK VINA RESULT:      -8.0      1.299      1.753
REMARK  Name = 
REMARK  8 active torsions:
REMARK  status: ('A' for Active; 'I' for Inactive)
REMARK    1  A    between atoms: C_1  and  O_2
REMARK    2  A    between atoms: O_2  and  C_3
REMARK    3  A    between atoms: C_6  and  C_7
REMARK    4  A    between atoms: C_7  and  C_8
REMARK    5  A    between atoms: C_7  and  C_19
REMARK    6  A    between atoms: C_8  and  N_9
REMARK    7  A    between atoms: C_10  and  C_12
REMARK    8  A    between atoms: C_14  and  C_15
REMARK                            x       y       z     vdW  Elec       q    Type
REMARK                         _______ _______ _______ _____ _____    ______ ____
ROOT
ATOM      1  C   UNL     1       3.297   7.040  18.600  0.00  0.00    +0.000 C 
ENDROOT
BRANCH   1   2
ATOM      2  C   UNL     1       2.532   5.895  19.221  0.00  0.00    +0.000 A 
ATOM      3  C   UNL     1       2.001   5.966  20.501  0.00  0.00    +0.000 A 
ATOM      4  N   UNL     1       1.169   4.898  20.634  0.00  0.00    +0.000 N 
ATOM      5  C   UNL     1       1.611   3.907  19.798  0.00  0.00    +0.000 A 
ATOM      6  C   UNL     1       1.494   2.517  19.868  0.00  0.00    +0.000 A 
ATOM      7  C   UNL     1       1.919   1.797  18.753  0.00  0.00    +0.000 A 
ATOM      8  C   UNL     1       2.300   2.454  17.584  0.00  0.00    +0.000 A 
ATOM      9  C   UNL     1       2.432   3.851  17.548  0.00  0.00    +0.000 A 
ATOM     10  C   UNL     1       2.210   4.579  18.731  0.00  0.00    +0.000 A 
ATOM     11  H   UNL     1       0.358   4.844  21.239  0.00  0.00    +0.000 HD
ENDBRANCH   1   2
BRANCH   1  15
ATOM     12  C   UNL     1       6.550   5.191  16.371  0.00  0.00    +0.000 A 
ATOM     13  C   UNL     1       6.478   5.037  17.753  0.00  0.00    +0.000 A 
ATOM     14  C   UNL     1       5.481   5.696  18.485  0.00  0.00    +0.000 A 
ATOM     15  C   UNL     1       4.513   6.495  17.857  0.00  0.00    +0.000 A 
ATOM     16  C   UNL     1       4.613   6.650  16.464  0.00  0.00    +0.000 A 
ATOM     17  C   UNL     1       5.626   6.016  15.735  0.00  0.00    +0.000 A 
BRANCH  12  19
ATOM     18  C   UNL     1       7.244   4.721  14.141  0.00  0.00    +0.000 C 
ATOM     19  O   UNL     1       7.457   4.590  15.542  0.00  0.00    +0.000 OA
ENDBRANCH  12  19
ENDBRANCH   1  15
BRANCH   1  20
ATOM     20  C   UNL     1       2.319   7.967  17.847  0.00  0.00    +0.000 C 
BRANCH  20  21
ATOM     21  N   UNL     1       1.402   8.717  18.688  0.00  0.00    +0.000 N 
ATOM     22  C   UNL     1       1.432  10.087  18.744  0.00  0.00    +0.000 C 
ATOM     23  O   UNL     1       2.073  10.809  17.993  0.00  0.00    +0.000 OA
ATOM     24  H   UNL     1       0.843   8.211  19.359  0.00  0.00    +0.000 HD
BRANCH  22  25
ATOM     25  C   UNL     1       0.640  10.650  19.866  0.00  0.00    +0.000 C 
ATOM     26  C   UNL     1      -0.267   9.836  20.748  0.00  0.00    +0.000 C 
ATOM     27  C   UNL     1      -0.859  10.725  19.682  0.00  0.00    +0.000 C 
BRANCH  27  28
ATOM     28  C   UNL     1      -1.554  12.010  19.949  0.00  0.00    +0.000 C 
ATOM     29  F   UNL     1      -2.799  12.020  19.422  0.00  0.00    +0.000 F 
ATOM     30  F   UNL     1      -1.667  12.216  21.278  0.00  0.00    +0.000 F 
ATOM     31  F   UNL     1      -0.873  13.048  19.430  0.00  0.00    +0.000 F 
ENDBRANCH  27  28
ENDBRANCH  22  25
ENDBRANCH  20  21
ENDBRANCH   1  20
TORSDOF 7
ENDMDL
MODEL 8
REMARK VINA RESULT:      -7.9      2.070      2.277
REMARK  Name = 
REMARK  8 active torsions:
REMARK  status: ('A' for Active; 'I' for Inactive)
REMARK    1  A    between atoms: C_1  and  O_2
REMARK    2  A    between atoms: O_2  and  C_3
REMARK    3  A    between atoms: C_6  and  C_7
REMARK    4  A    between atoms: C_7  and  C_8
REMARK    5  A    between atoms: C_7  and  C_19
REMARK    6  A    between atoms: C_8  and  N_9
REMARK    7  A    between atoms: C_10  and  C_12
REMARK    8  A    between atoms: C_14  and  C_15
REMARK                            x       y       z     vdW  Elec       q    Type
REMARK                         _______ _______ _______ _____ _____    ______ ____
ROOT
ATOM      1  C   UNL     1       3.125   7.044  18.509  0.00  0.00    +0.000 C 
ENDROOT
BRANCH   1   2
ATOM      2  C   UNL     1       2.444   5.875  19.181  0.00  0.00    +0.000 A 
ATOM      3  C   UNL     1       1.960   5.947  20.480  0.00  0.00    +0.000 A 
ATOM      4  N   UNL     1       1.190   4.841  20.667  0.00  0.00    +0.000 N 
ATOM      5  C   UNL     1       1.650   3.856  19.832  0.00  0.00    +0.000 A 
ATOM      6  C   UNL     1       1.607   2.464  19.934  0.00  0.00    +0.000 A 
ATOM      7  C   UNL     1       2.025   1.743  18.816  0.00  0.00    +0.000 A 
ATOM      8  C   UNL     1       2.326   2.393  17.620  0.00  0.00    +0.000 A 
ATOM      9  C   UNL     1       2.385   3.794  17.553  0.00  0.00    +0.000 A 
ATOM     10  C   UNL     1       2.171   4.535  18.730  0.00  0.00    +0.000 A 
ATOM     11  H   UNL     1       0.407   4.759  21.304  0.00  0.00    +0.000 HD
ENDBRANCH   1   2
BRANCH   1  15
ATOM     12  C   UNL     1       6.517   5.352  16.364  0.00  0.00    +0.000 A 
ATOM     13  C   UNL     1       6.424   5.205  17.746  0.00  0.00    +0.000 A 
ATOM     14  C   UNL     1       5.378   5.817  18.451  0.00  0.00    +0.000 A 
ATOM     15  C   UNL     1       4.383   6.558  17.796  0.00  0.00    +0.000 A 
ATOM     16  C   UNL     1       4.504   6.707  16.404  0.00  0.00    +0.000 A 
ATOM     17  C   UNL     1       5.563   6.123  15.702  0.00  0.00    +0.000 A 
BRANCH  12  19
ATOM     18  C   UNL     1       7.120   4.560  14.200  0.00  0.00    +0.000 C 
ATOM     19  O   UNL     1       7.471   4.793  15.559  0.00  0.00    +0.000 OA
ENDBRANCH  12  19
ENDBRANCH   1  15
BRANCH   1  20
ATOM     20  C   UNL     1       2.085   7.859  17.710  0.00  0.00    +0.000 C 
BRANCH  20  21
ATOM     21  N   UNL     1       2.076   9.288  17.978  0.00  0.00    +0.000 N 
ATOM     22  C   UNL     1       1.350   9.821  19.012  0.00  0.00    +0.000 C 
ATOM     23  O   UNL     1       0.804   9.176  19.897  0.00  0.00    +0.000 OA
ATOM     24  H   UNL     1       2.484   9.907  17.294  0.00  0.00    +0.000 HD
BRANCH  22  25
ATOM     25  C   UNL     1       1.223  11.299  18.944  0.00  0.00    +0.000 C 
ATOM     26  C   UNL     1       1.331  12.208  20.138  0.00  0.00    +0.000 C 
ATOM     27  C   UNL     1      -0.023  11.911  19.542  0.00  0.00    +0.000 C 
BRANCH  27  28
ATOM     28  C   UNL     1      -0.814  12.872  18.731  0.00  0.00    +0.000 C 
ATOM     29  F   UNL     1      -0.021  13.796  18.143  0.00  0.00    +0.000 F 
ATOM     30  F   UNL     1      -1.484  12.224  17.755  0.00  0.00    +0.000 F 
ATOM     31  F   UNL     1      -1.717  13.519  19.489  0.00  0.00    +0.000 F 
ENDBRANCH  27  28
ENDBRANCH  22  25
ENDBRANCH  20  21
ENDBRANCH   1  20
TORSDOF 7
ENDMDL
MODEL 9
REMARK VINA RESULT:      -7.9      2.968      5.144
REMARK  Name = 
REMARK  8 active torsions:
REMARK  status: ('A' for Active; 'I' for Inactive)
REMARK    1  A    between atoms: C_1  and  O_2
REMARK    2  A    between atoms: O_2  and  C_3
REMARK    3  A    between atoms: C_6  and  C_7
REMARK    4  A    between atoms: C_7  and  C_8
REMARK    5  A    between atoms: C_7  and  C_19
REMARK    6  A    between atoms: C_8  and  N_9
REMARK    7  A    between atoms: C_10  and  C_12
REMARK    8  A    between atoms: C_14  and  C_15
REMARK                            x       y       z     vdW  Elec       q    Type
REMARK                         _______ _______ _______ _____ _____    ______ ____
ROOT
ATOM      1  C   UNL     1       2.840   7.111  17.613  0.00  0.00    +0.000 C 
ENDROOT
BRANCH   1   2
ATOM      2  C   UNL     1       4.194   6.731  17.060  0.00  0.00    +0.000 A 
ATOM      3  C   UNL     1       4.494   6.821  15.708  0.00  0.00    +0.000 A 
ATOM      4  N   UNL     1       5.841   6.664  15.601  0.00  0.00    +0.000 N 
ATOM      5  C   UNL     1       6.269   5.914  16.665  0.00  0.00    +0.000 A 
ATOM      6  C   UNL     1       7.363   5.058  16.812  0.00  0.00    +0.000 A 
ATOM      7  C   UNL     1       7.607   4.571  18.095  0.00  0.00    +0.000 A 
ATOM      8  C   UNL     1       6.877   5.041  19.186  0.00  0.00    +0.000 A 
ATOM      9  C   UNL     1       5.767   5.882  19.007  0.00  0.00    +0.000 A 
ATOM     10  C   UNL     1       5.378   6.214  17.696  0.00  0.00    +0.000 A 
ATOM     11  H   UNL     1       6.430   7.042  14.869  0.00  0.00    +0.000 HD
ENDBRANCH   1   2
BRANCH   1  15
ATOM     12  C   UNL     1       1.473   3.586  19.774  0.00  0.00    +0.000 A 
ATOM     13  C   UNL     1       1.498   3.582  18.382  0.00  0.00    +0.000 A 
ATOM     14  C   UNL     1       1.859   4.741  17.680  0.00  0.00    +0.000 A 
ATOM     15  C   UNL     1       2.236   5.917  18.345  0.00  0.00    +0.000 A 
ATOM     16  C   UNL     1       2.189   5.905  19.750  0.00  0.00    +0.000 A 
ATOM     17  C   UNL     1       1.800   4.759  20.451  0.00  0.00    +0.000 A 
BRANCH  12  19
ATOM     18  C   UNL     1       1.634   2.556  21.916  0.00  0.00    +0.000 C 
ATOM     19  O   UNL     1       1.159   2.523  20.575  0.00  0.00    +0.000 OA
ENDBRANCH  12  19
ENDBRANCH   1  15
BRANCH   1  20
ATOM     20  C   UNL     1       2.944   8.463  18.352  0.00  0.00    +0.000 C 
BRANCH  20  21
ATOM     21  N   UNL     1       1.929   9.443  18.001  0.00  0.00    +0.000 N 
ATOM     22  C   UNL     1       0.972   9.840  18.899  0.00  0.00    +0.000 C 
ATOM     23  O   UNL     1       0.971   9.574  20.093  0.00  0.00    +0.000 OA
ATOM     24  H   UNL     1       1.836   9.712  17.033  0.00  0.00    +0.000 HD
BRANCH  22  25
ATOM     25  C   UNL     1      -0.140  10.604  18.278  0.00  0.00    +0.000 C 
ATOM     26  C   UNL     1      -1.068  11.509  19.042  0.00  0.00    +0.000 C 
ATOM     27  C   UNL     1      -1.546  10.150  18.593  0.00  0.00    +0.000 C 
BRANCH  27  28
ATOM     28  C   UNL     1      -2.496   9.920  17.473  0.00  0.00    +0.000 C 
ATOM     29  F   UNL     1      -1.877   9.385  16.398  0.00  0.00    +0.000 F 
ATOM     30  F   UNL     1      -3.473   9.070  17.852  0.00  0.00    +0.000 F 
ATOM     31  F   UNL     1      -3.080  11.070  17.089  0.00  0.00    +0.000 F 
ENDBRANCH  27  28
ENDBRANCH  22  25
ENDBRANCH  20  21
ENDBRANCH   1  20
TORSDOF 7
ENDMDL
