MODEL 1
REMARK VINA RESULT:      -8.6      0.000      0.000
REMARK  Name = 
REMARK  6 active torsions:
REMARK  status: ('A' for Active; 'I' for Inactive)
REMARK    1  A    between atoms: C_1  and  C_2
REMARK    2  A    between atoms: C_3  and  C_4
REMARK    3  A    between atoms: C_4  and  O_6
REMARK    4  A    between atoms: N_9  and  C_10
REMARK    5  A    between atoms: C_14  and  N_15
REMARK    6  A    between atoms: C_16  and  C_18
REMARK                            x       y       z     vdW  Elec       q    Type
REMARK                         _______ _______ _______ _____ _____    ______ ____
ROOT
ATOM      1  C   UNL     1      -1.207  11.534  18.906  0.00  0.00    +0.000 A 
ATOM      2  C   UNL     1      -0.437  12.672  18.627  0.00  0.00    +0.000 A 
ATOM      3  C   UNL     1       0.953  12.586  18.574  0.00  0.00    +0.000 A 
ATOM      4  C   UNL     1       1.590  11.361  18.780  0.00  0.00    +0.000 A 
ATOM      5  C   UNL     1       0.848  10.210  19.042  0.00  0.00    +0.000 A 
ATOM      6  C   UNL     1      -0.557  10.301  19.097  0.00  0.00    +0.000 A 
ENDROOT
BRANCH   1  12
ATOM      7  C   UNL     1      -3.380  10.128  17.064  0.00  0.00    +0.000 C 
ATOM      8  C   UNL     1      -3.617  11.162  18.108  0.00  0.00    +0.000 A 
ATOM      9  C   UNL     1      -4.826  11.717  18.527  0.00  0.00    +0.000 A 
ATOM     10  C   UNL     1      -4.476  12.487  19.647  0.00  0.00    +0.000 A 
ATOM     11  N   UNL     1      -3.187  12.397  19.957  0.00  0.00    +0.000 NA
ATOM     12  N   UNL     1      -2.628  11.676  18.946  0.00  0.00    +0.000 N 
BRANCH   9  13
ATOM     13  C   UNL     1      -6.133  11.514  17.934  0.00  0.00    +0.000 C 
ATOM     14  O   UNL     1      -6.973  10.743  18.387  0.00  0.00    +0.000 OA
BRANCH  13  15
ATOM     15  O   UNL     1      -6.389  12.260  16.826  0.00  0.00    +0.000 OA
ATOM     16  H   UNL     1      -6.692  13.163  17.024  0.00  0.00    +0.000 HD
ENDBRANCH  13  15
ENDBRANCH   9  13
ENDBRANCH   1  12
BRANCH   5  17
ATOM     17  N   UNL     1       1.439   8.940  19.237  0.00  0.00    +0.000 N 
ATOM     18  C   UNL     1       2.197   8.200  18.338  0.00  0.00    +0.000 C 
ATOM     19  O   UNL     1       2.556   8.557  17.218  0.00  0.00    +0.000 OA
ATOM     20  H   UNL     1       1.266   8.477  20.126  0.00  0.00    +0.000 HD
BRANCH  18  21
ATOM     21  C   UNL     1       2.606   6.825  18.878  0.00  0.00    +0.000 C 
ATOM     22  C   UNL     1       2.003   6.517  20.256  0.00  0.00    +0.000 C 
ATOM     23  C   UNL     1       1.916   5.040  20.128  0.00  0.00    +0.000 A 
ATOM     24  C   UNL     1       1.744   4.058  21.088  0.00  0.00    +0.000 A 
ATOM     25  C   UNL     1       1.636   2.729  20.660  0.00  0.00    +0.000 A 
ATOM     26  C   UNL     1       1.676   2.408  19.292  0.00  0.00    +0.000 A 
ATOM     27  C   UNL     1       1.850   3.409  18.336  0.00  0.00    +0.000 A 
ATOM     28  C   UNL     1       1.985   4.705  18.784  0.00  0.00    +0.000 A 
ATOM     29  O   UNL     1       2.193   5.778  17.960  0.00  0.00    +0.000 OA
ENDBRANCH  18  21
ENDBRANCH   5  17
TORSDOF 5
ENDMDL
MODEL 2
REMARK VINA RESULT:      -8.4      0.721      1.270
REMARK  Name = 
REMARK  6 active torsions:
REMARK  status: ('A' for Active; 'I' for Inactive)
REMARK    1  A    between atoms: C_1  and  C_2
REMARK    2  A    between atoms: C_3  and  C_4
REMARK    3  A    between atoms: C_4  and  O_6
REMARK    4  A    between atoms: N_9  and  C_10
REMARK    5  A    between atoms: C_14  and  N_15
REMARK    6  A    between atoms: C_16  and  C_18
REMARK                            x       y       z     vdW  Elec       q    Type
REMARK                         _______ _______ _______ _____ _____    ______ ____
ROOT
ATOM      1  C   UNL     1      -1.278  11.451  18.300  0.00  0.00    +0.000 A 
ATOM      2  C   UNL     1      -0.586  12.658  18.479  0.00  0.00    +0.000 A 
ATOM      3  C   UNL     1       0.735  12.653  18.921  0.00  0.00    +0.000 A 
ATOM      4  C   UNL     1       1.388  11.445  19.173  0.00  0.00    +0.000 A 
ATOM      5  C   UNL     1       0.730  10.229  18.986  0.00  0.00    +0.000 A 
ATOM      6  C   UNL     1      -0.607  10.238  18.540  0.00  0.00    +0.000 A 
ENDROOT
BRANCH   1  12
ATOM      7  C   UNL     1      -3.862  12.368  19.904  0.00  0.00    +0.000 C 
ATOM      8  C   UNL     1      -3.808  11.812  18.523  0.00  0.00    +0.000 A 
ATOM      9  C   UNL     1      -4.855  11.600  17.628  0.00  0.00    +0.000 A 
ATOM     10  C   UNL     1      -4.213  11.243  16.432  0.00  0.00    +0.000 A 
ATOM     11  N   UNL     1      -2.888  11.276  16.525  0.00  0.00    +0.000 NA
ATOM     12  N   UNL     1      -2.630  11.512  17.842  0.00  0.00    +0.000 N 
BRANCH   9  13
ATOM     13  C   UNL     1      -6.274  11.740  17.892  0.00  0.00    +0.000 C 
ATOM     14  O   UNL     1      -6.804  11.412  18.949  0.00  0.00    +0.000 OA
BRANCH  13  15
ATOM     15  O   UNL     1      -7.001  12.289  16.883  0.00  0.00    +0.000 OA
ATOM     16  H   UNL     1      -6.732  13.195  16.654  0.00  0.00    +0.000 HD
ENDBRANCH  13  15
ENDBRANCH   9  13
ENDBRANCH   1  12
BRANCH   5  17
ATOM     17  N   UNL     1       1.349   8.977  19.203  0.00  0.00    +0.000 N 
ATOM     18  C   UNL     1       2.182   8.271  18.344  0.00  0.00    +0.000 C 
ATOM     19  O   UNL     1       2.596   8.652  17.251  0.00  0.00    +0.000 OA
ATOM     20  H   UNL     1       1.137   8.498  20.076  0.00  0.00    +0.000 HD
BRANCH  18  21
ATOM     21  C   UNL     1       2.602   6.903  18.894  0.00  0.00    +0.000 C 
ATOM     22  C   UNL     1       1.987   6.593  20.266  0.00  0.00    +0.000 C 
ATOM     23  C   UNL     1       1.920   5.115  20.143  0.00  0.00    +0.000 A 
ATOM     24  C   UNL     1       1.749   4.134  21.105  0.00  0.00    +0.000 A 
ATOM     25  C   UNL     1       1.663   2.802  20.680  0.00  0.00    +0.000 A 
ATOM     26  C   UNL     1       1.723   2.476  19.315  0.00  0.00    +0.000 A 
ATOM     27  C   UNL     1       1.895   3.476  18.357  0.00  0.00    +0.000 A 
ATOM     28  C   UNL     1       2.009   4.775  18.801  0.00  0.00    +0.000 A 
ATOM     29  O   UNL     1       2.213   5.848  17.975  0.00  0.00    +0.000 OA
ENDBRANCH  18  21
ENDBRANCH   5  17
TORSDOF 5
ENDMDL
MODEL 3
REMARK VINA RESULT:      -8.4      4.441      7.033
REMARK  Name = 
REMARK  6 active torsions:
REMARK  status: ('A' for Active; 'I' for Inactive)
REMARK    1  A    between atoms: C_1  and  C_2
REMARK    2  A    between atoms: C_3  and  C_4
REMARK    3  A    between atoms: C_4  and  O_6
REMARK    4  A    between atoms: N_9  and  C_10
REMARK    5  A    between atoms: C_14  and  N_15
REMARK    6  A    between atoms: C_16  and  C_18
REMARK                            x       y       z     vdW  Elec       q    Type
REMARK                         _______ _______ _______ _____ _____    ______ ____
ROOT
ATOM      1  C   UNL     1       2.241   6.491  19.892  0.00  0.00    +0.000 A 
ATOM      2  C   UNL     1       1.837   5.559  20.858  0.00  0.00    +0.000 A 
ATOM      3  C   UNL     1       2.320   4.252  20.821  0.00  0.00    +0.000 A 
ATOM      4  C   UNL     1       3.225   3.865  19.831  0.00  0.00    +0.000 A 
ATOM      5  C   UNL     1       3.657   4.776  18.867  0.00  0.00    +0.000 A 
ATOM      6  C   UNL     1       3.165   6.096  18.907  0.00  0.00    +0.000 A 
ENDROOT
BRANCH   1  12
ATOM      7  C   UNL     1       2.020   8.672  17.593  0.00  0.00    +0.000 C 
ATOM      8  C   UNL     1       1.684   8.843  19.033  0.00  0.00    +0.000 A 
ATOM      9  C   UNL     1       1.177   9.969  19.682  0.00  0.00    +0.000 A 
ATOM     10  C   UNL     1       0.880   9.511  20.974  0.00  0.00    +0.000 A 
ATOM     11  N   UNL     1       1.113   8.212  21.132  0.00  0.00    +0.000 NA
ATOM     12  N   UNL     1       1.718   7.818  19.976  0.00  0.00    +0.000 N 
BRANCH   9  13
ATOM     13  C   UNL     1       0.995  11.294  19.121  0.00  0.00    +0.000 C 
ATOM     14  O   UNL     1       1.720  12.248  19.381  0.00  0.00    +0.000 OA
BRANCH  13  15
ATOM     15  O   UNL     1      -0.043  11.417  18.251  0.00  0.00    +0.000 OA
ATOM     16  H   UNL     1       0.018  12.200  17.677  0.00  0.00    +0.000 HD
ENDBRANCH  13  15
ENDBRANCH   9  13
ENDBRANCH   1  12
BRANCH   5  17
ATOM     17  N   UNL     1       4.588   4.444  17.857  0.00  0.00    +0.000 N 
ATOM     18  C   UNL     1       5.894   4.896  17.713  0.00  0.00    +0.000 C 
ATOM     19  O   UNL     1       6.508   5.619  18.494  0.00  0.00    +0.000 OA
ATOM     20  H   UNL     1       4.267   3.832  17.110  0.00  0.00    +0.000 HD
BRANCH  18  21
ATOM     21  C   UNL     1       6.578   4.377  16.441  0.00  0.00    +0.000 C 
ATOM     22  C   UNL     1       5.610   3.663  15.487  0.00  0.00    +0.000 C 
ATOM     23  C   UNL     1       6.293   3.983  14.209  0.00  0.00    +0.000 A 
ATOM     24  C   UNL     1       6.160   3.427  12.948  0.00  0.00    +0.000 A 
ATOM     25  C   UNL     1       6.904   3.983  11.900  0.00  0.00    +0.000 A 
ATOM     26  C   UNL     1       7.741   5.090  12.119  0.00  0.00    +0.000 A 
ATOM     27  C   UNL     1       7.864   5.640  13.395  0.00  0.00    +0.000 A 
ATOM     28  C   UNL     1       7.147   5.057  14.416  0.00  0.00    +0.000 A 
ATOM     29  O   UNL     1       7.199   5.473  15.720  0.00  0.00    +0.000 OA
ENDBRANCH  18  21
ENDBRANCH   5  17
TORSDOF 5
ENDMDL
MODEL 4
REMARK VINA RESULT:      -8.3      4.597      6.895
REMARK  Name = 
REMARK  6 active torsions:
REMARK  status: ('A' for Active; 'I' for Inactive)
REMARK    1  A    between atoms: C_1  and  C_2
REMARK    2  A    between atoms: C_3  and  C_4
REMARK    3  A    between atoms: C_4  and  O_6
REMARK    4  A    between atoms: N_9  and  C_10
REMARK    5  A    between atoms: C_14  and  N_15
REMARK    6  A    between atoms: C_16  and  C_18
REMARK                            x       y       z     vdW  Elec       q    Type
REMARK                         _______ _______ _______ _____ _____    ______ ____
ROOT
ATOM      1  C   UNL     1       2.235   6.989  19.559  0.00  0.00    +0.000 A 
ATOM      2  C   UNL     1       1.837   6.158  20.616  0.00  0.00    +0.000 A 
ATOM      3  C   UNL     1       2.315   4.852  20.703  0.00  0.00    +0.000 A 
ATOM      4  C   UNL     1       3.209   4.366  19.748  0.00  0.00    +0.000 A 
ATOM      5  C   UNL     1       3.636   5.176  18.696  0.00  0.00    +0.000 A 
ATOM      6  C   UNL     1       3.149   6.496  18.610  0.00  0.00    +0.000 A 
ENDROOT
BRANCH   1  12
ATOM      7  C   UNL     1       1.272   8.805  21.982  0.00  0.00    +0.000 C 
ATOM      8  C   UNL     1       1.194   9.124  20.530  0.00  0.00    +0.000 A 
ATOM      9  C   UNL     1       0.718  10.282  19.917  0.00  0.00    +0.000 A 
ATOM     10  C   UNL     1       1.055  10.114  18.565  0.00  0.00    +0.000 A 
ATOM     11  N   UNL     1       1.729   8.993  18.333  0.00  0.00    +0.000 NA
ATOM     12  N   UNL     1       1.718   8.321  19.518  0.00  0.00    +0.000 N 
BRANCH   9  13
ATOM     13  C   UNL     1       0.048  11.397  20.556  0.00  0.00    +0.000 C 
ATOM     14  O   UNL     1      -1.154  11.621  20.449  0.00  0.00    +0.000 OA
BRANCH  13  15
ATOM     15  O   UNL     1       0.845  12.193  21.318  0.00  0.00    +0.000 OA
ATOM     16  H   UNL     1       1.063  11.813  22.187  0.00  0.00    +0.000 HD
ENDBRANCH  13  15
ENDBRANCH   9  13
ENDBRANCH   1  12
BRANCH   5  17
ATOM     17  N   UNL     1       4.557   4.744  17.715  0.00  0.00    +0.000 N 
ATOM     18  C   UNL     1       5.927   4.972  17.664  0.00  0.00    +0.000 C 
ATOM     19  O   UNL     1       6.605   5.539  18.517  0.00  0.00    +0.000 OA
ATOM     20  H   UNL     1       4.183   4.234  16.917  0.00  0.00    +0.000 HD
BRANCH  18  21
ATOM     21  C   UNL     1       6.589   4.411  16.399  0.00  0.00    +0.000 C 
ATOM     22  C   UNL     1       5.597   3.699  15.468  0.00  0.00    +0.000 C 
ATOM     23  C   UNL     1       6.277   3.976  14.178  0.00  0.00    +0.000 A 
ATOM     24  C   UNL     1       6.122   3.396  12.931  0.00  0.00    +0.000 A 
ATOM     25  C   UNL     1       6.869   3.912  11.865  0.00  0.00    +0.000 A 
ATOM     26  C   UNL     1       7.733   5.004  12.054  0.00  0.00    +0.000 A 
ATOM     27  C   UNL     1       7.879   5.579  13.316  0.00  0.00    +0.000 A 
ATOM     28  C   UNL     1       7.157   5.034  14.355  0.00  0.00    +0.000 A 
ATOM     29  O   UNL     1       7.229   5.477  15.649  0.00  0.00    +0.000 OA
ENDBRANCH  18  21
ENDBRANCH   5  17
TORSDOF 5
ENDMDL
MODEL 5
REMARK VINA RESULT:      -8.1      6.561      9.971
REMARK  Name = 
REMARK  6 active torsions:
REMARK  status: ('A' for Active; 'I' for Inactive)
REMARK    1  A    between atoms: C_1  and  C_2
REMARK    2  A    between atoms: C_3  and  C_4
REMARK    3  A    between atoms: C_4  and  O_6
REMARK    4  A    between atoms: N_9  and  C_10
REMARK    5  A    between atoms: C_14  and  N_15
REMARK    6  A    between atoms: C_16  and  C_18
REMARK                            x       y       z     vdW  Elec       q    Type
REMARK                         _______ _______ _______ _____ _____    ______ ____
ROOT
ATOM      1  C   UNL     1       4.801   5.325  17.215  0.00  0.00    +0.000 A 
ATOM      2  C   UNL     1       5.440   4.421  16.354  0.00  0.00    +0.000 A 
ATOM      3  C   UNL     1       6.676   4.737  15.794  0.00  0.00    +0.000 A 
ATOM      4  C   UNL     1       7.297   5.950  16.098  0.00  0.00    +0.000 A 
ATOM      5  C   UNL     1       6.692   6.861  16.964  0.00  0.00    +0.000 A 
ATOM      6  C   UNL     1       5.441   6.538  17.528  0.00  0.00    +0.000 A 
ENDROOT
BRANCH   1  12
ATOM      7  C   UNL     1       4.039   2.662  18.770  0.00  0.00    +0.000 C 
ATOM      8  C   UNL     1       3.123   3.765  18.368  0.00  0.00    +0.000 A 
ATOM      9  C   UNL     1       1.754   3.891  18.606  0.00  0.00    +0.000 A 
ATOM     10  C   UNL     1       1.454   5.194  18.177  0.00  0.00    +0.000 A 
ATOM     11  N   UNL     1       2.524   5.863  17.760  0.00  0.00    +0.000 NA
ATOM     12  N   UNL     1       3.536   4.952  17.765  0.00  0.00    +0.000 N 
BRANCH   9  13
ATOM     13  C   UNL     1       0.871   2.895  19.180  0.00  0.00    +0.000 C 
ATOM     14  O   UNL     1       0.305   2.028  18.523  0.00  0.00    +0.000 OA
BRANCH  13  15
ATOM     15  O   UNL     1       0.715   2.968  20.529  0.00  0.00    +0.000 OA
ATOM     16  H   UNL     1       1.541   3.150  21.010  0.00  0.00    +0.000 HD
ENDBRANCH  13  15
ENDBRANCH   9  13
ENDBRANCH   1  12
BRANCH   5  17
ATOM     17  N   UNL     1       7.285   8.092  17.323  0.00  0.00    +0.000 N 
ATOM     18  C   UNL     1       8.209   8.336  18.332  0.00  0.00    +0.000 C 
ATOM     19  O   UNL     1       8.741   7.497  19.055  0.00  0.00    +0.000 OA
ATOM     20  H   UNL     1       6.979   8.922  16.819  0.00  0.00    +0.000 HD
BRANCH  18  21
ATOM     21  C   UNL     1       8.569   9.820  18.478  0.00  0.00    +0.000 C 
ATOM     22  C   UNL     1       9.123  10.170  19.866  0.00  0.00    +0.000 C 
ATOM     23  C   UNL     1      10.008  11.293  19.468  0.00  0.00    +0.000 A 
ATOM     24  C   UNL     1      10.604  12.287  20.225  0.00  0.00    +0.000 A 
ATOM     25  C   UNL     1      11.452  13.192  19.575  0.00  0.00    +0.000 A 
ATOM     26  C   UNL     1      11.709  13.076  18.198  0.00  0.00    +0.000 A 
ATOM     27  C   UNL     1      11.102  12.069  17.449  0.00  0.00    +0.000 A 
ATOM     28  C   UNL     1      10.247  11.210  18.104  0.00  0.00    +0.000 A 
ATOM     29  O   UNL     1       9.560  10.199  17.487  0.00  0.00    +0.000 OA
ENDBRANCH  18  21
ENDBRANCH   5  17
TORSDOF 5
ENDMDL
MODEL 6
REMARK VINA RESULT:      -8.1      1.008      1.175
REMARK  Name = 
REMARK  6 active torsions:
REMARK  status: ('A' for Active; 'I' for Inactive)
REMARK    1  A    between atoms: C_1  and  C_2
REMARK    2  A    between atoms: C_3  and  C_4
REMARK    3  A    between atoms: C_4  and  O_6
REMARK    4  A    between atoms: N_9  and  C_10
REMARK    5  A    between atoms: C_14  and  N_15
REMARK    6  A    between atoms: C_16  and  C_18
REMARK                            x       y       z     vdW  Elec       q    Type
REMARK                         _______ _______ _______ _____ _____    ______ ____
ROOT
ATOM      1  C   UNL     1      -1.187  11.439  18.843  0.00  0.00    +0.000 A 
ATOM      2  C   UNL     1      -0.384  12.567  18.623  0.00  0.00    +0.000 A 
ATOM      3  C   UNL     1       1.002  12.442  18.561  0.00  0.00    +0.000 A 
ATOM      4  C   UNL     1       1.603  11.190  18.701  0.00  0.00    +0.000 A 
ATOM      5  C   UNL     1       0.827  10.048  18.903  0.00  0.00    +0.000 A 
ATOM      6  C   UNL     1      -0.574  10.178  18.966  0.00  0.00    +0.000 A 
ENDROOT
BRANCH   1  12
ATOM      7  C   UNL     1      -3.418  10.057  17.053  0.00  0.00    +0.000 C 
ATOM      8  C   UNL     1      -3.615  11.118  18.078  0.00  0.00    +0.000 A 
ATOM      9  C   UNL     1      -4.804  11.714  18.498  0.00  0.00    +0.000 A 
ATOM     10  C   UNL     1      -4.421  12.497  19.598  0.00  0.00    +0.000 A 
ATOM     11  N   UNL     1      -3.132  12.377  19.897  0.00  0.00    +0.000 NA
ATOM     12  N   UNL     1      -2.604  11.621  18.895  0.00  0.00    +0.000 N 
BRANCH   9  13
ATOM     13  C   UNL     1      -6.122  11.535  17.923  0.00  0.00    +0.000 C 
ATOM     14  O   UNL     1      -6.950  10.738  18.353  0.00  0.00    +0.000 OA
BRANCH  13  15
ATOM     15  O   UNL     1      -6.405  12.336  16.861  0.00  0.00    +0.000 OA
ATOM     16  H   UNL     1      -7.279  12.760  16.912  0.00  0.00    +0.000 HD
ENDBRANCH  13  15
ENDBRANCH   9  13
ENDBRANCH   1  12
BRANCH   5  17
ATOM     17  N   UNL     1       1.380   8.754  19.028  0.00  0.00    +0.000 N 
ATOM     18  C   UNL     1       1.696   8.065  20.193  0.00  0.00    +0.000 C 
ATOM     19  O   UNL     1       1.479   8.437  21.343  0.00  0.00    +0.000 OA
ATOM     20  H   UNL     1       1.621   8.265  18.169  0.00  0.00    +0.000 HD
BRANCH  18  21
ATOM     21  C   UNL     1       2.357   6.705  19.933  0.00  0.00    +0.000 C 
ATOM     22  C   UNL     1       1.725   5.566  20.745  0.00  0.00    +0.000 C 
ATOM     23  C   UNL     1       1.982   4.456  19.793  0.00  0.00    +0.000 A 
ATOM     24  C   UNL     1       1.954   3.084  19.976  0.00  0.00    +0.000 A 
ATOM     25  C   UNL     1       2.183   2.266  18.862  0.00  0.00    +0.000 A 
ATOM     26  C   UNL     1       2.408   2.824  17.592  0.00  0.00    +0.000 A 
ATOM     27  C   UNL     1       2.432   4.208  17.424  0.00  0.00    +0.000 A 
ATOM     28  C   UNL     1       2.236   4.993  18.540  0.00  0.00    +0.000 A 
ATOM     29  O   UNL     1       2.267   6.362  18.525  0.00  0.00    +0.000 OA
ENDBRANCH  18  21
ENDBRANCH   5  17
TORSDOF 5
ENDMDL
MODEL 7
REMARK VINA RESULT:      -8.0      6.924     10.357
REMARK  Name = 
REMARK  6 active torsions:
REMARK  status: ('A' for Active; 'I' for Inactive)
REMARK    1  A    between atoms: C_1  and  C_2
REMARK    2  A    between atoms: C_3  and  C_4
REMARK    3  A    between atoms: C_4  and  O_6
REMARK    4  A    between atoms: N_9  and  C_10
REMARK    5  A    between atoms: C_14  and  N_15
REMARK    6  A    between atoms: C_16  and  C_18
REMARK                            x       y       z     vdW  Elec       q    Type
REMARK                         _______ _______ _______ _____ _____    ______ ____
ROOT
ATOM      1  C   UNL     1       5.626   4.741  18.191  0.00  0.00    +0.000 A 
ATOM      2  C   UNL     1       5.740   4.344  16.851  0.00  0.00    +0.000 A 
ATOM      3  C   UNL     1       6.635   4.988  15.999  0.00  0.00    +0.000 A 
ATOM      4  C   UNL     1       7.438   6.025  16.477  0.00  0.00    +0.000 A 
ATOM      5  C   UNL     1       7.357   6.430  17.810  0.00  0.00    +0.000 A 
ATOM      6  C   UNL     1       6.451   5.776  18.668  0.00  0.00    +0.000 A 
ENDROOT
BRANCH   1  12
ATOM      7  C   UNL     1       2.567   5.417  18.720  0.00  0.00    +0.000 C 
ATOM      8  C   UNL     1       3.379   4.348  19.365  0.00  0.00    +0.000 A 
ATOM      9  C   UNL     1       2.981   3.401  20.308  0.00  0.00    +0.000 A 
ATOM     10  C   UNL     1       4.087   2.544  20.416  0.00  0.00    +0.000 A 
ATOM     11  N   UNL     1       5.077   2.867  19.590  0.00  0.00    +0.000 NA
ATOM     12  N   UNL     1       4.696   4.045  19.023  0.00  0.00    +0.000 N 
BRANCH   9  13
ATOM     13  C   UNL     1       1.704   3.330  20.991  0.00  0.00    +0.000 C 
ATOM     14  O   UNL     1       0.640   3.665  20.481  0.00  0.00    +0.000 OA
BRANCH  13  15
ATOM     15  O   UNL     1       1.751   2.840  22.258  0.00  0.00    +0.000 OA
ATOM     16  H   UNL     1       0.908   2.465  22.565  0.00  0.00    +0.000 HD
ENDBRANCH  13  15
ENDBRANCH   9  13
ENDBRANCH   1  12
BRANCH   5  17
ATOM     17  N   UNL     1       8.162   7.458  18.352  0.00  0.00    +0.000 N 
ATOM     18  C   UNL     1       8.098   8.822  18.096  0.00  0.00    +0.000 C 
ATOM     19  O   UNL     1       7.268   9.396  17.395  0.00  0.00    +0.000 OA
ATOM     20  H   UNL     1       8.912   7.180  18.981  0.00  0.00    +0.000 HD
BRANCH  18  21
ATOM     21  C   UNL     1       9.191   9.625  18.813  0.00  0.00    +0.000 C 
ATOM     22  C   UNL     1       9.773  10.753  17.949  0.00  0.00    +0.000 C 
ATOM     23  C   UNL     1      10.126  11.698  19.038  0.00  0.00    +0.000 A 
ATOM     24  C   UNL     1      10.959  12.803  19.041  0.00  0.00    +0.000 A 
ATOM     25  C   UNL     1      11.055  13.554  20.220  0.00  0.00    +0.000 A 
ATOM     26  C   UNL     1      10.306  13.207  21.357  0.00  0.00    +0.000 A 
ATOM     27  C   UNL     1       9.470  12.090  21.339  0.00  0.00    +0.000 A 
ATOM     28  C   UNL     1       9.417  11.349  20.179  0.00  0.00    +0.000 A 
ATOM     29  O   UNL     1       8.665  10.214  20.032  0.00  0.00    +0.000 OA
ENDBRANCH  18  21
ENDBRANCH   5  17
TORSDOF 5
ENDMDL
MODEL 8
REMARK VINA RESULT:      -8.0      1.295      1.838
REMARK  Name = 
REMARK  6 active torsions:
REMARK  status: ('A' for Active; 'I' for Inactive)
REMARK    1  A    between atoms: C_1  and  C_2
REMARK    2  A    between atoms: C_3  and  C_4
REMARK    3  A    between atoms: C_4  and  O_6
REMARK    4  A    between atoms: N_9  and  C_10
REMARK    5  A    between atoms: C_14  and  N_15
REMARK    6  A    between atoms: C_16  and  C_18
REMARK                            x       y       z     vdW  Elec       q    Type
REMARK                         _______ _______ _______ _____ _____    ______ ____
ROOT
ATOM      1  C   UNL     1      -1.455  11.378  18.139  0.00  0.00    +0.000 A 
ATOM      2  C   UNL     1      -0.763  12.581  18.340  0.00  0.00    +0.000 A 
ATOM      3  C   UNL     1       0.565  12.568  18.759  0.00  0.00    +0.000 A 
ATOM      4  C   UNL     1       1.226  11.356  18.965  0.00  0.00    +0.000 A 
ATOM      5  C   UNL     1       0.568  10.144  18.756  0.00  0.00    +0.000 A 
ATOM      6  C   UNL     1      -0.776  10.161  18.334  0.00  0.00    +0.000 A 
ENDROOT
BRANCH   1  12
ATOM      7  C   UNL     1      -4.001  12.321  19.788  0.00  0.00    +0.000 C 
ATOM      8  C   UNL     1      -3.977  11.759  18.409  0.00  0.00    +0.000 A 
ATOM      9  C   UNL     1      -5.043  11.550  17.535  0.00  0.00    +0.000 A 
ATOM     10  C   UNL     1      -4.427  11.182  16.329  0.00  0.00    +0.000 A 
ATOM     11  N   UNL     1      -3.100  11.206  16.396  0.00  0.00    +0.000 NA
ATOM     12  N   UNL     1      -2.815  11.446  17.707  0.00  0.00    +0.000 N 
BRANCH   9  13
ATOM     13  C   UNL     1      -6.455  11.702  17.826  0.00  0.00    +0.000 C 
ATOM     14  O   UNL     1      -7.110  12.693  17.520  0.00  0.00    +0.000 OA
BRANCH  13  15
ATOM     15  O   UNL     1      -7.034  10.647  18.459  0.00  0.00    +0.000 OA
ATOM     16  H   UNL     1      -7.866  10.869  18.911  0.00  0.00    +0.000 HD
ENDBRANCH  13  15
ENDBRANCH   9  13
ENDBRANCH   1  12
BRANCH   5  17
ATOM     17  N   UNL     1       1.194   8.888  18.928  0.00  0.00    +0.000 N 
ATOM     18  C   UNL     1       1.558   8.267  20.116  0.00  0.00    +0.000 C 
ATOM     19  O   UNL     1       1.330   8.673  21.253  0.00  0.00    +0.000 OA
ATOM     20  H   UNL     1       1.455   8.378  18.086  0.00  0.00    +0.000 HD
BRANCH  18  21
ATOM     21  C   UNL     1       2.292   6.937  19.905  0.00  0.00    +0.000 C 
ATOM     22  C   UNL     1       1.713   5.791  20.746  0.00  0.00    +0.000 C 
ATOM     23  C   UNL     1       2.038   4.667  19.832  0.00  0.00    +0.000 A 
ATOM     24  C   UNL     1       2.081   3.302  20.057  0.00  0.00    +0.000 A 
ATOM     25  C   UNL     1       2.364   2.463  18.972  0.00  0.00    +0.000 A 
ATOM     26  C   UNL     1       2.573   2.994  17.687  0.00  0.00    +0.000 A 
ATOM     27  C   UNL     1       2.526   4.371  17.476  0.00  0.00    +0.000 A 
ATOM     28  C   UNL     1       2.277   5.178  18.565  0.00  0.00    +0.000 A 
ATOM     29  O   UNL     1       2.235   6.546  18.507  0.00  0.00    +0.000 OA
ENDBRANCH  18  21
ENDBRANCH   5  17
TORSDOF 5
ENDMDL
MODEL 9
REMARK VINA RESULT:      -8.0      7.071     10.004
REMARK  Name = 
REMARK  6 active torsions:
REMARK  status: ('A' for Active; 'I' for Inactive)
REMARK    1  A    between atoms: C_1  and  C_2
REMARK    2  A    between atoms: C_3  and  C_4
REMARK    3  A    between atoms: C_4  and  O_6
REMARK    4  A    between atoms: N_9  and  C_10
REMARK    5  A    between atoms: C_14  and  N_15
REMARK    6  A    between atoms: C_16  and  C_18
REMARK                            x       y       z     vdW  Elec       q    Type
REMARK                         _______ _______ _______ _____ _____    ______ ____
ROOT
ATOM      1  C   UNL     1       4.931   4.482  17.596  0.00  0.00    +0.000 A 
ATOM      2  C   UNL     1       4.746   3.998  16.293  0.00  0.00    +0.000 A 
ATOM      3  C   UNL     1       5.386   4.610  15.217  0.00  0.00    +0.000 A 
ATOM      4  C   UNL     1       6.231   5.701  15.430  0.00  0.00    +0.000 A 
ATOM      5  C   UNL     1       6.447   6.192  16.718  0.00  0.00    +0.000 A 
ATOM      6  C   UNL     1       5.797   5.572  17.803  0.00  0.00    +0.000 A 
ENDROOT
BRANCH   1  12
ATOM      7  C   UNL     1       1.931   4.865  18.568  0.00  0.00    +0.000 C 
ATOM      8  C   UNL     1       2.979   4.011  19.192  0.00  0.00    +0.000 A 
ATOM      9  C   UNL     1       2.874   3.178  20.306  0.00  0.00    +0.000 A 
ATOM     10  C   UNL     1       4.095   2.485  20.327  0.00  0.00    +0.000 A 
ATOM     11  N   UNL     1       4.884   2.792  19.303  0.00  0.00    +0.000 NA
ATOM     12  N   UNL     1       4.253   3.817  18.664  0.00  0.00    +0.000 N 
BRANCH   9  13
ATOM     13  C   UNL     1       1.746   3.063  21.209  0.00  0.00    +0.000 C 
ATOM     14  O   UNL     1       1.850   3.066  22.431  0.00  0.00    +0.000 OA
BRANCH  13  15
ATOM     15  O   UNL     1       0.530   2.966  20.608  0.00  0.00    +0.000 OA
ATOM     16  H   UNL     1      -0.129   3.592  20.954  0.00  0.00    +0.000 HD
ENDBRANCH  13  15
ENDBRANCH   9  13
ENDBRANCH   1  12
BRANCH   5  17
ATOM     17  N   UNL     1       7.309   7.278  16.993  0.00  0.00    +0.000 N 
ATOM     18  C   UNL     1       8.070   7.500  18.134  0.00  0.00    +0.000 C 
ATOM     19  O   UNL     1       8.189   6.741  19.093  0.00  0.00    +0.000 OA
ATOM     20  H   UNL     1       7.361   8.020  16.298  0.00  0.00    +0.000 HD
BRANCH  18  21
ATOM     21  C   UNL     1       8.827   8.834  18.108  0.00  0.00    +0.000 C 
ATOM     22  C   UNL     1       8.017   9.972  17.470  0.00  0.00    +0.000 C 
ATOM     23  C   UNL     1       8.594  11.104  18.238  0.00  0.00    +0.000 A 
ATOM     24  C   UNL     1       8.560  12.467  18.001  0.00  0.00    +0.000 A 
ATOM     25  C   UNL     1       9.150  13.315  18.946  0.00  0.00    +0.000 A 
ATOM     26  C   UNL     1       9.735  12.796  20.114  0.00  0.00    +0.000 A 
ATOM     27  C   UNL     1       9.761  11.420  20.339  0.00  0.00    +0.000 A 
ATOM     28  C   UNL     1       9.203  10.604  19.379  0.00  0.00    +0.000 A 
ATOM     29  O   UNL     1       9.187   9.237  19.456  0.00  0.00    +0.000 OA
ENDBRANCH  18  21
ENDBRANCH   5  17
TORSDOF 5
ENDMDL
