MODEL 1
REMARK VINA RESULT:      -8.5      0.000      0.000
REMARK  Name = 
REMARK  8 active torsions:
REMARK  status: ('A' for Active; 'I' for Inactive)
REMARK    1  A    between atoms: C_1  and  C_2
REMARK    2  A    between atoms: C_3  and  C_4
REMARK    3  A    between atoms: C_5  and  C_6
REMARK    4  A    between atoms: C_7  and  S_8
REMARK    5  A    between atoms: S_8  and  N_11
REMARK    6  A    between atoms: C_15  and  C_16
REMARK    7  A    between atoms: C_27  and  C_28
REMARK    8  A    between atoms: C_29  and  C_30
REMARK                            x       y       z     vdW  Elec       q    Type
REMARK                         _______ _______ _______ _____ _____    ______ ____
ROOT
ATOM      1  N   UNL     1       0.544  10.797  20.834  0.00  0.00    +0.000 NA
ATOM      2  C   UNL     1      -0.471  10.314  21.802  0.00  0.00    +0.000 C 
ATOM      3  C   UNL     1      -0.290   8.898  22.341  0.00  0.00    +0.000 C 
ATOM      4  C   UNL     1       0.271   7.886  21.363  0.00  0.00    +0.000 C 
ATOM      5  C   UNL     1       1.522   8.404  20.669  0.00  0.00    +0.000 C 
ATOM      6  C   UNL     1       1.410   9.823  20.102  0.00  0.00    +0.000 C 
ENDROOT
BRANCH   5   7
ATOM      7  C   UNL     1       2.060   7.391  19.666  0.00  0.00    +0.000 A 
ATOM      8  N   UNL     1       2.555   7.724  18.489  0.00  0.00    +0.000 NA
ATOM      9  N   UNL     1       3.075   6.606  17.897  0.00  0.00    +0.000 NA
ATOM     10  C   UNL     1       2.896   5.581  18.703  0.00  0.00    +0.000 A 
ATOM     11  N   UNL     1       2.208   6.023  19.818  0.00  0.00    +0.000 N 
ATOM     12  C   UNL     1       1.779   5.199  20.928  0.00  0.00    +0.000 C 
ATOM     13  C   UNL     1       1.314   3.797  20.539  0.00  0.00    +0.000 C 
ATOM     14  C   UNL     1       2.466   2.802  20.380  0.00  0.00    +0.000 C 
ATOM     15  C   UNL     1       3.696   3.367  19.670  0.00  0.00    +0.000 C 
ATOM     16  C   UNL     1       3.343   4.184  18.417  0.00  0.00    +0.000 C 
ENDBRANCH   5   7
BRANCH   1  17
ATOM     17  S   UNL     1       0.102  12.169  19.882  0.00  0.00    +0.000 S 
ATOM     18  O   UNL     1       1.056  12.246  18.770  0.00  0.00    +0.000 OA
ATOM     19  O   UNL     1       0.102  13.299  20.762  0.00  0.00    +0.000 OA
BRANCH  17  26
ATOM     20  C   UNL     1      -5.671  11.569  17.711  0.00  0.00    +0.000 C 
ATOM     21  C   UNL     1      -4.261  11.588  18.268  0.00  0.00    +0.000 A 
ATOM     22  C   UNL     1      -3.218  10.831  17.700  0.00  0.00    +0.000 A 
ATOM     23  C   UNL     1      -3.483   9.880  16.540  0.00  0.00    +0.000 C 
ATOM     24  C   UNL     1      -1.883  10.961  18.221  0.00  0.00    +0.000 A 
ATOM     25  C   UNL     1      -0.847  10.007  17.648  0.00  0.00    +0.000 C 
ATOM     26  C   UNL     1      -1.603  11.865  19.314  0.00  0.00    +0.000 A 
ATOM     27  C   UNL     1      -2.687  12.517  19.963  0.00  0.00    +0.000 A 
ATOM     28  C   UNL     1      -2.568  13.335  21.228  0.00  0.00    +0.000 C 
ATOM     29  C   UNL     1      -4.009  12.365  19.436  0.00  0.00    +0.000 A 
ATOM     30  C   UNL     1      -5.198  13.012  20.127  0.00  0.00    +0.000 C 
ENDBRANCH  17  26
ENDBRANCH   1  17
TORSDOF 3
ENDMDL
MODEL 2
REMARK VINA RESULT:      -8.5      1.779      3.374
REMARK  Name = 
REMARK  8 active torsions:
REMARK  status: ('A' for Active; 'I' for Inactive)
REMARK    1  A    between atoms: C_1  and  C_2
REMARK    2  A    between atoms: C_3  and  C_4
REMARK    3  A    between atoms: C_5  and  C_6
REMARK    4  A    between atoms: C_7  and  S_8
REMARK    5  A    between atoms: S_8  and  N_11
REMARK    6  A    between atoms: C_15  and  C_16
REMARK    7  A    between atoms: C_27  and  C_28
REMARK    8  A    between atoms: C_29  and  C_30
REMARK                            x       y       z     vdW  Elec       q    Type
REMARK                         _______ _______ _______ _____ _____    ______ ____
ROOT
ATOM      1  N   UNL     1      -0.135  11.657  22.314  0.00  0.00    +0.000 NA
ATOM      2  C   UNL     1      -1.014  10.711  23.045  0.00  0.00    +0.000 C 
ATOM      3  C   UNL     1      -0.707   9.225  22.888  0.00  0.00    +0.000 C 
ATOM      4  C   UNL     1      -0.209   8.794  21.524  0.00  0.00    +0.000 C 
ATOM      5  C   UNL     1       0.932   9.674  21.035  0.00  0.00    +0.000 C 
ATOM      6  C   UNL     1       0.691  11.182  21.163  0.00  0.00    +0.000 C 
ENDROOT
BRANCH   5   7
ATOM      7  C   UNL     1       1.404   9.251  19.649  0.00  0.00    +0.000 A 
ATOM      8  N   UNL     1       1.328  10.027  18.586  0.00  0.00    +0.000 NA
ATOM      9  N   UNL     1       1.959   9.409  17.542  0.00  0.00    +0.000 NA
ATOM     10  C   UNL     1       2.420   8.248  17.957  0.00  0.00    +0.000 A 
ATOM     11  N   UNL     1       2.045   8.082  19.277  0.00  0.00    +0.000 N 
ATOM     12  C   UNL     1       2.321   6.919  20.095  0.00  0.00    +0.000 C 
ATOM     13  C   UNL     1       2.251   5.586  19.352  0.00  0.00    +0.000 C 
ATOM     14  C   UNL     1       3.543   5.242  18.607  0.00  0.00    +0.000 C 
ATOM     15  C   UNL     1       4.194   6.424  17.889  0.00  0.00    +0.000 C 
ATOM     16  C   UNL     1       3.184   7.282  17.110  0.00  0.00    +0.000 C 
ENDBRANCH   5   7
BRANCH   1  17
ATOM     17  S   UNL     1      -0.744  13.260  22.102  0.00  0.00    +0.000 S 
ATOM     18  O   UNL     1       0.005  13.862  20.993  0.00  0.00    +0.000 OA
ATOM     19  O   UNL     1      -0.601  13.925  23.363  0.00  0.00    +0.000 OA
BRANCH  17  26
ATOM     20  C   UNL     1      -6.726  12.174  20.901  0.00  0.00    +0.000 C 
ATOM     21  C   UNL     1      -5.294  12.564  21.211  0.00  0.00    +0.000 A 
ATOM     22  C   UNL     1      -4.921  13.135  22.443  0.00  0.00    +0.000 A 
ATOM     23  C   UNL     1      -5.966  13.467  23.501  0.00  0.00    +0.000 C 
ATOM     24  C   UNL     1      -3.532  13.402  22.709  0.00  0.00    +0.000 A 
ATOM     25  C   UNL     1      -3.230  14.145  24.001  0.00  0.00    +0.000 C 
ATOM     26  C   UNL     1      -2.520  13.084  21.727  0.00  0.00    +0.000 A 
ATOM     27  C   UNL     1      -2.925  12.638  20.439  0.00  0.00    +0.000 A 
ATOM     28  C   UNL     1      -1.998  12.451  19.261  0.00  0.00    +0.000 C 
ATOM     29  C   UNL     1      -4.313  12.390  20.193  0.00  0.00    +0.000 A 
ATOM     30  C   UNL     1      -4.789  11.953  18.817  0.00  0.00    +0.000 C 
ENDBRANCH  17  26
ENDBRANCH   1  17
TORSDOF 3
ENDMDL
MODEL 3
REMARK VINA RESULT:      -8.4      1.479      1.957
REMARK  Name = 
REMARK  8 active torsions:
REMARK  status: ('A' for Active; 'I' for Inactive)
REMARK    1  A    between atoms: C_1  and  C_2
REMARK    2  A    between atoms: C_3  and  C_4
REMARK    3  A    between atoms: C_5  and  C_6
REMARK    4  A    between atoms: C_7  and  S_8
REMARK    5  A    between atoms: S_8  and  N_11
REMARK    6  A    between atoms: C_15  and  C_16
REMARK    7  A    between atoms: C_27  and  C_28
REMARK    8  A    between atoms: C_29  and  C_30
REMARK                            x       y       z     vdW  Elec       q    Type
REMARK                         _______ _______ _______ _____ _____    ______ ____
ROOT
ATOM      1  N   UNL     1      -0.641  12.045  21.660  0.00  0.00    +0.000 NA
ATOM      2  C   UNL     1      -1.332  11.277  22.725  0.00  0.00    +0.000 C 
ATOM      3  C   UNL     1      -0.785   9.888  23.038  0.00  0.00    +0.000 C 
ATOM      4  C   UNL     1      -0.252   9.106  21.855  0.00  0.00    +0.000 C 
ATOM      5  C   UNL     1       0.714   9.933  21.019  0.00  0.00    +0.000 C 
ATOM      6  C   UNL     1       0.227  11.342  20.667  0.00  0.00    +0.000 C 
ENDROOT
BRANCH   5   7
ATOM      7  C   UNL     1       1.219   9.147  19.816  0.00  0.00    +0.000 A 
ATOM      8  N   UNL     1       1.296   9.650  18.598  0.00  0.00    +0.000 NA
ATOM      9  N   UNL     1       1.916   8.742  17.785  0.00  0.00    +0.000 NA
ATOM     10  C   UNL     1       2.217   7.676  18.496  0.00  0.00    +0.000 A 
ATOM     11  N   UNL     1       1.746   7.867  19.781  0.00  0.00    +0.000 N 
ATOM     12  C   UNL     1       1.838   6.913  20.867  0.00  0.00    +0.000 C 
ATOM     13  C   UNL     1       1.664   5.454  20.450  0.00  0.00    +0.000 C 
ATOM     14  C   UNL     1       2.952   4.820  19.919  0.00  0.00    +0.000 C 
ATOM     15  C   UNL     1       3.775   5.728  19.005  0.00  0.00    +0.000 C 
ATOM     16  C   UNL     1       2.918   6.467  17.965  0.00  0.00    +0.000 C 
ENDBRANCH   5   7
BRANCH   1  17
ATOM     17  S   UNL     1      -1.513  13.375  20.985  0.00  0.00    +0.000 S 
ATOM     18  O   UNL     1      -0.640  13.998  19.983  0.00  0.00    +0.000 OA
ATOM     19  O   UNL     1      -1.885  14.222  22.078  0.00  0.00    +0.000 OA
BRANCH  17  26
ATOM     20  C   UNL     1      -6.783  11.437  18.361  0.00  0.00    +0.000 C 
ATOM     21  C   UNL     1      -5.451  11.789  18.994  0.00  0.00    +0.000 A 
ATOM     22  C   UNL     1      -4.228  11.622  18.314  0.00  0.00    +0.000 A 
ATOM     23  C   UNL     1      -4.183  10.992  16.928  0.00  0.00    +0.000 C 
ATOM     24  C   UNL     1      -3.006  12.057  18.936  0.00  0.00    +0.000 A 
ATOM     25  C   UNL     1      -1.722  11.713  18.199  0.00  0.00    +0.000 C 
ATOM     26  C   UNL     1      -3.023  12.669  20.246  0.00  0.00    +0.000 A 
ATOM     27  C   UNL     1      -4.244  12.704  20.974  0.00  0.00    +0.000 A 
ATOM     28  C   UNL     1      -4.376  13.136  22.416  0.00  0.00    +0.000 C 
ATOM     29  C   UNL     1      -5.446  12.256  20.340  0.00  0.00    +0.000 A 
ATOM     30  C   UNL     1      -6.763  12.240  21.100  0.00  0.00    +0.000 C 
ENDBRANCH  17  26
ENDBRANCH   1  17
TORSDOF 3
ENDMDL
MODEL 4
REMARK VINA RESULT:      -8.3      1.370      2.707
REMARK  Name = 
REMARK  8 active torsions:
REMARK  status: ('A' for Active; 'I' for Inactive)
REMARK    1  A    between atoms: C_1  and  C_2
REMARK    2  A    between atoms: C_3  and  C_4
REMARK    3  A    between atoms: C_5  and  C_6
REMARK    4  A    between atoms: C_7  and  S_8
REMARK    5  A    between atoms: S_8  and  N_11
REMARK    6  A    between atoms: C_15  and  C_16
REMARK    7  A    between atoms: C_27  and  C_28
REMARK    8  A    between atoms: C_29  and  C_30
REMARK                            x       y       z     vdW  Elec       q    Type
REMARK                         _______ _______ _______ _____ _____    ______ ____
ROOT
ATOM      1  N   UNL     1      -0.082  11.584  22.046  0.00  0.00    +0.000 NA
ATOM      2  C   UNL     1      -0.985  10.788  22.913  0.00  0.00    +0.000 C 
ATOM      3  C   UNL     1      -0.691   9.296  23.028  0.00  0.00    +0.000 C 
ATOM      4  C   UNL     1      -0.168   8.627  21.773  0.00  0.00    +0.000 C 
ATOM      5  C   UNL     1       0.992   9.400  21.162  0.00  0.00    +0.000 C 
ATOM      6  C   UNL     1       0.764  10.908  21.016  0.00  0.00    +0.000 C 
ENDROOT
BRANCH   5   7
ATOM      7  C   UNL     1       1.490   8.735  19.884  0.00  0.00    +0.000 A 
ATOM      8  N   UNL     1       1.571   9.358  18.724  0.00  0.00    +0.000 NA
ATOM      9  N   UNL     1       2.182   8.531  17.822  0.00  0.00    +0.000 NA
ATOM     10  C   UNL     1       2.473   7.396  18.421  0.00  0.00    +0.000 A 
ATOM     11  N   UNL     1       2.004   7.460  19.720  0.00  0.00    +0.000 N 
ATOM     12  C   UNL     1       2.088   6.401  20.703  0.00  0.00    +0.000 C 
ATOM     13  C   UNL     1       1.900   4.993  20.140  0.00  0.00    +0.000 C 
ATOM     14  C   UNL     1       3.181   4.404  19.547  0.00  0.00    +0.000 C 
ATOM     15  C   UNL     1       4.013   5.392  18.728  0.00  0.00    +0.000 C 
ATOM     16  C   UNL     1       3.162   6.241  17.769  0.00  0.00    +0.000 C 
ENDBRANCH   5   7
BRANCH   1  17
ATOM     17  S   UNL     1      -0.669  13.128  21.541  0.00  0.00    +0.000 S 
ATOM     18  O   UNL     1       0.282  13.648  20.552  0.00  0.00    +0.000 OA
ATOM     19  O   UNL     1      -0.810  13.923  22.724  0.00  0.00    +0.000 OA
BRANCH  17  26
ATOM     20  C   UNL     1      -6.221  11.649  19.218  0.00  0.00    +0.000 C 
ATOM     21  C   UNL     1      -4.904  12.134  19.792  0.00  0.00    +0.000 A 
ATOM     22  C   UNL     1      -4.816  12.751  21.055  0.00  0.00    +0.000 A 
ATOM     23  C   UNL     1      -6.068  13.041  21.874  0.00  0.00    +0.000 C 
ATOM     24  C   UNL     1      -3.526  13.109  21.581  0.00  0.00    +0.000 A 
ATOM     25  C   UNL     1      -3.530  13.897  22.881  0.00  0.00    +0.000 C 
ATOM     26  C   UNL     1      -2.322  12.835  20.828  0.00  0.00    +0.000 A 
ATOM     27  C   UNL     1      -2.437  12.339  19.501  0.00  0.00    +0.000 A 
ATOM     28  C   UNL     1      -1.284  12.185  18.536  0.00  0.00    +0.000 C 
ATOM     29  C   UNL     1      -3.731  12.000  18.994  0.00  0.00    +0.000 A 
ATOM     30  C   UNL     1      -3.898  11.506  17.565  0.00  0.00    +0.000 C 
ENDBRANCH  17  26
ENDBRANCH   1  17
TORSDOF 3
ENDMDL
MODEL 5
REMARK VINA RESULT:      -8.2      0.901      2.349
REMARK  Name = 
REMARK  8 active torsions:
REMARK  status: ('A' for Active; 'I' for Inactive)
REMARK    1  A    between atoms: C_1  and  C_2
REMARK    2  A    between atoms: C_3  and  C_4
REMARK    3  A    between atoms: C_5  and  C_6
REMARK    4  A    between atoms: C_7  and  S_8
REMARK    5  A    between atoms: S_8  and  N_11
REMARK    6  A    between atoms: C_15  and  C_16
REMARK    7  A    between atoms: C_27  and  C_28
REMARK    8  A    between atoms: C_29  and  C_30
REMARK                            x       y       z     vdW  Elec       q    Type
REMARK                         _______ _______ _______ _____ _____    ______ ____
ROOT
ATOM      1  N   UNL     1       0.390  11.206  21.607  0.00  0.00    +0.000 NA
ATOM      2  C   UNL     1      -0.688  10.634  22.451  0.00  0.00    +0.000 C 
ATOM      3  C   UNL     1      -0.608   9.141  22.752  0.00  0.00    +0.000 C 
ATOM      4  C   UNL     1      -0.065   8.270  21.637  0.00  0.00    +0.000 C 
ATOM      5  C   UNL     1       1.239   8.818  21.076  0.00  0.00    +0.000 C 
ATOM      6  C   UNL     1       1.229  10.315  20.750  0.00  0.00    +0.000 C 
ENDROOT
BRANCH   5   7
ATOM      7  C   UNL     1       1.759   7.952  19.935  0.00  0.00    +0.000 A 
ATOM      8  N   UNL     1       2.171   8.440  18.780  0.00  0.00    +0.000 NA
ATOM      9  N   UNL     1       2.701   7.423  18.036  0.00  0.00    +0.000 NA
ATOM     10  C   UNL     1       2.612   6.305  18.725  0.00  0.00    +0.000 A 
ATOM     11  N   UNL     1       1.972   6.584  19.918  0.00  0.00    +0.000 N 
ATOM     12  C   UNL     1       1.642   5.620  20.947  0.00  0.00    +0.000 C 
ATOM     13  C   UNL     1       1.213   4.251  20.423  0.00  0.00    +0.000 C 
ATOM     14  C   UNL     1       2.393   3.336  20.088  0.00  0.00    +0.000 C 
ATOM     15  C   UNL     1       3.557   4.035  19.384  0.00  0.00    +0.000 C 
ATOM     16  C   UNL     1       3.098   4.972  18.255  0.00  0.00    +0.000 C 
ENDBRANCH   5   7
BRANCH   1  17
ATOM     17  S   UNL     1       0.064  12.741  20.884  0.00  0.00    +0.000 S 
ATOM     18  O   UNL     1       1.003  12.899  19.768  0.00  0.00    +0.000 OA
ATOM     19  O   UNL     1       0.185  13.720  21.923  0.00  0.00    +0.000 OA
BRANCH  17  26
ATOM     20  C   UNL     1      -5.882  12.120  19.254  0.00  0.00    +0.000 C 
ATOM     21  C   UNL     1      -4.436  12.396  19.616  0.00  0.00    +0.000 A 
ATOM     22  C   UNL     1      -4.074  13.346  20.590  0.00  0.00    +0.000 A 
ATOM     23  C   UNL     1      -5.127  14.211  21.271  0.00  0.00    +0.000 C 
ATOM     24  C   UNL     1      -2.690  13.499  20.951  0.00  0.00    +0.000 A 
ATOM     25  C   UNL     1      -2.370  14.640  21.904  0.00  0.00    +0.000 C 
ATOM     26  C   UNL     1      -1.672  12.682  20.329  0.00  0.00    +0.000 A 
ATOM     27  C   UNL     1      -2.037  11.828  19.253  0.00  0.00    +0.000 A 
ATOM     28  C   UNL     1      -1.060  11.064  18.389  0.00  0.00    +0.000 C 
ATOM     29  C   UNL     1      -3.419  11.700  18.903  0.00  0.00    +0.000 A 
ATOM     30  C   UNL     1      -3.843  10.828  17.731  0.00  0.00    +0.000 C 
ENDBRANCH  17  26
ENDBRANCH   1  17
TORSDOF 3
ENDMDL
MODEL 6
REMARK VINA RESULT:      -7.9      4.150      7.053
REMARK  Name = 
REMARK  8 active torsions:
REMARK  status: ('A' for Active; 'I' for Inactive)
REMARK    1  A    between atoms: C_1  and  C_2
REMARK    2  A    between atoms: C_3  and  C_4
REMARK    3  A    between atoms: C_5  and  C_6
REMARK    4  A    between atoms: C_7  and  S_8
REMARK    5  A    between atoms: S_8  and  N_11
REMARK    6  A    between atoms: C_15  and  C_16
REMARK    7  A    between atoms: C_27  and  C_28
REMARK    8  A    between atoms: C_29  and  C_30
REMARK                            x       y       z     vdW  Elec       q    Type
REMARK                         _______ _______ _______ _____ _____    ______ ____
ROOT
ATOM      1  N   UNL     1       0.182  13.023  19.977  0.00  0.00    +0.000 NA
ATOM      2  C   UNL     1       0.773  11.757  20.477  0.00  0.00    +0.000 C 
ATOM      3  C   UNL     1       0.421  10.484  19.713  0.00  0.00    +0.000 C 
ATOM      4  C   UNL     1      -0.984  10.418  19.151  0.00  0.00    +0.000 C 
ATOM      5  C   UNL     1      -1.342  11.676  18.373  0.00  0.00    +0.000 C 
ATOM      6  C   UNL     1      -1.015  12.995  19.083  0.00  0.00    +0.000 C 
ENDROOT
BRANCH   5   7
ATOM      7  C   UNL     1      -2.767  11.612  17.839  0.00  0.00    +0.000 A 
ATOM      8  N   UNL     1      -3.067  11.260  16.603  0.00  0.00    +0.000 NA
ATOM      9  N   UNL     1      -4.426  11.168  16.488  0.00  0.00    +0.000 NA
ATOM     10  C   UNL     1      -4.969  11.470  17.649  0.00  0.00    +0.000 A 
ATOM     11  N   UNL     1      -3.954  11.810  18.524  0.00  0.00    +0.000 N 
ATOM     12  C   UNL     1      -4.129  12.243  19.895  0.00  0.00    +0.000 C 
ATOM     13  C   UNL     1      -5.353  13.126  20.133  0.00  0.00    +0.000 C 
ATOM     14  C   UNL     1      -6.643  12.327  20.329  0.00  0.00    +0.000 C 
ATOM     15  C   UNL     1      -6.799  11.134  19.386  0.00  0.00    +0.000 C 
ATOM     16  C   UNL     1      -6.437  11.470  17.930  0.00  0.00    +0.000 C 
ENDBRANCH   5   7
BRANCH   1  17
ATOM     17  S   UNL     1       0.182  14.355  21.077  0.00  0.00    +0.000 S 
ATOM     18  O   UNL     1       0.563  15.546  20.310  0.00  0.00    +0.000 OA
ATOM     19  O   UNL     1       1.072  14.009  22.144  0.00  0.00    +0.000 OA
BRANCH  17  26
ATOM     20  C   UNL     1      -5.386  14.915  23.741  0.00  0.00    +0.000 C 
ATOM     21  C   UNL     1      -4.085  14.770  22.975  0.00  0.00    +0.000 A 
ATOM     22  C   UNL     1      -3.681  15.700  21.997  0.00  0.00    +0.000 A 
ATOM     23  C   UNL     1      -4.585  16.860  21.599  0.00  0.00    +0.000 C 
ATOM     24  C   UNL     1      -2.395  15.554  21.369  0.00  0.00    +0.000 A 
ATOM     25  C   UNL     1      -2.097  16.513  20.227  0.00  0.00    +0.000 C 
ATOM     26  C   UNL     1      -1.514  14.468  21.737  0.00  0.00    +0.000 A 
ATOM     27  C   UNL     1      -1.992  13.464  22.623  0.00  0.00    +0.000 A 
ATOM     28  C   UNL     1      -1.260  12.182  22.948  0.00  0.00    +0.000 C 
ATOM     29  C   UNL     1      -3.279  13.623  23.228  0.00  0.00    +0.000 A 
ATOM     30  C   UNL     1      -3.841  12.550  24.147  0.00  0.00    +0.000 C 
ENDBRANCH  17  26
ENDBRANCH   1  17
TORSDOF 3
ENDMDL
MODEL 7
REMARK VINA RESULT:      -7.8      3.991      7.567
REMARK  Name = 
REMARK  8 active torsions:
REMARK  status: ('A' for Active; 'I' for Inactive)
REMARK    1  A    between atoms: C_1  and  C_2
REMARK    2  A    between atoms: C_3  and  C_4
REMARK    3  A    between atoms: C_5  and  C_6
REMARK    4  A    between atoms: C_7  and  S_8
REMARK    5  A    between atoms: S_8  and  N_11
REMARK    6  A    between atoms: C_15  and  C_16
REMARK    7  A    between atoms: C_27  and  C_28
REMARK    8  A    between atoms: C_29  and  C_30
REMARK                            x       y       z     vdW  Elec       q    Type
REMARK                         _______ _______ _______ _____ _____    ______ ____
ROOT
ATOM      1  N   UNL     1       0.423  12.631  19.734  0.00  0.00    +0.000 NA
ATOM      2  C   UNL     1       0.864  11.337  20.313  0.00  0.00    +0.000 C 
ATOM      3  C   UNL     1       0.364  10.070  19.626  0.00  0.00    +0.000 C 
ATOM      4  C   UNL     1      -1.040  10.133  19.062  0.00  0.00    +0.000 C 
ATOM      5  C   UNL     1      -1.250  11.375  18.207  0.00  0.00    +0.000 C 
ATOM      6  C   UNL     1      -0.771  12.687  18.837  0.00  0.00    +0.000 C 
ENDROOT
BRANCH   5   7
ATOM      7  C   UNL     1      -2.675  11.444  17.671  0.00  0.00    +0.000 A 
ATOM      8  N   UNL     1      -3.003  11.126  16.433  0.00  0.00    +0.000 NA
ATOM      9  N   UNL     1      -4.365  11.161  16.316  0.00  0.00    +0.000 NA
ATOM     10  C   UNL     1      -4.880  11.506  17.477  0.00  0.00    +0.000 A 
ATOM     11  N   UNL     1      -3.839  11.748  18.355  0.00  0.00    +0.000 N 
ATOM     12  C   UNL     1      -3.976  12.188  19.728  0.00  0.00    +0.000 C 
ATOM     13  C   UNL     1      -5.114  13.179  19.969  0.00  0.00    +0.000 C 
ATOM     14  C   UNL     1      -6.473  12.502  20.159  0.00  0.00    +0.000 C 
ATOM     15  C   UNL     1      -6.736  11.332  19.210  0.00  0.00    +0.000 C 
ATOM     16  C   UNL     1      -6.342  11.640  17.756  0.00  0.00    +0.000 C 
ENDBRANCH   5   7
BRANCH   1  17
ATOM     17  S   UNL     1       0.581  14.018  20.751  0.00  0.00    +0.000 S 
ATOM     18  O   UNL     1       1.858  13.889  21.460  0.00  0.00    +0.000 OA
ATOM     19  O   UNL     1      -0.580  14.049  21.589  0.00  0.00    +0.000 OA
BRANCH  17  26
ATOM     20  C   UNL     1       0.362  18.627  16.614  0.00  0.00    +0.000 C 
ATOM     21  C   UNL     1       0.403  17.590  17.718  0.00  0.00    +0.000 A 
ATOM     22  C   UNL     1      -0.672  17.398  18.609  0.00  0.00    +0.000 A 
ATOM     23  C   UNL     1      -1.903  18.293  18.555  0.00  0.00    +0.000 C 
ATOM     24  C   UNL     1      -0.607  16.338  19.579  0.00  0.00    +0.000 A 
ATOM     25  C   UNL     1      -1.741  16.288  20.591  0.00  0.00    +0.000 C 
ATOM     26  C   UNL     1       0.545  15.466  19.643  0.00  0.00    +0.000 A 
ATOM     27  C   UNL     1       1.676  15.759  18.832  0.00  0.00    +0.000 A 
ATOM     28  C   UNL     1       3.010  15.056  18.928  0.00  0.00    +0.000 C 
ATOM     29  C   UNL     1       1.594  16.825  17.881  0.00  0.00    +0.000 A 
ATOM     30  C   UNL     1       2.796  17.194  17.026  0.00  0.00    +0.000 C 
ENDBRANCH  17  26
ENDBRANCH   1  17
TORSDOF 3
ENDMDL
MODEL 8
REMARK VINA RESULT:      -7.8      1.494      2.920
REMARK  Name = 
REMARK  8 active torsions:
REMARK  status: ('A' for Active; 'I' for Inactive)
REMARK    1  A    between atoms: C_1  and  C_2
REMARK    2  A    between atoms: C_3  and  C_4
REMARK    3  A    between atoms: C_5  and  C_6
REMARK    4  A    between atoms: C_7  and  S_8
REMARK    5  A    between atoms: S_8  and  N_11
REMARK    6  A    between atoms: C_15  and  C_16
REMARK    7  A    between atoms: C_27  and  C_28
REMARK    8  A    between atoms: C_29  and  C_30
REMARK                            x       y       z     vdW  Elec       q    Type
REMARK                         _______ _______ _______ _____ _____    ______ ____
ROOT
ATOM      1  N   UNL     1      -0.441  12.121  21.009  0.00  0.00    +0.000 NA
ATOM      2  C   UNL     1      -1.217  11.437  22.073  0.00  0.00    +0.000 C 
ATOM      3  C   UNL     1      -0.724  10.061  22.509  0.00  0.00    +0.000 C 
ATOM      4  C   UNL     1      -0.137   9.193  21.415  0.00  0.00    +0.000 C 
ATOM      5  C   UNL     1       0.900   9.945  20.592  0.00  0.00    +0.000 C 
ATOM      6  C   UNL     1       0.471  11.338  20.120  0.00  0.00    +0.000 C 
ENDROOT
BRANCH   5   7
ATOM      7  C   UNL     1       1.461   9.072  19.476  0.00  0.00    +0.000 A 
ATOM      8  N   UNL     1       1.618   9.491  18.235  0.00  0.00    +0.000 NA
ATOM      9  N   UNL     1       2.269   8.521  17.522  0.00  0.00    +0.000 NA
ATOM     10  C   UNL     1       2.508   7.502  18.319  0.00  0.00    +0.000 A 
ATOM     11  N   UNL     1       1.966   7.786  19.559  0.00  0.00    +0.000 N 
ATOM     12  C   UNL     1       1.978   6.906  20.709  0.00  0.00    +0.000 C 
ATOM     13  C   UNL     1       1.802   5.425  20.380  0.00  0.00    +0.000 C 
ATOM     14  C   UNL     1       3.108   4.739  19.972  0.00  0.00    +0.000 C 
ATOM     15  C   UNL     1       3.999   5.572  19.050  0.00  0.00    +0.000 C 
ATOM     16  C   UNL     1       3.218   6.250  17.913  0.00  0.00    +0.000 C 
ENDBRANCH   5   7
BRANCH   1  17
ATOM     17  S   UNL     1      -1.237  13.421  20.196  0.00  0.00    +0.000 S 
ATOM     18  O   UNL     1      -0.681  13.484  18.839  0.00  0.00    +0.000 OA
ATOM     19  O   UNL     1      -1.031  14.593  20.992  0.00  0.00    +0.000 OA
BRANCH  17  26
ATOM     20  C   UNL     1      -7.156  11.597  20.426  0.00  0.00    +0.000 C 
ATOM     21  C   UNL     1      -5.751  12.164  20.350  0.00  0.00    +0.000 A 
ATOM     22  C   UNL     1      -5.284  13.137  21.254  0.00  0.00    +0.000 A 
ATOM     23  C   UNL     1      -6.207  13.734  22.309  0.00  0.00    +0.000 C 
ATOM     24  C   UNL     1      -3.914  13.570  21.184  0.00  0.00    +0.000 A 
ATOM     25  C   UNL     1      -3.529  14.721  22.100  0.00  0.00    +0.000 C 
ATOM     26  C   UNL     1      -3.014  13.011  20.200  0.00  0.00    +0.000 A 
ATOM     27  C   UNL     1      -3.535  12.134  19.209  0.00  0.00    +0.000 A 
ATOM     28  C   UNL     1      -2.762  11.626  18.015  0.00  0.00    +0.000 C 
ATOM     29  C   UNL     1      -4.904  11.725  19.292  0.00  0.00    +0.000 A 
ATOM     30  C   UNL     1      -5.508  10.822  18.228  0.00  0.00    +0.000 C 
ENDBRANCH  17  26
ENDBRANCH   1  17
TORSDOF 3
ENDMDL
MODEL 9
REMARK VINA RESULT:      -7.7      2.071      3.669
REMARK  Name = 
REMARK  8 active torsions:
REMARK  status: ('A' for Active; 'I' for Inactive)
REMARK    1  A    between atoms: C_1  and  C_2
REMARK    2  A    between atoms: C_3  and  C_4
REMARK    3  A    between atoms: C_5  and  C_6
REMARK    4  A    between atoms: C_7  and  S_8
REMARK    5  A    between atoms: S_8  and  N_11
REMARK    6  A    between atoms: C_15  and  C_16
REMARK    7  A    between atoms: C_27  and  C_28
REMARK    8  A    between atoms: C_29  and  C_30
REMARK                            x       y       z     vdW  Elec       q    Type
REMARK                         _______ _______ _______ _____ _____    ______ ____
ROOT
ATOM      1  N   UNL     1       1.436   9.281  19.488  0.00  0.00    +0.000 NA
ATOM      2  C   UNL     1       0.667   9.022  20.730  0.00  0.00    +0.000 C 
ATOM      3  C   UNL     1       1.015   7.754  21.503  0.00  0.00    +0.000 C 
ATOM      4  C   UNL     1       1.399   6.553  20.664  0.00  0.00    +0.000 C 
ATOM      5  C   UNL     1       2.454   6.904  19.624  0.00  0.00    +0.000 C 
ATOM      6  C   UNL     1       2.168   8.169  18.809  0.00  0.00    +0.000 C 
ENDROOT
BRANCH   5   7
ATOM      7  C   UNL     1       2.809   5.696  18.766  0.00  0.00    +0.000 A 
ATOM      8  N   UNL     1       1.920   4.821  18.336  0.00  0.00    +0.000 NA
ATOM      9  N   UNL     1       2.537   3.949  17.483  0.00  0.00    +0.000 NA
ATOM     10  C   UNL     1       3.808   4.279  17.389  0.00  0.00    +0.000 A 
ATOM     11  N   UNL     1       4.038   5.353  18.229  0.00  0.00    +0.000 N 
ATOM     12  C   UNL     1       5.317   5.995  18.448  0.00  0.00    +0.000 C 
ATOM     13  C   UNL     1       6.514   5.046  18.461  0.00  0.00    +0.000 C 
ATOM     14  C   UNL     1       7.036   4.716  17.061  0.00  0.00    +0.000 C 
ATOM     15  C   UNL     1       5.945   4.471  16.019  0.00  0.00    +0.000 C 
ATOM     16  C   UNL     1       4.812   3.571  16.538  0.00  0.00    +0.000 C 
ENDBRANCH   5   7
BRANCH   1  17
ATOM     17  S   UNL     1       0.749  10.420  18.385  0.00  0.00    +0.000 S 
ATOM     18  O   UNL     1      -0.080   9.661  17.443  0.00  0.00    +0.000 OA
ATOM     19  O   UNL     1       1.842  11.133  17.796  0.00  0.00    +0.000 OA
BRANCH  17  26
ATOM     20  C   UNL     1      -2.687  13.973  22.125  0.00  0.00    +0.000 C 
ATOM     21  C   UNL     1      -1.796  13.213  21.162  0.00  0.00    +0.000 A 
ATOM     22  C   UNL     1      -0.391  13.308  21.203  0.00  0.00    +0.000 A 
ATOM     23  C   UNL     1       0.302  14.255  22.175  0.00  0.00    +0.000 C 
ATOM     24  C   UNL     1       0.401  12.494  20.320  0.00  0.00    +0.000 A 
ATOM     25  C   UNL     1       1.898  12.759  20.330  0.00  0.00    +0.000 C 
ATOM     26  C   UNL     1      -0.232  11.577  19.397  0.00  0.00    +0.000 A 
ATOM     27  C   UNL     1      -1.648  11.595  19.271  0.00  0.00    +0.000 A 
ATOM     28  C   UNL     1      -2.429  10.836  18.224  0.00  0.00    +0.000 C 
ATOM     29  C   UNL     1      -2.416  12.421  20.153  0.00  0.00    +0.000 A 
ATOM     30  C   UNL     1      -3.928  12.497  20.021  0.00  0.00    +0.000 C 
ENDBRANCH  17  26
ENDBRANCH   1  17
TORSDOF 3
ENDMDL
