MODEL 1
REMARK VINA RESULT:      -9.1      0.000      0.000
REMARK  Name = 
REMARK  5 active torsions:
REMARK  status: ('A' for Active; 'I' for Inactive)
REMARK    1  A    between atoms: N_4  and  C_5
REMARK    2  A    between atoms: C_5  and  C_6
REMARK    3  A    between atoms: C_5  and  C_25
REMARK    4  A    between atoms: C_6  and  C_7
REMARK    5  A    between atoms: C_12  and  C_13
REMARK                            x       y       z     vdW  Elec       q    Type
REMARK                         _______ _______ _______ _____ _____    ______ ____
ROOT
ATOM      1  C   UNL     1       3.503   5.449  19.479  0.00  0.00    +0.000 C 
ATOM      2  O   UNL     1       3.439   4.612  20.380  0.00  0.00    +0.000 OA
ATOM      3  N   UNL     1       2.608   6.514  19.374  0.00  0.00    +0.000 N 
ATOM      4  C   UNL     1       2.496   7.339  18.168  0.00  0.00    +0.000 C 
ATOM      5  C   UNL     1       1.844   8.655  18.434  0.00  0.00    +0.000 C 
ATOM      6  C   UNL     1       1.413   9.049  19.644  0.00  0.00    +0.000 C 
ATOM      7  C   UNL     1       1.498   8.138  20.840  0.00  0.00    +0.000 C 
ATOM      8  C   UNL     1       1.569   6.680  20.386  0.00  0.00    +0.000 C 
ENDROOT
BRANCH   6   9
ATOM      9  C   UNL     1       0.799  10.305  19.881  0.00  0.00    +0.000 A 
ATOM     10  C   UNL     1       0.847  11.373  19.019  0.00  0.00    +0.000 A 
ATOM     11  N   UNL     1       0.142  12.398  19.597  0.00  0.00    +0.000 N 
ATOM     12  C   UNL     1      -0.364  12.001  20.815  0.00  0.00    +0.000 A 
ATOM     13  C   UNL     1      -1.135  12.702  21.748  0.00  0.00    +0.000 A 
ATOM     14  C   UNL     1      -1.513  12.021  22.905  0.00  0.00    +0.000 A 
ATOM     15  F   UNL     1      -2.250  12.664  23.822  0.00  0.00    +0.000 F 
ATOM     16  C   UNL     1      -1.152  10.699  23.133  0.00  0.00    +0.000 A 
ATOM     17  C   UNL     1      -0.382  10.011  22.191  0.00  0.00    +0.000 A 
ATOM     18  C   UNL     1       0.025  10.674  21.014  0.00  0.00    +0.000 A 
ATOM     19  H   UNL     1       0.012  13.313  19.187  0.00  0.00    +0.000 HD
ENDBRANCH   6   9
BRANCH   1  20
ATOM     20  C   UNL     1       4.546   5.383  18.383  0.00  0.00    +0.000 C 
BRANCH  20  21
ATOM     21  C   UNL     1       4.355   4.251  17.374  0.00  0.00    +0.000 C 
BRANCH  21  25
ATOM     22  N   UNL     1       3.826   0.815  18.521  0.00  0.00    +0.000 N 
ATOM     23  C   UNL     1       3.454   1.971  17.917  0.00  0.00    +0.000 C 
ATOM     24  O   UNL     1       2.325   2.104  17.468  0.00  0.00    +0.000 OA
ATOM     25  N   UNL     1       4.451   2.893  17.899  0.00  0.00    +0.000 N 
ATOM     26  H   UNL     1       3.126   0.090  18.429  0.00  0.00    +0.000 HD
ATOM     27  H   UNL     1       4.772   0.504  18.359  0.00  0.00    +0.000 HD
ATOM     28  H   UNL     1       5.264   2.684  18.456  0.00  0.00    +0.000 HD
ENDBRANCH  21  25
BRANCH  21  29
ATOM     29  C   UNL     1       5.319   4.465  16.208  0.00  0.00    +0.000 A 
ATOM     30  C   UNL     1       6.554   5.097  16.417  0.00  0.00    +0.000 A 
ATOM     31  C   UNL     1       7.465   5.243  15.367  0.00  0.00    +0.000 A 
ATOM     32  C   UNL     1       7.158   4.758  14.098  0.00  0.00    +0.000 A 
ATOM     33  C   UNL     1       5.943   4.120  13.876  0.00  0.00    +0.000 A 
ATOM     34  C   UNL     1       5.032   3.973  14.923  0.00  0.00    +0.000 A 
ENDBRANCH  21  29
ENDBRANCH  20  21
ENDBRANCH   1  20
TORSDOF 5
ENDMDL
MODEL 2
REMARK VINA RESULT:      -9.1      1.766      2.269
REMARK  Name = 
REMARK  5 active torsions:
REMARK  status: ('A' for Active; 'I' for Inactive)
REMARK    1  A    between atoms: N_4  and  C_5
REMARK    2  A    between atoms: C_5  and  C_6
REMARK    3  A    between atoms: C_5  and  C_25
REMARK    4  A    between atoms: C_6  and  C_7
REMARK    5  A    between atoms: C_12  and  C_13
REMARK                            x       y       z     vdW  Elec       q    Type
REMARK                         _______ _______ _______ _____ _____    ______ ____
ROOT
ATOM      1  C   UNL     1       3.784   5.510  19.200  0.00  0.00    +0.000 C 
ATOM      2  O   UNL     1       3.883   4.753  20.165  0.00  0.00    +0.000 OA
ATOM      3  N   UNL     1       2.775   6.466  19.091  0.00  0.00    +0.000 N 
ATOM      4  C   UNL     1       2.478   7.168  17.840  0.00  0.00    +0.000 C 
ATOM      5  C   UNL     1       1.713   8.431  18.059  0.00  0.00    +0.000 C 
ATOM      6  C   UNL     1       1.340   8.882  19.267  0.00  0.00    +0.000 C 
ATOM      7  C   UNL     1       1.618   8.093  20.518  0.00  0.00    +0.000 C 
ATOM      8  C   UNL     1       1.808   6.615  20.176  0.00  0.00    +0.000 C 
ENDROOT
BRANCH   6   9
ATOM      9  C   UNL     1       0.615  10.086  19.459  0.00  0.00    +0.000 A 
ATOM     10  C   UNL     1       1.072  11.168  20.173  0.00  0.00    +0.000 A 
ATOM     11  N   UNL     1       0.093  12.128  20.133  0.00  0.00    +0.000 N 
ATOM     12  C   UNL     1      -0.984  11.680  19.399  0.00  0.00    +0.000 A 
ATOM     13  C   UNL     1      -2.195  12.308  19.095  0.00  0.00    +0.000 A 
ATOM     14  C   UNL     1      -3.102  11.598  18.308  0.00  0.00    +0.000 A 
ATOM     15  F   UNL     1      -4.276  12.169  18.000  0.00  0.00    +0.000 F 
ATOM     16  C   UNL     1      -2.826  10.321  17.835  0.00  0.00    +0.000 A 
ATOM     17  C   UNL     1      -1.610   9.707  18.148  0.00  0.00    +0.000 A 
ATOM     18  C   UNL     1      -0.673  10.395  18.948  0.00  0.00    +0.000 A 
ATOM     19  H   UNL     1       0.153  13.033  20.578  0.00  0.00    +0.000 HD
ENDBRANCH   6   9
BRANCH   1  20
ATOM     20  C   UNL     1       4.737   5.454  18.024  0.00  0.00    +0.000 C 
BRANCH  20  21
ATOM     21  C   UNL     1       4.513   4.286  17.063  0.00  0.00    +0.000 C 
BRANCH  21  25
ATOM     22  N   UNL     1       3.831   0.958  18.427  0.00  0.00    +0.000 N 
ATOM     23  C   UNL     1       3.495   2.111  17.796  0.00  0.00    +0.000 C 
ATOM     24  O   UNL     1       2.346   2.310  17.433  0.00  0.00    +0.000 OA
ATOM     25  N   UNL     1       4.553   2.950  17.649  0.00  0.00    +0.000 N 
ATOM     26  H   UNL     1       3.073   0.286  18.431  0.00  0.00    +0.000 HD
ATOM     27  H   UNL     1       4.733   0.567  18.206  0.00  0.00    +0.000 HD
ATOM     28  H   UNL     1       5.393   2.704  18.149  0.00  0.00    +0.000 HD
ENDBRANCH  21  25
BRANCH  21  29
ATOM     29  C   UNL     1       5.496   4.411  15.901  0.00  0.00    +0.000 A 
ATOM     30  C   UNL     1       5.214   3.807  14.666  0.00  0.00    +0.000 A 
ATOM     31  C   UNL     1       6.081   3.966  13.581  0.00  0.00    +0.000 A 
ATOM     32  C   UNL     1       7.236   4.733  13.712  0.00  0.00    +0.000 A 
ATOM     33  C   UNL     1       7.525   5.349  14.925  0.00  0.00    +0.000 A 
ATOM     34  C   UNL     1       6.662   5.189  16.010  0.00  0.00    +0.000 A 
ENDBRANCH  21  29
ENDBRANCH  20  21
ENDBRANCH   1  20
TORSDOF 5
ENDMDL
MODEL 3
REMARK VINA RESULT:      -9.1      1.964      2.778
REMARK  Name = 
REMARK  5 active torsions:
REMARK  status: ('A' for Active; 'I' for Inactive)
REMARK    1  A    between atoms: N_4  and  C_5
REMARK    2  A    between atoms: C_5  and  C_6
REMARK    3  A    between atoms: C_5  and  C_25
REMARK    4  A    between atoms: C_6  and  C_7
REMARK    5  A    between atoms: C_12  and  C_13
REMARK                            x       y       z     vdW  Elec       q    Type
REMARK                         _______ _______ _______ _____ _____    ______ ____
ROOT
ATOM      1  C   UNL     1       3.238   5.864  19.651  0.00  0.00    +0.000 C 
ATOM      2  O   UNL     1       3.121   5.079  20.591  0.00  0.00    +0.000 OA
ATOM      3  N   UNL     1       2.359   6.928  19.443  0.00  0.00    +0.000 N 
ATOM      4  C   UNL     1       2.315   7.686  18.190  0.00  0.00    +0.000 C 
ATOM      5  C   UNL     1       1.664   9.020  18.351  0.00  0.00    +0.000 C 
ATOM      6  C   UNL     1       1.177   9.482  19.514  0.00  0.00    +0.000 C 
ATOM      7  C   UNL     1       1.194   8.638  20.761  0.00  0.00    +0.000 C 
ATOM      8  C   UNL     1       1.273   7.156  20.391  0.00  0.00    +0.000 C 
ENDROOT
BRANCH   6   9
ATOM      9  C   UNL     1       0.564  10.753  19.652  0.00  0.00    +0.000 A 
ATOM     10  C   UNL     1      -0.652  10.973  20.255  0.00  0.00    +0.000 A 
ATOM     11  N   UNL     1      -0.903  12.320  20.189  0.00  0.00    +0.000 N 
ATOM     12  C   UNL     1       0.136  12.969  19.559  0.00  0.00    +0.000 A 
ATOM     13  C   UNL     1       0.313  14.326  19.269  0.00  0.00    +0.000 A 
ATOM     14  C   UNL     1       1.493  14.691  18.621  0.00  0.00    +0.000 A 
ATOM     15  F   UNL     1       1.695  15.983  18.324  0.00  0.00    +0.000 F 
ATOM     16  C   UNL     1       2.464  13.758  18.276  0.00  0.00    +0.000 A 
ATOM     17  C   UNL     1       2.272  12.406  18.573  0.00  0.00    +0.000 A 
ATOM     18  C   UNL     1       1.086  12.002  19.221  0.00  0.00    +0.000 A 
ATOM     19  H   UNL     1      -1.731  12.771  20.552  0.00  0.00    +0.000 HD
ENDBRANCH   6   9
BRANCH   1  20
ATOM     20  C   UNL     1       4.333   5.731  18.614  0.00  0.00    +0.000 C 
BRANCH  20  21
ATOM     21  C   UNL     1       4.557   4.314  18.086  0.00  0.00    +0.000 C 
BRANCH  21  25
ATOM     22  N   UNL     1       5.221   1.566  20.411  0.00  0.00    +0.000 N 
ATOM     23  C   UNL     1       4.479   2.238  19.496  0.00  0.00    +0.000 C 
ATOM     24  O   UNL     1       3.371   1.835  19.175  0.00  0.00    +0.000 OA
ATOM     25  N   UNL     1       5.107   3.350  19.032  0.00  0.00    +0.000 N 
ATOM     26  H   UNL     1       4.806   0.678  20.666  0.00  0.00    +0.000 HD
ATOM     27  H   UNL     1       6.216   1.530  20.249  0.00  0.00    +0.000 HD
ATOM     28  H   UNL     1       5.944   3.627  19.520  0.00  0.00    +0.000 HD
ENDBRANCH  21  25
BRANCH  21  29
ATOM     29  C   UNL     1       5.404   4.391  16.817  0.00  0.00    +0.000 A 
ATOM     30  C   UNL     1       4.817   4.184  15.560  0.00  0.00    +0.000 A 
ATOM     31  C   UNL     1       5.574   4.311  14.391  0.00  0.00    +0.000 A 
ATOM     32  C   UNL     1       6.923   4.649  14.462  0.00  0.00    +0.000 A 
ATOM     33  C   UNL     1       7.519   4.868  15.700  0.00  0.00    +0.000 A 
ATOM     34  C   UNL     1       6.764   4.741  16.867  0.00  0.00    +0.000 A 
ENDBRANCH  21  29
ENDBRANCH  20  21
ENDBRANCH   1  20
TORSDOF 5
ENDMDL
MODEL 4
REMARK VINA RESULT:      -8.9      1.818      2.640
REMARK  Name = 
REMARK  5 active torsions:
REMARK  status: ('A' for Active; 'I' for Inactive)
REMARK    1  A    between atoms: N_4  and  C_5
REMARK    2  A    between atoms: C_5  and  C_6
REMARK    3  A    between atoms: C_5  and  C_25
REMARK    4  A    between atoms: C_6  and  C_7
REMARK    5  A    between atoms: C_12  and  C_13
REMARK                            x       y       z     vdW  Elec       q    Type
REMARK                         _______ _______ _______ _____ _____    ______ ____
ROOT
ATOM      1  C   UNL     1       3.734   5.735  19.086  0.00  0.00    +0.000 C 
ATOM      2  O   UNL     1       3.835   4.987  20.058  0.00  0.00    +0.000 OA
ATOM      3  N   UNL     1       2.745   6.713  18.987  0.00  0.00    +0.000 N 
ATOM      4  C   UNL     1       2.438   7.407  17.733  0.00  0.00    +0.000 C 
ATOM      5  C   UNL     1       1.707   8.690  17.952  0.00  0.00    +0.000 C 
ATOM      6  C   UNL     1       1.370   9.164  19.163  0.00  0.00    +0.000 C 
ATOM      7  C   UNL     1       1.655   8.383  20.417  0.00  0.00    +0.000 C 
ATOM      8  C   UNL     1       1.804   6.897  20.089  0.00  0.00    +0.000 C 
ENDROOT
BRANCH   6   9
ATOM      9  C   UNL     1       0.677  10.387  19.355  0.00  0.00    +0.000 A 
ATOM     10  C   UNL     1      -0.567  10.498  19.928  0.00  0.00    +0.000 A 
ATOM     11  N   UNL     1      -0.896  11.829  19.935  0.00  0.00    +0.000 N 
ATOM     12  C   UNL     1       0.121  12.575  19.380  0.00  0.00    +0.000 A 
ATOM     13  C   UNL     1       0.224  13.955  19.178  0.00  0.00    +0.000 A 
ATOM     14  C   UNL     1       1.399  14.427  18.594  0.00  0.00    +0.000 A 
ATOM     15  F   UNL     1       1.532  15.745  18.382  0.00  0.00    +0.000 F 
ATOM     16  C   UNL     1       2.435  13.576  18.227  0.00  0.00    +0.000 A 
ATOM     17  C   UNL     1       2.315  12.200  18.436  0.00  0.00    +0.000 A 
ATOM     18  C   UNL     1       1.136  11.688  19.018  0.00  0.00    +0.000 A 
ATOM     19  H   UNL     1      -1.761  12.208  20.295  0.00  0.00    +0.000 HD
ENDBRANCH   6   9
BRANCH   1  20
ATOM     20  C   UNL     1       4.661   5.643  17.892  0.00  0.00    +0.000 C 
BRANCH  20  21
ATOM     21  C   UNL     1       4.440   4.427  16.992  0.00  0.00    +0.000 C 
BRANCH  21  25
ATOM     22  N   UNL     1       3.731   1.158  18.479  0.00  0.00    +0.000 N 
ATOM     23  C   UNL     1       3.416   2.269  17.768  0.00  0.00    +0.000 C 
ATOM     24  O   UNL     1       2.290   2.424  17.321  0.00  0.00    +0.000 OA
ATOM     25  N   UNL     1       4.465   3.124  17.648  0.00  0.00    +0.000 N 
ATOM     26  H   UNL     1       2.988   0.470  18.467  0.00  0.00    +0.000 HD
ATOM     27  H   UNL     1       4.654   0.776  18.339  0.00  0.00    +0.000 HD
ATOM     28  H   UNL     1       5.274   2.922  18.214  0.00  0.00    +0.000 HD
ENDBRANCH  21  25
BRANCH  21  29
ATOM     29  C   UNL     1       5.434   4.486  15.835  0.00  0.00    +0.000 A 
ATOM     30  C   UNL     1       5.149   3.840  14.622  0.00  0.00    +0.000 A 
ATOM     31  C   UNL     1       6.028   3.939  13.540  0.00  0.00    +0.000 A 
ATOM     32  C   UNL     1       7.199   4.684  13.651  0.00  0.00    +0.000 A 
ATOM     33  C   UNL     1       7.492   5.340  14.842  0.00  0.00    +0.000 A 
ATOM     34  C   UNL     1       6.616   5.242  15.924  0.00  0.00    +0.000 A 
ENDBRANCH  21  29
ENDBRANCH  20  21
ENDBRANCH   1  20
TORSDOF 5
ENDMDL
MODEL 5
REMARK VINA RESULT:      -8.9      0.900      1.245
REMARK  Name = 
REMARK  5 active torsions:
REMARK  status: ('A' for Active; 'I' for Inactive)
REMARK    1  A    between atoms: N_4  and  C_5
REMARK    2  A    between atoms: C_5  and  C_6
REMARK    3  A    between atoms: C_5  and  C_25
REMARK    4  A    between atoms: C_6  and  C_7
REMARK    5  A    between atoms: C_12  and  C_13
REMARK                            x       y       z     vdW  Elec       q    Type
REMARK                         _______ _______ _______ _____ _____    ______ ____
ROOT
ATOM      1  C   UNL     1       3.168   5.804  19.708  0.00  0.00    +0.000 C 
ATOM      2  O   UNL     1       3.044   4.962  20.597  0.00  0.00    +0.000 OA
ATOM      3  N   UNL     1       2.331   6.916  19.600  0.00  0.00    +0.000 N 
ATOM      4  C   UNL     1       2.285   7.759  18.403  0.00  0.00    +0.000 C 
ATOM      5  C   UNL     1       1.698   9.105  18.673  0.00  0.00    +0.000 C 
ATOM      6  C   UNL     1       1.265   9.506  19.879  0.00  0.00    +0.000 C 
ATOM      7  C   UNL     1       1.280   8.579  21.065  0.00  0.00    +0.000 C 
ATOM      8  C   UNL     1       1.283   7.124  20.595  0.00  0.00    +0.000 C 
ENDROOT
BRANCH   6   9
ATOM      9  C   UNL     1       0.712  10.790  20.121  0.00  0.00    +0.000 A 
ATOM     10  C   UNL     1       0.902  11.886  19.314  0.00  0.00    +0.000 A 
ATOM     11  N   UNL     1       0.215  12.932  19.877  0.00  0.00    +0.000 N 
ATOM     12  C   UNL     1      -0.419  12.521  21.030  0.00  0.00    +0.000 A 
ATOM     13  C   UNL     1      -1.222  13.234  21.925  0.00  0.00    +0.000 A 
ATOM     14  C   UNL     1      -1.741  12.534  23.014  0.00  0.00    +0.000 A 
ATOM     15  F   UNL     1      -2.513  13.188  23.894  0.00  0.00    +0.000 F 
ATOM     16  C   UNL     1      -1.485  11.183  23.212  0.00  0.00    +0.000 A 
ATOM     17  C   UNL     1      -0.680  10.484  22.307  0.00  0.00    +0.000 A 
ATOM     18  C   UNL     1      -0.132  11.164  21.199  0.00  0.00    +0.000 A 
ATOM     19  H   UNL     1       0.178  13.868  19.500  0.00  0.00    +0.000 HD
ENDBRANCH   6   9
BRANCH   1  20
ATOM     20  C   UNL     1       4.226   5.697  18.631  0.00  0.00    +0.000 C 
BRANCH  20  21
ATOM     21  C   UNL     1       4.492   4.280  18.123  0.00  0.00    +0.000 C 
BRANCH  21  25
ATOM     22  N   UNL     1       5.219   1.509  20.401  0.00  0.00    +0.000 N 
ATOM     23  C   UNL     1       4.510   2.136  19.430  0.00  0.00    +0.000 C 
ATOM     24  O   UNL     1       3.506   1.622  18.961  0.00  0.00    +0.000 OA
ATOM     25  N   UNL     1       5.044   3.338  19.091  0.00  0.00    +0.000 N 
ATOM     26  H   UNL     1       4.891   0.566  20.569  0.00  0.00    +0.000 HD
ATOM     27  H   UNL     1       6.222   1.600  20.361  0.00  0.00    +0.000 HD
ATOM     28  H   UNL     1       5.778   3.686  19.687  0.00  0.00    +0.000 HD
ENDBRANCH  21  25
BRANCH  21  29
ATOM     29  C   UNL     1       5.363   4.362  16.870  0.00  0.00    +0.000 A 
ATOM     30  C   UNL     1       4.798   4.171  15.601  0.00  0.00    +0.000 A 
ATOM     31  C   UNL     1       5.577   4.303  14.448  0.00  0.00    +0.000 A 
ATOM     32  C   UNL     1       6.927   4.631  14.546  0.00  0.00    +0.000 A 
ATOM     33  C   UNL     1       7.501   4.836  15.796  0.00  0.00    +0.000 A 
ATOM     34  C   UNL     1       6.724   4.703  16.949  0.00  0.00    +0.000 A 
ENDBRANCH  21  29
ENDBRANCH  20  21
ENDBRANCH   1  20
TORSDOF 5
ENDMDL
MODEL 6
REMARK VINA RESULT:      -8.8      2.886      3.651
REMARK  Name = 
REMARK  5 active torsions:
REMARK  status: ('A' for Active; 'I' for Inactive)
REMARK    1  A    between atoms: N_4  and  C_5
REMARK    2  A    between atoms: C_5  and  C_6
REMARK    3  A    between atoms: C_5  and  C_25
REMARK    4  A    between atoms: C_6  and  C_7
REMARK    5  A    between atoms: C_12  and  C_13
REMARK                            x       y       z     vdW  Elec       q    Type
REMARK                         _______ _______ _______ _____ _____    ______ ____
ROOT
ATOM      1  C   UNL     1       2.875   7.465  18.265  0.00  0.00    +0.000 C 
ATOM      2  O   UNL     1       3.494   7.575  17.207  0.00  0.00    +0.000 OA
ATOM      3  N   UNL     1       2.071   8.482  18.779  0.00  0.00    +0.000 N 
ATOM      4  C   UNL     1       1.565   8.475  20.154  0.00  0.00    +0.000 C 
ATOM      5  C   UNL     1       0.390   9.377  20.336  0.00  0.00    +0.000 C 
ATOM      6  C   UNL     1      -0.153  10.111  19.351  0.00  0.00    +0.000 C 
ATOM      7  C   UNL     1       0.443  10.129  17.969  0.00  0.00    +0.000 C 
ATOM      8  C   UNL     1       1.916   9.723  18.026  0.00  0.00    +0.000 C 
ENDROOT
BRANCH   6   9
ATOM      9  C   UNL     1      -1.272  10.962  19.540  0.00  0.00    +0.000 A 
ATOM     10  C   UNL     1      -1.383  11.895  20.543  0.00  0.00    +0.000 A 
ATOM     11  N   UNL     1      -2.599  12.512  20.394  0.00  0.00    +0.000 N 
ATOM     12  C   UNL     1      -3.268  11.993  19.306  0.00  0.00    +0.000 A 
ATOM     13  C   UNL     1      -4.524  12.310  18.781  0.00  0.00    +0.000 A 
ATOM     14  C   UNL     1      -4.935  11.611  17.646  0.00  0.00    +0.000 A 
ATOM     15  F   UNL     1      -6.136  11.887  17.116  0.00  0.00    +0.000 F 
ATOM     16  C   UNL     1      -4.139  10.641  17.048  0.00  0.00    +0.000 A 
ATOM     17  C   UNL     1      -2.885  10.337  17.586  0.00  0.00    +0.000 A 
ATOM     18  C   UNL     1      -2.443  11.019  18.738  0.00  0.00    +0.000 A 
ATOM     19  H   UNL     1      -2.954  13.242  20.996  0.00  0.00    +0.000 HD
ENDBRANCH   6   9
BRANCH   1  20
ATOM     20  C   UNL     1       2.952   6.219  19.123  0.00  0.00    +0.000 C 
BRANCH  20  21
ATOM     21  C   UNL     1       3.271   4.929  18.367  0.00  0.00    +0.000 C 
BRANCH  21  25
ATOM     22  N   UNL     1       1.797   1.651  19.053  0.00  0.00    +0.000 N 
ATOM     23  C   UNL     1       2.270   2.630  18.244  0.00  0.00    +0.000 C 
ATOM     24  O   UNL     1       2.235   2.506  17.029  0.00  0.00    +0.000 OA
ATOM     25  N   UNL     1       2.746   3.695  18.940  0.00  0.00    +0.000 N 
ATOM     26  H   UNL     1       1.553   0.812  18.541  0.00  0.00    +0.000 HD
ATOM     27  H   UNL     1       2.304   1.484  19.908  0.00  0.00    +0.000 HD
ATOM     28  H   UNL     1       2.550   3.707  19.928  0.00  0.00    +0.000 HD
ENDBRANCH  21  25
BRANCH  21  29
ATOM     29  C   UNL     1       4.782   4.845  18.158  0.00  0.00    +0.000 A 
ATOM     30  C   UNL     1       5.305   4.427  16.924  0.00  0.00    +0.000 A 
ATOM     31  C   UNL     1       6.685   4.404  16.708  0.00  0.00    +0.000 A 
ATOM     32  C   UNL     1       7.562   4.800  17.716  0.00  0.00    +0.000 A 
ATOM     33  C   UNL     1       7.060   5.227  18.941  0.00  0.00    +0.000 A 
ATOM     34  C   UNL     1       5.682   5.250  19.159  0.00  0.00    +0.000 A 
ENDBRANCH  21  29
ENDBRANCH  20  21
ENDBRANCH   1  20
TORSDOF 5
ENDMDL
MODEL 7
REMARK VINA RESULT:      -8.7      1.831      2.332
REMARK  Name = 
REMARK  5 active torsions:
REMARK  status: ('A' for Active; 'I' for Inactive)
REMARK    1  A    between atoms: N_4  and  C_5
REMARK    2  A    between atoms: C_5  and  C_6
REMARK    3  A    between atoms: C_5  and  C_25
REMARK    4  A    between atoms: C_6  and  C_7
REMARK    5  A    between atoms: C_12  and  C_13
REMARK                            x       y       z     vdW  Elec       q    Type
REMARK                         _______ _______ _______ _____ _____    ______ ____
ROOT
ATOM      1  C   UNL     1       2.603   6.654  19.298  0.00  0.00    +0.000 C 
ATOM      2  O   UNL     1       2.796   5.751  20.112  0.00  0.00    +0.000 OA
ATOM      3  N   UNL     1       1.852   7.791  19.597  0.00  0.00    +0.000 N 
ATOM      4  C   UNL     1       1.381   8.722  18.569  0.00  0.00    +0.000 C 
ATOM      5  C   UNL     1       1.021  10.059  19.129  0.00  0.00    +0.000 C 
ATOM      6  C   UNL     1       1.122  10.380  20.429  0.00  0.00    +0.000 C 
ATOM      7  C   UNL     1       1.556   9.366  21.454  0.00  0.00    +0.000 C 
ATOM      8  C   UNL     1       1.296   7.951  20.938  0.00  0.00    +0.000 C 
ENDROOT
BRANCH   6   9
ATOM      9  C   UNL     1       0.779  11.655  20.945  0.00  0.00    +0.000 A 
ATOM     10  C   UNL     1       1.453  12.819  20.665  0.00  0.00    +0.000 A 
ATOM     11  N   UNL     1       0.826  13.830  21.347  0.00  0.00    +0.000 N 
ATOM     12  C   UNL     1      -0.246  13.334  22.057  0.00  0.00    +0.000 A 
ATOM     13  C   UNL     1      -1.162  13.986  22.887  0.00  0.00    +0.000 A 
ATOM     14  C   UNL     1      -2.162  13.208  23.469  0.00  0.00    +0.000 A 
ATOM     15  F   UNL     1      -3.057  13.801  24.274  0.00  0.00    +0.000 F 
ATOM     16  C   UNL     1      -2.261  11.841  23.240  0.00  0.00    +0.000 A 
ATOM     17  C   UNL     1      -1.336  11.204  22.407  0.00  0.00    +0.000 A 
ATOM     18  C   UNL     1      -0.307  11.960  21.808  0.00  0.00    +0.000 A 
ATOM     19  H   UNL     1       1.109  14.800  21.331  0.00  0.00    +0.000 HD
ENDBRANCH   6   9
BRANCH   1  20
ATOM     20  C   UNL     1       3.142   6.600  17.884  0.00  0.00    +0.000 C 
BRANCH  20  21
ATOM     21  C   UNL     1       4.089   5.436  17.595  0.00  0.00    +0.000 C 
BRANCH  21  25
ATOM     22  N   UNL     1       2.728   2.199  18.629  0.00  0.00    +0.000 N 
ATOM     23  C   UNL     1       2.850   3.261  17.795  0.00  0.00    +0.000 C 
ATOM     24  O   UNL     1       2.173   3.338  16.781  0.00  0.00    +0.000 OA
ATOM     25  N   UNL     1       3.765   4.164  18.233  0.00  0.00    +0.000 N 
ATOM     26  H   UNL     1       2.137   1.473  18.245  0.00  0.00    +0.000 HD
ATOM     27  H   UNL     1       3.576   1.861  19.059  0.00  0.00    +0.000 HD
ATOM     28  H   UNL     1       4.115   4.030  19.169  0.00  0.00    +0.000 HD
ENDBRANCH  21  25
BRANCH  21  29
ATOM     29  C   UNL     1       5.517   5.872  17.921  0.00  0.00    +0.000 A 
ATOM     30  C   UNL     1       6.127   6.901  17.189  0.00  0.00    +0.000 A 
ATOM     31  C   UNL     1       7.411   7.345  17.520  0.00  0.00    +0.000 A 
ATOM     32  C   UNL     1       8.100   6.771  18.585  0.00  0.00    +0.000 A 
ATOM     33  C   UNL     1       7.505   5.756  19.329  0.00  0.00    +0.000 A 
ATOM     34  C   UNL     1       6.224   5.312  18.999  0.00  0.00    +0.000 A 
ENDBRANCH  21  29
ENDBRANCH  20  21
ENDBRANCH   1  20
TORSDOF 5
ENDMDL
MODEL 8
REMARK VINA RESULT:      -8.7      2.077      3.074
REMARK  Name = 
REMARK  5 active torsions:
REMARK  status: ('A' for Active; 'I' for Inactive)
REMARK    1  A    between atoms: N_4  and  C_5
REMARK    2  A    between atoms: C_5  and  C_6
REMARK    3  A    between atoms: C_5  and  C_25
REMARK    4  A    between atoms: C_6  and  C_7
REMARK    5  A    between atoms: C_12  and  C_13
REMARK                            x       y       z     vdW  Elec       q    Type
REMARK                         _______ _______ _______ _____ _____    ______ ____
ROOT
ATOM      1  C   UNL     1       3.821   5.005  17.736  0.00  0.00    +0.000 C 
ATOM      2  O   UNL     1       3.909   3.832  18.098  0.00  0.00    +0.000 OA
ATOM      3  N   UNL     1       2.902   5.898  18.288  0.00  0.00    +0.000 N 
ATOM      4  C   UNL     1       2.594   7.195  17.681  0.00  0.00    +0.000 C 
ATOM      5  C   UNL     1       1.968   8.145  18.647  0.00  0.00    +0.000 C 
ATOM      6  C   UNL     1       1.718   7.852  19.933  0.00  0.00    +0.000 C 
ATOM      7  C   UNL     1       1.999   6.483  20.493  0.00  0.00    +0.000 C 
ATOM      8  C   UNL     1       2.025   5.449  19.366  0.00  0.00    +0.000 C 
ENDROOT
BRANCH   6   9
ATOM      9  C   UNL     1       1.125   8.767  20.840  0.00  0.00    +0.000 A 
ATOM     10  C   UNL     1       1.382   8.808  22.189  0.00  0.00    +0.000 A 
ATOM     11  N   UNL     1       0.622   9.818  22.720  0.00  0.00    +0.000 N 
ATOM     12  C   UNL     1      -0.116  10.431  21.731  0.00  0.00    +0.000 A 
ATOM     13  C   UNL     1      -1.021  11.494  21.804  0.00  0.00    +0.000 A 
ATOM     14  C   UNL     1      -1.614  11.909  20.611  0.00  0.00    +0.000 A 
ATOM     15  F   UNL     1      -2.490  12.925  20.644  0.00  0.00    +0.000 F 
ATOM     16  C   UNL     1      -1.325  11.306  19.394  0.00  0.00    +0.000 A 
ATOM     17  C   UNL     1      -0.417  10.244  19.338  0.00  0.00    +0.000 A 
ATOM     18  C   UNL     1       0.195   9.794  20.527  0.00  0.00    +0.000 A 
ATOM     19  H   UNL     1       0.605  10.076  23.697  0.00  0.00    +0.000 HD
ENDBRANCH   6   9
BRANCH   1  20
ATOM     20  C   UNL     1       4.687   5.582  16.636  0.00  0.00    +0.000 C 
BRANCH  20  21
ATOM     21  C   UNL     1       6.119   5.049  16.592  0.00  0.00    +0.000 C 
BRANCH  21  25
ATOM     22  N   UNL     1       8.373   6.834  18.858  0.00  0.00    +0.000 N 
ATOM     23  C   UNL     1       7.410   5.927  18.559  0.00  0.00    +0.000 C 
ATOM     24  O   UNL     1       6.881   5.266  19.440  0.00  0.00    +0.000 OA
ATOM     25  N   UNL     1       7.138   5.877  17.230  0.00  0.00    +0.000 N 
ATOM     26  H   UNL     1       8.658   6.787  19.829  0.00  0.00    +0.000 HD
ATOM     27  H   UNL     1       9.135   6.918  18.204  0.00  0.00    +0.000 HD
ATOM     28  H   UNL     1       7.545   6.603  16.661  0.00  0.00    +0.000 HD
ENDBRANCH  21  25
BRANCH  21  29
ATOM     29  C   UNL     1       6.484   4.740  15.142  0.00  0.00    +0.000 A 
ATOM     30  C   UNL     1       5.687   3.871  14.381  0.00  0.00    +0.000 A 
ATOM     31  C   UNL     1       5.982   3.629  13.036  0.00  0.00    +0.000 A 
ATOM     32  C   UNL     1       7.071   4.253  12.432  0.00  0.00    +0.000 A 
ATOM     33  C   UNL     1       7.865   5.126  13.169  0.00  0.00    +0.000 A 
ATOM     34  C   UNL     1       7.572   5.368  14.512  0.00  0.00    +0.000 A 
ENDBRANCH  21  29
ENDBRANCH  20  21
ENDBRANCH   1  20
TORSDOF 5
ENDMDL
MODEL 9
REMARK VINA RESULT:      -8.6      1.816      2.757
REMARK  Name = 
REMARK  5 active torsions:
REMARK  status: ('A' for Active; 'I' for Inactive)
REMARK    1  A    between atoms: N_4  and  C_5
REMARK    2  A    between atoms: C_5  and  C_6
REMARK    3  A    between atoms: C_5  and  C_25
REMARK    4  A    between atoms: C_6  and  C_7
REMARK    5  A    between atoms: C_12  and  C_13
REMARK                            x       y       z     vdW  Elec       q    Type
REMARK                         _______ _______ _______ _____ _____    ______ ____
ROOT
ATOM      1  C   UNL     1       2.716   7.490  18.310  0.00  0.00    +0.000 C 
ATOM      2  O   UNL     1       3.319   7.586  17.241  0.00  0.00    +0.000 OA
ATOM      3  N   UNL     1       1.971   8.537  18.853  0.00  0.00    +0.000 N 
ATOM      4  C   UNL     1       1.493   8.535  20.237  0.00  0.00    +0.000 C 
ATOM      5  C   UNL     1       0.365   9.489  20.455  0.00  0.00    +0.000 C 
ATOM      6  C   UNL     1      -0.161  10.262  19.490  0.00  0.00    +0.000 C 
ATOM      7  C   UNL     1       0.408  10.270  18.096  0.00  0.00    +0.000 C 
ATOM      8  C   UNL     1       1.860   9.794  18.118  0.00  0.00    +0.000 C 
ENDROOT
BRANCH   6   9
ATOM      9  C   UNL     1      -1.234  11.161  19.712  0.00  0.00    +0.000 A 
ATOM     10  C   UNL     1      -2.226  11.435  18.800  0.00  0.00    +0.000 A 
ATOM     11  N   UNL     1      -3.071  12.348  19.377  0.00  0.00    +0.000 N 
ATOM     12  C   UNL     1      -2.642  12.660  20.649  0.00  0.00    +0.000 A 
ATOM     13  C   UNL     1      -3.182  13.533  21.598  0.00  0.00    +0.000 A 
ATOM     14  C   UNL     1      -2.520  13.632  22.822  0.00  0.00    +0.000 A 
ATOM     15  F   UNL     1      -3.009  14.463  23.755  0.00  0.00    +0.000 F 
ATOM     16  C   UNL     1      -1.375  12.898  23.104  0.00  0.00    +0.000 A 
ATOM     17  C   UNL     1      -0.848  12.029  22.143  0.00  0.00    +0.000 A 
ATOM     18  C   UNL     1      -1.488  11.911  20.892  0.00  0.00    +0.000 A 
ATOM     19  H   UNL     1      -3.892  12.736  18.933  0.00  0.00    +0.000 HD
ENDBRANCH   6   9
BRANCH   1  20
ATOM     20  C   UNL     1       2.751   6.231  19.150  0.00  0.00    +0.000 C 
BRANCH  20  21
ATOM     21  C   UNL     1       3.140   4.959  18.396  0.00  0.00    +0.000 C 
BRANCH  21  25
ATOM     22  N   UNL     1       1.745   1.629  18.997  0.00  0.00    +0.000 N 
ATOM     23  C   UNL     1       2.220   2.630  18.215  0.00  0.00    +0.000 C 
ATOM     24  O   UNL     1       2.240   2.515  16.999  0.00  0.00    +0.000 OA
ATOM     25  N   UNL     1       2.632   3.704  18.938  0.00  0.00    +0.000 N 
ATOM     26  H   UNL     1       1.551   0.787  18.469  0.00  0.00    +0.000 HD
ATOM     27  H   UNL     1       2.222   1.471  19.872  0.00  0.00    +0.000 HD
ATOM     28  H   UNL     1       2.395   3.701  19.918  0.00  0.00    +0.000 HD
ENDBRANCH  21  25
BRANCH  21  29
ATOM     29  C   UNL     1       4.660   4.924  18.247  0.00  0.00    +0.000 A 
ATOM     30  C   UNL     1       5.243   4.532  17.032  0.00  0.00    +0.000 A 
ATOM     31  C   UNL     1       6.631   4.553  16.870  0.00  0.00    +0.000 A 
ATOM     32  C   UNL     1       7.455   4.969  17.914  0.00  0.00    +0.000 A 
ATOM     33  C   UNL     1       6.893   5.371  19.121  0.00  0.00    +0.000 A 
ATOM     34  C   UNL     1       5.507   5.350  19.285  0.00  0.00    +0.000 A 
ENDBRANCH  21  29
ENDBRANCH  20  21
ENDBRANCH   1  20
TORSDOF 5
ENDMDL
