MODEL 1
REMARK VINA RESULT:      -8.5      0.000      0.000
REMARK  Name = 
REMARK  3 active torsions:
REMARK  status: ('A' for Active; 'I' for Inactive)
REMARK    1  A    between atoms: C_2  and  C_16
REMARK    2  A    between atoms: C_6  and  C_7
REMARK    3  A    between atoms: N_19  and  C_20
REMARK                            x       y       z     vdW  Elec       q    Type
REMARK                         _______ _______ _______ _____ _____    ______ ____
ROOT
ATOM      1  O   UNL     1       1.510   8.964  19.346  0.00  0.00    +0.000 OA
ATOM      2  C   UNL     1       1.216   8.588  20.477  0.00  0.00    +0.000 C 
ATOM      3  N   UNL     1       1.489   7.354  21.023  0.00  0.00    +0.000 N 
ATOM      4  C   UNL     1       2.146   6.415  20.283  0.00  0.00    +0.000 A 
ATOM      5  N   UNL     1       2.808   6.563  19.168  0.00  0.00    +0.000 NA
ATOM      6  C   UNL     1       3.282   5.321  18.747  0.00  0.00    +0.000 A 
ATOM      7  N   UNL     1       2.970   4.245  19.485  0.00  0.00    +0.000 NA
ATOM      8  S   UNL     1       2.112   4.799  20.815  0.00  0.00    +0.000 S 
ATOM      9  H   UNL     1       1.105   7.132  21.929  0.00  0.00    +0.000 HD
ENDROOT
BRANCH   6  10
ATOM     10  C   UNL     1       4.113   5.253  17.540  0.00  0.00    +0.000 A 
ATOM     11  C   UNL     1       4.501   6.440  16.889  0.00  0.00    +0.000 A 
ATOM     12  C   UNL     1       5.309   6.401  15.749  0.00  0.00    +0.000 A 
ATOM     13  C   UNL     1       5.727   5.175  15.253  0.00  0.00    +0.000 A 
ATOM     14  F   UNL     1       6.497   5.134  14.157  0.00  0.00    +0.000 F 
ATOM     15  C   UNL     1       5.357   3.988  15.875  0.00  0.00    +0.000 A 
ATOM     16  C   UNL     1       4.553   4.025  17.019  0.00  0.00    +0.000 A 
ENDBRANCH   6  10
BRANCH   2  17
ATOM     17  C   UNL     1       0.439   9.469  21.359  0.00  0.00    +0.000 A 
ATOM     18  C   UNL     1      -0.080   9.117  22.622  0.00  0.00    +0.000 A 
ATOM     19  C   UNL     1      -0.724  10.237  23.076  0.00  0.00    +0.000 A 
ATOM     20  N   UNL     1      -0.661  11.168  22.062  0.00  0.00    +0.000 N 
ATOM     21  N   UNL     1       0.137  10.745  21.045  0.00  0.00    +0.000 NA
BRANCH  20  22
ATOM     22  C   UNL     1      -1.302  12.433  22.053  0.00  0.00    +0.000 A 
ATOM     23  C   UNL     1      -1.237  13.228  23.215  0.00  0.00    +0.000 A 
ATOM     24  C   UNL     1      -1.854  14.480  23.251  0.00  0.00    +0.000 A 
ATOM     25  C   UNL     1      -2.560  14.938  22.147  0.00  0.00    +0.000 A 
ATOM     26  C   UNL     1      -2.654  14.148  21.002  0.00  0.00    +0.000 A 
ATOM     27  C   UNL     1      -2.023  12.897  20.940  0.00  0.00    +0.000 A 
ATOM     28 CL   UNL     1      -2.336  11.967  19.515  0.00  0.00    +0.000 Cl
ENDBRANCH  20  22
ENDBRANCH   2  17
TORSDOF 3
ENDMDL
MODEL 2
REMARK VINA RESULT:      -8.3      7.970      8.737
REMARK  Name = 
REMARK  3 active torsions:
REMARK  status: ('A' for Active; 'I' for Inactive)
REMARK    1  A    between atoms: C_2  and  C_16
REMARK    2  A    between atoms: C_6  and  C_7
REMARK    3  A    between atoms: N_19  and  C_20
REMARK                            x       y       z     vdW  Elec       q    Type
REMARK                         _______ _______ _______ _____ _____    ______ ____
ROOT
ATOM      1  O   UNL     1       8.086   9.353  17.099  0.00  0.00    +0.000 OA
ATOM      2  C   UNL     1       8.571   9.198  18.216  0.00  0.00    +0.000 C 
ATOM      3  N   UNL     1       8.589   8.029  18.943  0.00  0.00    +0.000 N 
ATOM      4  C   UNL     1       8.027   6.899  18.426  0.00  0.00    +0.000 A 
ATOM      5  N   UNL     1       7.660   6.653  17.198  0.00  0.00    +0.000 NA
ATOM      6  C   UNL     1       7.095   5.379  17.134  0.00  0.00    +0.000 A 
ATOM      7  N   UNL     1       6.993   4.678  18.274  0.00  0.00    +0.000 NA
ATOM      8  S   UNL     1       7.703   5.603  19.480  0.00  0.00    +0.000 S 
ATOM      9  H   UNL     1       8.930   8.057  19.893  0.00  0.00    +0.000 HD
ENDROOT
BRANCH   6  10
ATOM     10  C   UNL     1       6.666   4.860  15.831  0.00  0.00    +0.000 A 
ATOM     11  C   UNL     1       7.445   5.112  14.685  0.00  0.00    +0.000 A 
ATOM     12  C   UNL     1       7.066   4.612  13.437  0.00  0.00    +0.000 A 
ATOM     13  C   UNL     1       5.903   3.862  13.328  0.00  0.00    +0.000 A 
ATOM     14  F   UNL     1       5.535   3.385  12.132  0.00  0.00    +0.000 F 
ATOM     15  C   UNL     1       5.115   3.599  14.443  0.00  0.00    +0.000 A 
ATOM     16  C   UNL     1       5.495   4.095  15.695  0.00  0.00    +0.000 A 
ENDBRANCH   6  10
BRANCH   2  17
ATOM     17  C   UNL     1       9.143  10.349  18.927  0.00  0.00    +0.000 A 
ATOM     18  C   UNL     1       9.238  10.485  20.328  0.00  0.00    +0.000 A 
ATOM     19  C   UNL     1       9.833  11.701  20.536  0.00  0.00    +0.000 A 
ATOM     20  N   UNL     1       9.983  12.286  19.297  0.00  0.00    +0.000 N 
ATOM     21  N   UNL     1       9.657  11.424  18.296  0.00  0.00    +0.000 NA
BRANCH  20  22
ATOM     22  C   UNL     1      10.446  13.602  19.049  0.00  0.00    +0.000 A 
ATOM     23  C   UNL     1      11.740  13.953  19.485  0.00  0.00    +0.000 A 
ATOM     24  C   UNL     1      12.237  15.239  19.262  0.00  0.00    +0.000 A 
ATOM     25  C   UNL     1      11.446  16.190  18.632  0.00  0.00    +0.000 A 
ATOM     26  C   UNL     1      10.155  15.861  18.220  0.00  0.00    +0.000 A 
ATOM     27  C   UNL     1       9.646  14.569  18.417  0.00  0.00    +0.000 A 
ATOM     28 CL   UNL     1       7.987  14.340  17.984  0.00  0.00    +0.000 Cl
ENDBRANCH  20  22
ENDBRANCH   2  17
TORSDOF 3
ENDMDL
MODEL 3
REMARK VINA RESULT:      -8.3      0.998      1.119
REMARK  Name = 
REMARK  3 active torsions:
REMARK  status: ('A' for Active; 'I' for Inactive)
REMARK    1  A    between atoms: C_2  and  C_16
REMARK    2  A    between atoms: C_6  and  C_7
REMARK    3  A    between atoms: N_19  and  C_20
REMARK                            x       y       z     vdW  Elec       q    Type
REMARK                         _______ _______ _______ _____ _____    ______ ____
ROOT
ATOM      1  O   UNL     1       1.471   9.071  19.369  0.00  0.00    +0.000 OA
ATOM      2  C   UNL     1       1.165   8.686  20.494  0.00  0.00    +0.000 C 
ATOM      3  N   UNL     1       1.419   7.444  21.029  0.00  0.00    +0.000 N 
ATOM      4  C   UNL     1       2.070   6.505  20.283  0.00  0.00    +0.000 A 
ATOM      5  N   UNL     1       2.741   6.657  19.174  0.00  0.00    +0.000 NA
ATOM      6  C   UNL     1       3.202   5.413  18.743  0.00  0.00    +0.000 A 
ATOM      7  N   UNL     1       2.873   4.333  19.468  0.00  0.00    +0.000 NA
ATOM      8  S   UNL     1       2.013   4.884  20.798  0.00  0.00    +0.000 S 
ATOM      9  H   UNL     1       1.026   7.217  21.930  0.00  0.00    +0.000 HD
ENDROOT
BRANCH   6  10
ATOM     10  C   UNL     1       4.041   5.348  17.540  0.00  0.00    +0.000 A 
ATOM     11  C   UNL     1       4.471   6.538  16.921  0.00  0.00    +0.000 A 
ATOM     12  C   UNL     1       5.286   6.501  15.786  0.00  0.00    +0.000 A 
ATOM     13  C   UNL     1       5.670   5.274  15.264  0.00  0.00    +0.000 A 
ATOM     14  F   UNL     1       6.447   5.235  14.174  0.00  0.00    +0.000 F 
ATOM     15  C   UNL     1       5.259   4.084  15.856  0.00  0.00    +0.000 A 
ATOM     16  C   UNL     1       4.448   4.120  16.994  0.00  0.00    +0.000 A 
ENDBRANCH   6  10
BRANCH   2  17
ATOM     17  C   UNL     1       0.392   9.567  21.380  0.00  0.00    +0.000 A 
ATOM     18  C   UNL     1      -0.066   9.236  22.672  0.00  0.00    +0.000 A 
ATOM     19  C   UNL     1      -0.730  10.348  23.118  0.00  0.00    +0.000 A 
ATOM     20  N   UNL     1      -0.738  11.250  22.077  0.00  0.00    +0.000 N 
ATOM     21  N   UNL     1       0.035  10.823  21.042  0.00  0.00    +0.000 NA
BRANCH  20  22
ATOM     22  C   UNL     1      -1.421  12.491  22.056  0.00  0.00    +0.000 A 
ATOM     23  C   UNL     1      -2.827  12.487  22.168  0.00  0.00    +0.000 A 
ATOM     24  C   UNL     1      -3.542  13.686  22.151  0.00  0.00    +0.000 A 
ATOM     25  C   UNL     1      -2.871  14.892  21.997  0.00  0.00    +0.000 A 
ATOM     26  C   UNL     1      -1.484  14.906  21.859  0.00  0.00    +0.000 A 
ATOM     27  C   UNL     1      -0.747  13.713  21.893  0.00  0.00    +0.000 A 
ATOM     28 CL   UNL     1       0.946  13.865  21.573  0.00  0.00    +0.000 Cl
ENDBRANCH  20  22
ENDBRANCH   2  17
TORSDOF 3
ENDMDL
MODEL 4
REMARK VINA RESULT:      -8.2      1.050      1.173
REMARK  Name = 
REMARK  3 active torsions:
REMARK  status: ('A' for Active; 'I' for Inactive)
REMARK    1  A    between atoms: C_2  and  C_16
REMARK    2  A    between atoms: C_6  and  C_7
REMARK    3  A    between atoms: N_19  and  C_20
REMARK                            x       y       z     vdW  Elec       q    Type
REMARK                         _______ _______ _______ _____ _____    ______ ____
ROOT
ATOM      1  O   UNL     1       1.580   9.062  19.407  0.00  0.00    +0.000 OA
ATOM      2  C   UNL     1       1.262   8.680  20.530  0.00  0.00    +0.000 C 
ATOM      3  N   UNL     1       1.480   7.427  21.057  0.00  0.00    +0.000 N 
ATOM      4  C   UNL     1       2.103   6.473  20.306  0.00  0.00    +0.000 A 
ATOM      5  N   UNL     1       2.778   6.612  19.198  0.00  0.00    +0.000 NA
ATOM      6  C   UNL     1       3.203   5.359  18.759  0.00  0.00    +0.000 A 
ATOM      7  N   UNL     1       2.842   4.284  19.477  0.00  0.00    +0.000 NA
ATOM      8  S   UNL     1       1.998   4.852  20.811  0.00  0.00    +0.000 S 
ATOM      9  H   UNL     1       1.080   7.206  21.957  0.00  0.00    +0.000 HD
ENDROOT
BRANCH   6  10
ATOM     10  C   UNL     1       4.041   5.276  17.557  0.00  0.00    +0.000 A 
ATOM     11  C   UNL     1       4.464   6.457  16.916  0.00  0.00    +0.000 A 
ATOM     12  C   UNL     1       5.277   6.404  15.781  0.00  0.00    +0.000 A 
ATOM     13  C   UNL     1       5.666   5.170  15.279  0.00  0.00    +0.000 A 
ATOM     14  F   UNL     1       6.441   5.115  14.189  0.00  0.00    +0.000 F 
ATOM     15  C   UNL     1       5.261   3.989  15.892  0.00  0.00    +0.000 A 
ATOM     16  C   UNL     1       4.451   4.040  17.031  0.00  0.00    +0.000 A 
ENDBRANCH   6  10
BRANCH   2  17
ATOM     17  C   UNL     1       0.515   9.577  21.421  0.00  0.00    +0.000 A 
ATOM     18  C   UNL     1      -0.280   9.175  22.514  0.00  0.00    +0.000 A 
ATOM     19  C   UNL     1      -0.776  10.334  23.049  0.00  0.00    +0.000 A 
ATOM     20  N   UNL     1      -0.359  11.360  22.228  0.00  0.00    +0.000 N 
ATOM     21  N   UNL     1       0.518  10.919  21.286  0.00  0.00    +0.000 NA
BRANCH  20  22
ATOM     22  C   UNL     1      -0.741  12.720  22.336  0.00  0.00    +0.000 A 
ATOM     23  C   UNL     1       0.162  13.710  21.897  0.00  0.00    +0.000 A 
ATOM     24  C   UNL     1      -0.171  15.063  21.985  0.00  0.00    +0.000 A 
ATOM     25  C   UNL     1      -1.389  15.443  22.533  0.00  0.00    +0.000 A 
ATOM     26  C   UNL     1      -2.279  14.474  22.995  0.00  0.00    +0.000 A 
ATOM     27  C   UNL     1      -1.970  13.110  22.896  0.00  0.00    +0.000 A 
ATOM     28 CL   UNL     1      -3.100  12.026  23.631  0.00  0.00    +0.000 Cl
ENDBRANCH  20  22
ENDBRANCH   2  17
TORSDOF 3
ENDMDL
MODEL 5
REMARK VINA RESULT:      -8.2      1.771      2.226
REMARK  Name = 
REMARK  3 active torsions:
REMARK  status: ('A' for Active; 'I' for Inactive)
REMARK    1  A    between atoms: C_2  and  C_16
REMARK    2  A    between atoms: C_6  and  C_7
REMARK    3  A    between atoms: N_19  and  C_20
REMARK                            x       y       z     vdW  Elec       q    Type
REMARK                         _______ _______ _______ _____ _____    ______ ____
ROOT
ATOM      1  O   UNL     1       2.006   9.507  17.447  0.00  0.00    +0.000 OA
ATOM      2  C   UNL     1       1.634   9.521  18.617  0.00  0.00    +0.000 C 
ATOM      3  N   UNL     1       1.776   8.501  19.531  0.00  0.00    +0.000 N 
ATOM      4  C   UNL     1       2.379   7.336  19.159  0.00  0.00    +0.000 A 
ATOM      5  N   UNL     1       3.097   7.084  18.098  0.00  0.00    +0.000 NA
ATOM      6  C   UNL     1       3.478   5.743  18.109  0.00  0.00    +0.000 A 
ATOM      7  N   UNL     1       3.044   4.973  19.119  0.00  0.00    +0.000 NA
ATOM      8  S   UNL     1       2.183   5.971  20.156  0.00  0.00    +0.000 S 
ATOM      9  H   UNL     1       1.336   8.599  20.434  0.00  0.00    +0.000 HD
ENDROOT
BRANCH   6  10
ATOM     10  C   UNL     1       4.350   5.246  17.039  0.00  0.00    +0.000 A 
ATOM     11  C   UNL     1       4.989   6.158  16.176  0.00  0.00    +0.000 A 
ATOM     12  C   UNL     1       5.839   5.710  15.161  0.00  0.00    +0.000 A 
ATOM     13  C   UNL     1       6.049   4.347  15.002  0.00  0.00    +0.000 A 
ATOM     14  F   UNL     1       6.859   3.914  14.028  0.00  0.00    +0.000 F 
ATOM     15  C   UNL     1       5.430   3.426  15.839  0.00  0.00    +0.000 A 
ATOM     16  C   UNL     1       4.583   3.873  16.858  0.00  0.00    +0.000 A 
ENDBRANCH   6  10
BRANCH   2  17
ATOM     17  C   UNL     1       0.900  10.684  19.134  0.00  0.00    +0.000 A 
ATOM     18  C   UNL     1       1.276  12.033  18.967  0.00  0.00    +0.000 A 
ATOM     19  C   UNL     1       0.309  12.762  19.606  0.00  0.00    +0.000 A 
ATOM     20  N   UNL     1      -0.540  11.855  20.205  0.00  0.00    +0.000 N 
ATOM     21  N   UNL     1      -0.246  10.579  19.837  0.00  0.00    +0.000 NA
BRANCH  20  22
ATOM     22  C   UNL     1      -1.615  12.170  21.072  0.00  0.00    +0.000 A 
ATOM     23  C   UNL     1      -2.580  13.101  20.637  0.00  0.00    +0.000 A 
ATOM     24  C   UNL     1      -3.657  13.442  21.458  0.00  0.00    +0.000 A 
ATOM     25  C   UNL     1      -3.768  12.882  22.725  0.00  0.00    +0.000 A 
ATOM     26  C   UNL     1      -2.805  11.981  23.175  0.00  0.00    +0.000 A 
ATOM     27  C   UNL     1      -1.728  11.611  22.357  0.00  0.00    +0.000 A 
ATOM     28 CL   UNL     1      -0.539  10.593  23.092  0.00  0.00    +0.000 Cl
ENDBRANCH  20  22
ENDBRANCH   2  17
TORSDOF 3
ENDMDL
MODEL 6
REMARK VINA RESULT:      -8.2      8.079      8.667
REMARK  Name = 
REMARK  3 active torsions:
REMARK  status: ('A' for Active; 'I' for Inactive)
REMARK    1  A    between atoms: C_2  and  C_16
REMARK    2  A    between atoms: C_6  and  C_7
REMARK    3  A    between atoms: N_19  and  C_20
REMARK                            x       y       z     vdW  Elec       q    Type
REMARK                         _______ _______ _______ _____ _____    ______ ____
ROOT
ATOM      1  O   UNL     1       7.888   9.395  17.075  0.00  0.00    +0.000 OA
ATOM      2  C   UNL     1       8.462   9.257  18.151  0.00  0.00    +0.000 C 
ATOM      3  N   UNL     1       8.583   8.087  18.867  0.00  0.00    +0.000 N 
ATOM      4  C   UNL     1       8.031   6.936  18.384  0.00  0.00    +0.000 A 
ATOM      5  N   UNL     1       7.584   6.679  17.185  0.00  0.00    +0.000 NA
ATOM      6  C   UNL     1       7.069   5.383  17.155  0.00  0.00    +0.000 A 
ATOM      7  N   UNL     1       7.082   4.674  18.294  0.00  0.00    +0.000 NA
ATOM      8  S   UNL     1       7.841   5.623  19.450  0.00  0.00    +0.000 S 
ATOM      9  H   UNL     1       8.992   8.125  19.788  0.00  0.00    +0.000 HD
ENDROOT
BRANCH   6  10
ATOM     10  C   UNL     1       6.565   4.852  15.884  0.00  0.00    +0.000 A 
ATOM     11  C   UNL     1       7.378   4.897  14.735  0.00  0.00    +0.000 A 
ATOM     12  C   UNL     1       6.926   4.380  13.517  0.00  0.00    +0.000 A 
ATOM     13  C   UNL     1       5.659   3.820  13.444  0.00  0.00    +0.000 A 
ATOM     14  F   UNL     1       5.222   3.328  12.277  0.00  0.00    +0.000 F 
ATOM     15  C   UNL     1       4.836   3.764  14.563  0.00  0.00    +0.000 A 
ATOM     16  C   UNL     1       5.288   4.277  15.783  0.00  0.00    +0.000 A 
ENDBRANCH   6  10
BRANCH   2  17
ATOM     17  C   UNL     1       9.038  10.428  18.826  0.00  0.00    +0.000 A 
ATOM     18  C   UNL     1       9.417  10.490  20.183  0.00  0.00    +0.000 A 
ATOM     19  C   UNL     1       9.898  11.759  20.369  0.00  0.00    +0.000 A 
ATOM     20  N   UNL     1       9.707  12.432  19.181  0.00  0.00    +0.000 N 
ATOM     21  N   UNL     1       9.275  11.597  18.198  0.00  0.00    +0.000 NA
BRANCH  20  22
ATOM     22  C   UNL     1       9.950  13.811  18.958  0.00  0.00    +0.000 A 
ATOM     23  C   UNL     1       9.262  14.752  19.751  0.00  0.00    +0.000 A 
ATOM     24  C   UNL     1       9.469  16.120  19.566  0.00  0.00    +0.000 A 
ATOM     25  C   UNL     1      10.338  16.563  18.577  0.00  0.00    +0.000 A 
ATOM     26  C   UNL     1      11.003  15.641  17.770  0.00  0.00    +0.000 A 
ATOM     27  C   UNL     1      10.824  14.263  17.954  0.00  0.00    +0.000 A 
ATOM     28 CL   UNL     1      11.601  13.240  16.796  0.00  0.00    +0.000 Cl
ENDBRANCH  20  22
ENDBRANCH   2  17
TORSDOF 3
ENDMDL
MODEL 7
REMARK VINA RESULT:      -8.2      1.605      1.935
REMARK  Name = 
REMARK  3 active torsions:
REMARK  status: ('A' for Active; 'I' for Inactive)
REMARK    1  A    between atoms: C_2  and  C_16
REMARK    2  A    between atoms: C_6  and  C_7
REMARK    3  A    between atoms: N_19  and  C_20
REMARK                            x       y       z     vdW  Elec       q    Type
REMARK                         _______ _______ _______ _____ _____    ______ ____
ROOT
ATOM      1  O   UNL     1       1.852   9.507  17.434  0.00  0.00    +0.000 OA
ATOM      2  C   UNL     1       1.481   9.534  18.604  0.00  0.00    +0.000 C 
ATOM      3  N   UNL     1       1.656   8.538  19.539  0.00  0.00    +0.000 N 
ATOM      4  C   UNL     1       2.294   7.384  19.190  0.00  0.00    +0.000 A 
ATOM      5  N   UNL     1       3.017   7.133  18.133  0.00  0.00    +0.000 NA
ATOM      6  C   UNL     1       3.440   5.804  18.171  0.00  0.00    +0.000 A 
ATOM      7  N   UNL     1       3.031   5.043  19.198  0.00  0.00    +0.000 NA
ATOM      8  S   UNL     1       2.141   6.035  20.216  0.00  0.00    +0.000 S 
ATOM      9  H   UNL     1       1.215   8.641  20.441  0.00  0.00    +0.000 HD
ENDROOT
BRANCH   6  10
ATOM     10  C   UNL     1       4.325   5.312  17.109  0.00  0.00    +0.000 A 
ATOM     11  C   UNL     1       4.937   6.226  16.229  0.00  0.00    +0.000 A 
ATOM     12  C   UNL     1       5.798   5.782  15.222  0.00  0.00    +0.000 A 
ATOM     13  C   UNL     1       6.047   4.423  15.088  0.00  0.00    +0.000 A 
ATOM     14  F   UNL     1       6.869   3.995  14.121  0.00  0.00    +0.000 F 
ATOM     15  C   UNL     1       5.455   3.501  15.944  0.00  0.00    +0.000 A 
ATOM     16  C   UNL     1       4.596   3.943  16.955  0.00  0.00    +0.000 A 
ENDBRANCH   6  10
BRANCH   2  17
ATOM     17  C   UNL     1       0.713  10.684  19.098  0.00  0.00    +0.000 A 
ATOM     18  C   UNL     1       0.970  12.036  18.791  0.00  0.00    +0.000 A 
ATOM     19  C   UNL     1       0.014  12.750  19.464  0.00  0.00    +0.000 A 
ATOM     20  N   UNL     1      -0.706  11.843  20.211  0.00  0.00    +0.000 N 
ATOM     21  N   UNL     1      -0.352  10.563  19.916  0.00  0.00    +0.000 NA
BRANCH  20  22
ATOM     22  C   UNL     1      -1.718  12.156  21.153  0.00  0.00    +0.000 A 
ATOM     23  C   UNL     1      -1.377  12.186  22.521  0.00  0.00    +0.000 A 
ATOM     24  C   UNL     1      -2.342  12.489  23.484  0.00  0.00    +0.000 A 
ATOM     25  C   UNL     1      -3.653  12.738  23.099  0.00  0.00    +0.000 A 
ATOM     26  C   UNL     1      -4.006  12.685  21.751  0.00  0.00    +0.000 A 
ATOM     27  C   UNL     1      -3.046  12.402  20.768  0.00  0.00    +0.000 A 
ATOM     28 CL   UNL     1      -3.648  12.233  19.155  0.00  0.00    +0.000 Cl
ENDBRANCH  20  22
ENDBRANCH   2  17
TORSDOF 3
ENDMDL
MODEL 8
REMARK VINA RESULT:      -8.1      1.818      2.288
REMARK  Name = 
REMARK  3 active torsions:
REMARK  status: ('A' for Active; 'I' for Inactive)
REMARK    1  A    between atoms: C_2  and  C_16
REMARK    2  A    between atoms: C_6  and  C_7
REMARK    3  A    between atoms: N_19  and  C_20
REMARK                            x       y       z     vdW  Elec       q    Type
REMARK                         _______ _______ _______ _____ _____    ______ ____
ROOT
ATOM      1  O   UNL     1       1.905   9.529  17.360  0.00  0.00    +0.000 OA
ATOM      2  C   UNL     1       1.517   9.562  18.524  0.00  0.00    +0.000 C 
ATOM      3  N   UNL     1       1.674   8.570  19.465  0.00  0.00    +0.000 N 
ATOM      4  C   UNL     1       2.313   7.412  19.130  0.00  0.00    +0.000 A 
ATOM      5  N   UNL     1       3.050   7.154  18.085  0.00  0.00    +0.000 NA
ATOM      6  C   UNL     1       3.467   5.823  18.134  0.00  0.00    +0.000 A 
ATOM      7  N   UNL     1       3.040   5.068  19.157  0.00  0.00    +0.000 NA
ATOM      8  S   UNL     1       2.139   6.067  20.158  0.00  0.00    +0.000 S 
ATOM      9  H   UNL     1       1.220   8.678  20.360  0.00  0.00    +0.000 HD
ENDROOT
BRANCH   6  10
ATOM     10  C   UNL     1       4.366   5.324  17.087  0.00  0.00    +0.000 A 
ATOM     11  C   UNL     1       4.587   3.940  16.955  0.00  0.00    +0.000 A 
ATOM     12  C   UNL     1       5.424   3.440  15.954  0.00  0.00    +0.000 A 
ATOM     13  C   UNL     1       6.046   4.324  15.084  0.00  0.00    +0.000 A 
ATOM     14  F   UNL     1       6.853   3.848  14.126  0.00  0.00    +0.000 F 
ATOM     15  C   UNL     1       5.846   5.695  15.193  0.00  0.00    +0.000 A 
ATOM     16  C   UNL     1       5.005   6.197  16.191  0.00  0.00    +0.000 A 
ENDBRANCH   6  10
BRANCH   2  17
ATOM     17  C   UNL     1       0.746  10.718  19.003  0.00  0.00    +0.000 A 
ATOM     18  C   UNL     1       1.246  12.026  19.172  0.00  0.00    +0.000 A 
ATOM     19  C   UNL     1       0.187  12.763  19.630  0.00  0.00    +0.000 A 
ATOM     20  N   UNL     1      -0.859  11.884  19.813  0.00  0.00    +0.000 N 
ATOM     21  N   UNL     1      -0.559  10.647  19.335  0.00  0.00    +0.000 NA
BRANCH  20  22
ATOM     22  C   UNL     1      -2.116  12.195  20.388  0.00  0.00    +0.000 A 
ATOM     23  C   UNL     1      -2.178  12.442  21.775  0.00  0.00    +0.000 A 
ATOM     24  C   UNL     1      -3.395  12.750  22.386  0.00  0.00    +0.000 A 
ATOM     25  C   UNL     1      -4.560  12.790  21.631  0.00  0.00    +0.000 A 
ATOM     26  C   UNL     1      -4.514  12.521  20.264  0.00  0.00    +0.000 A 
ATOM     27  C   UNL     1      -3.298  12.229  19.629  0.00  0.00    +0.000 A 
ATOM     28 CL   UNL     1      -3.407  11.783  17.962  0.00  0.00    +0.000 Cl
ENDBRANCH  20  22
ENDBRANCH   2  17
TORSDOF 3
ENDMDL
MODEL 9
REMARK VINA RESULT:      -8.1      1.117      1.329
REMARK  Name = 
REMARK  3 active torsions:
REMARK  status: ('A' for Active; 'I' for Inactive)
REMARK    1  A    between atoms: C_2  and  C_16
REMARK    2  A    between atoms: C_6  and  C_7
REMARK    3  A    between atoms: N_19  and  C_20
REMARK                            x       y       z     vdW  Elec       q    Type
REMARK                         _______ _______ _______ _____ _____    ______ ____
ROOT
ATOM      1  O   UNL     1       2.233   8.236  18.933  0.00  0.00    +0.000 OA
ATOM      2  C   UNL     1       1.825   7.828  20.017  0.00  0.00    +0.000 C 
ATOM      3  N   UNL     1       2.064   6.588  20.565  0.00  0.00    +0.000 N 
ATOM      4  C   UNL     1       2.818   5.679  19.883  0.00  0.00    +0.000 A 
ATOM      5  N   UNL     1       3.594   5.865  18.851  0.00  0.00    +0.000 NA
ATOM      6  C   UNL     1       4.139   4.642  18.459  0.00  0.00    +0.000 A 
ATOM      7  N   UNL     1       3.772   3.544  19.137  0.00  0.00    +0.000 NA
ATOM      8  S   UNL     1       2.762   4.051  20.376  0.00  0.00    +0.000 S 
ATOM      9  H   UNL     1       1.587   6.339  21.419  0.00  0.00    +0.000 HD
ENDROOT
BRANCH   6  10
ATOM     10  C   UNL     1       5.099   4.618  17.350  0.00  0.00    +0.000 A 
ATOM     11  C   UNL     1       4.634   4.525  16.024  0.00  0.00    +0.000 A 
ATOM     12  C   UNL     1       5.529   4.519  14.950  0.00  0.00    +0.000 A 
ATOM     13  C   UNL     1       6.892   4.601  15.199  0.00  0.00    +0.000 A 
ATOM     14  F   UNL     1       7.752   4.591  14.173  0.00  0.00    +0.000 F 
ATOM     15  C   UNL     1       7.377   4.693  16.499  0.00  0.00    +0.000 A 
ATOM     16  C   UNL     1       6.483   4.704  17.575  0.00  0.00    +0.000 A 
ENDBRANCH   6  10
BRANCH   2  17
ATOM     17  C   UNL     1       0.937   8.674  20.826  0.00  0.00    +0.000 A 
ATOM     18  C   UNL     1       0.240   8.264  21.981  0.00  0.00    +0.000 A 
ATOM     19  C   UNL     1      -0.454   9.369  22.399  0.00  0.00    +0.000 A 
ATOM     20  N   UNL     1      -0.240  10.351  21.456  0.00  0.00    +0.000 N 
ATOM     21  N   UNL     1       0.693   9.969  20.542  0.00  0.00    +0.000 NA
BRANCH  20  22
ATOM     22  C   UNL     1      -0.863  11.624  21.423  0.00  0.00    +0.000 A 
ATOM     23  C   UNL     1      -0.796  12.435  22.575  0.00  0.00    +0.000 A 
ATOM     24  C   UNL     1      -1.396  13.695  22.589  0.00  0.00    +0.000 A 
ATOM     25  C   UNL     1      -2.087  14.148  21.473  0.00  0.00    +0.000 A 
ATOM     26  C   UNL     1      -2.182  13.343  20.338  0.00  0.00    +0.000 A 
ATOM     27  C   UNL     1      -1.568  12.082  20.298  0.00  0.00    +0.000 A 
ATOM     28 CL   UNL     1      -1.881  11.137  18.884  0.00  0.00    +0.000 Cl
ENDBRANCH  20  22
ENDBRANCH   2  17
TORSDOF 3
ENDMDL
