MODEL 1
REMARK VINA RESULT:      -8.4      0.000      0.000
REMARK  Name = 
REMARK  6 active torsions:
REMARK  status: ('A' for Active; 'I' for Inactive)
REMARK    1  A    between atoms: C_1  and  N_2
REMARK    2  A    between atoms: C_6  and  C_7
REMARK    3  A    between atoms: C_7  and  C_8
REMARK    4  A    between atoms: C_8  and  C_9
REMARK    5  A    between atoms: C_11  and  N_12
REMARK    6  A    between atoms: C_19  and  C_20
REMARK                            x       y       z     vdW  Elec       q    Type
REMARK                         _______ _______ _______ _____ _____    ______ ____
ROOT
ATOM      1  C   UNL     1       2.840   4.673  17.675  0.00  0.00    +0.000 A 
ATOM      2  C   UNL     1       2.105   5.745  18.172  0.00  0.00    +0.000 A 
ATOM      3  C   UNL     1       2.748   6.929  18.536  0.00  0.00    +0.000 A 
ATOM      4  C   UNL     1       4.137   6.984  18.434  0.00  0.00    +0.000 A 
ATOM      5  C   UNL     1       4.805   5.851  18.001  0.00  0.00    +0.000 A 
ATOM      6  N   UNL     1       4.191   4.711  17.616  0.00  0.00    +0.000 NA
ENDROOT
BRANCH   3   7
ATOM      7  N   UNL     1       1.999   8.048  18.970  0.00  0.00    +0.000 N 
ATOM      8  C   UNL     1       1.388   8.122  20.290  0.00  0.00    +0.000 C 
ATOM      9  C   UNL     1       0.829   9.510  20.332  0.00  0.00    +0.000 A 
ATOM     10  C   UNL     1       1.085  10.150  19.123  0.00  0.00    +0.000 A 
ATOM     11  C   UNL     1       0.664  11.437  18.840  0.00  0.00    +0.000 A 
ATOM     12  C   UNL     1      -0.043  12.109  19.834  0.00  0.00    +0.000 A 
ATOM     13  C   UNL     1      -0.293  11.490  21.072  0.00  0.00    +0.000 A 
ATOM     14  C   UNL     1       0.145  10.177  21.346  0.00  0.00    +0.000 A 
ATOM     15  C   UNL     1       1.853   9.244  18.262  0.00  0.00    +0.000 C 
ATOM     16  O   UNL     1       2.233   9.557  17.150  0.00  0.00    +0.000 OA
BRANCH  14  17
ATOM     17  C   UNL     1      -0.125   9.563  22.694  0.00  0.00    +0.000 C 
ATOM     18  F   UNL     1       1.006   9.230  23.377  0.00  0.00    +0.000 F 
ATOM     19  F   UNL     1      -0.821  10.399  23.513  0.00  0.00    +0.000 F 
ATOM     20  F   UNL     1      -0.857   8.421  22.609  0.00  0.00    +0.000 F 
ENDBRANCH  14  17
ENDBRANCH   3   7
BRANCH   1  21
ATOM     21  C   UNL     1       2.177   3.397  17.200  0.00  0.00    +0.000 C 
BRANCH  21  22
ATOM     22  C   UNL     1       2.477   2.162  18.057  0.00  0.00    +0.000 C 
BRANCH  22  28
ATOM     23  C   UNL     1       4.559   2.217  20.389  0.00  0.00    +0.000 C 
ATOM     24  N   UNL     1       3.140   2.426  20.501  0.00  0.00    +0.000 N 
ATOM     25  C   UNL     1       2.468   2.726  21.645  0.00  0.00    +0.000 A 
ATOM     26  N   UNL     1       1.190   2.852  21.380  0.00  0.00    +0.000 NA
ATOM     27  N   UNL     1       1.020   2.638  20.033  0.00  0.00    +0.000 NA
ATOM     28  C   UNL     1       2.201   2.386  19.503  0.00  0.00    +0.000 A 
ENDBRANCH  22  28
ENDBRANCH  21  22
ENDBRANCH   1  21
TORSDOF 5
ENDMDL
MODEL 2
REMARK VINA RESULT:      -8.4      2.612      4.554
REMARK  Name = 
REMARK  6 active torsions:
REMARK  status: ('A' for Active; 'I' for Inactive)
REMARK    1  A    between atoms: C_1  and  N_2
REMARK    2  A    between atoms: C_6  and  C_7
REMARK    3  A    between atoms: C_7  and  C_8
REMARK    4  A    between atoms: C_8  and  C_9
REMARK    5  A    between atoms: C_11  and  N_12
REMARK    6  A    between atoms: C_19  and  C_20
REMARK                            x       y       z     vdW  Elec       q    Type
REMARK                         _______ _______ _______ _____ _____    ______ ____
ROOT
ATOM      1  C   UNL     1       4.564   5.804  17.521  0.00  0.00    +0.000 A 
ATOM      2  C   UNL     1       3.737   6.887  17.806  0.00  0.00    +0.000 A 
ATOM      3  C   UNL     1       2.782   6.794  18.820  0.00  0.00    +0.000 A 
ATOM      4  C   UNL     1       2.652   5.582  19.495  0.00  0.00    +0.000 A 
ATOM      5  C   UNL     1       3.461   4.527  19.105  0.00  0.00    +0.000 A 
ATOM      6  N   UNL     1       4.409   4.615  18.147  0.00  0.00    +0.000 NA
ENDROOT
BRANCH   3   7
ATOM      7  N   UNL     1       1.991   7.915  19.165  0.00  0.00    +0.000 N 
ATOM      8  C   UNL     1       1.356   8.059  20.467  0.00  0.00    +0.000 C 
ATOM      9  C   UNL     1       0.753   9.428  20.406  0.00  0.00    +0.000 A 
ATOM     10  C   UNL     1       1.010   9.992  19.160  0.00  0.00    +0.000 A 
ATOM     11  C   UNL     1       0.554  11.242  18.783  0.00  0.00    +0.000 A 
ATOM     12  C   UNL     1      -0.190  11.958  19.718  0.00  0.00    +0.000 A 
ATOM     13  C   UNL     1      -0.443  11.416  20.991  0.00  0.00    +0.000 A 
ATOM     14  C   UNL     1       0.031  10.139  21.361  0.00  0.00    +0.000 A 
ATOM     15  C   UNL     1       1.821   9.055  18.375  0.00  0.00    +0.000 C 
ATOM     16  O   UNL     1       2.211   9.304  17.250  0.00  0.00    +0.000 OA
BRANCH  14  17
ATOM     17  C   UNL     1      -0.244   9.610  22.743  0.00  0.00    +0.000 C 
ATOM     18  F   UNL     1      -0.908   8.421  22.749  0.00  0.00    +0.000 F 
ATOM     19  F   UNL     1       0.899   9.400  23.453  0.00  0.00    +0.000 F 
ATOM     20  F   UNL     1      -1.000  10.461  23.486  0.00  0.00    +0.000 F 
ENDBRANCH  14  17
ENDBRANCH   3   7
BRANCH   1  21
ATOM     21  C   UNL     1       5.660   5.884  16.480  0.00  0.00    +0.000 C 
BRANCH  21  22
ATOM     22  C   UNL     1       5.874   4.598  15.675  0.00  0.00    +0.000 C 
BRANCH  22  28
ATOM     23  C   UNL     1       5.492   3.444  12.794  0.00  0.00    +0.000 C 
ATOM     24  N   UNL     1       6.562   4.295  13.242  0.00  0.00    +0.000 N 
ATOM     25  C   UNL     1       7.573   4.778  12.469  0.00  0.00    +0.000 A 
ATOM     26  N   UNL     1       8.365   5.522  13.201  0.00  0.00    +0.000 NA
ATOM     27  N   UNL     1       7.862   5.536  14.480  0.00  0.00    +0.000 NA
ATOM     28  C   UNL     1       6.769   4.798  14.501  0.00  0.00    +0.000 A 
ENDBRANCH  22  28
ENDBRANCH  21  22
ENDBRANCH   1  21
TORSDOF 5
ENDMDL
MODEL 3
REMARK VINA RESULT:      -8.3      1.747      3.897
REMARK  Name = 
REMARK  6 active torsions:
REMARK  status: ('A' for Active; 'I' for Inactive)
REMARK    1  A    between atoms: C_1  and  N_2
REMARK    2  A    between atoms: C_6  and  C_7
REMARK    3  A    between atoms: C_7  and  C_8
REMARK    4  A    between atoms: C_8  and  C_9
REMARK    5  A    between atoms: C_11  and  N_12
REMARK    6  A    between atoms: C_19  and  C_20
REMARK                            x       y       z     vdW  Elec       q    Type
REMARK                         _______ _______ _______ _____ _____    ______ ____
ROOT
ATOM      1  C   UNL     1       4.672   5.085  19.154  0.00  0.00    +0.000 A 
ATOM      2  C   UNL     1       3.999   6.296  19.290  0.00  0.00    +0.000 A 
ATOM      3  C   UNL     1       2.603   6.329  19.285  0.00  0.00    +0.000 A 
ATOM      4  C   UNL     1       1.916   5.132  19.092  0.00  0.00    +0.000 A 
ATOM      5  C   UNL     1       2.656   3.979  18.890  0.00  0.00    +0.000 A 
ATOM      6  N   UNL     1       4.006   3.930  18.924  0.00  0.00    +0.000 NA
ENDROOT
BRANCH   3   7
ATOM      7  N   UNL     1       1.914   7.545  19.499  0.00  0.00    +0.000 N 
ATOM      8  C   UNL     1       1.249   7.862  20.755  0.00  0.00    +0.000 C 
ATOM      9  C   UNL     1       0.785   9.271  20.552  0.00  0.00    +0.000 A 
ATOM     10  C   UNL     1       1.142   9.697  19.275  0.00  0.00    +0.000 A 
ATOM     11  C   UNL     1       0.824  10.947  18.775  0.00  0.00    +0.000 A 
ATOM     12  C   UNL     1       0.119  11.808  19.612  0.00  0.00    +0.000 A 
ATOM     13  C   UNL     1      -0.230  11.408  20.914  0.00  0.00    +0.000 A 
ATOM     14  C   UNL     1       0.102  10.129  21.411  0.00  0.00    +0.000 A 
ATOM     15  C   UNL     1       1.884   8.622  18.609  0.00  0.00    +0.000 C 
ATOM     16  O   UNL     1       2.337   8.734  17.485  0.00  0.00    +0.000 OA
BRANCH  14  17
ATOM     17  C   UNL     1      -0.272   9.752  22.819  0.00  0.00    +0.000 C 
ATOM     18  F   UNL     1       0.800   9.475  23.612  0.00  0.00    +0.000 F 
ATOM     19  F   UNL     1      -0.959  10.741  23.455  0.00  0.00    +0.000 F 
ATOM     20  F   UNL     1      -1.065   8.649  22.870  0.00  0.00    +0.000 F 
ENDBRANCH  14  17
ENDBRANCH   3   7
BRANCH   1  21
ATOM     21  C   UNL     1       6.182   4.994  19.225  0.00  0.00    +0.000 C 
BRANCH  21  22
ATOM     22  C   UNL     1       6.926   5.920  18.258  0.00  0.00    +0.000 C 
BRANCH  22  28
ATOM     23  C   UNL     1       4.913   6.742  16.012  0.00  0.00    +0.000 C 
ATOM     24  N   UNL     1       6.011   5.821  15.884  0.00  0.00    +0.000 N 
ATOM     25  C   UNL     1       6.384   5.182  14.743  0.00  0.00    +0.000 A 
ATOM     26  N   UNL     1       7.426   4.425  14.988  0.00  0.00    +0.000 NA
ATOM     27  N   UNL     1       7.749   4.575  16.315  0.00  0.00    +0.000 NA
ATOM     28  C   UNL     1       6.896   5.425  16.853  0.00  0.00    +0.000 A 
ENDBRANCH  22  28
ENDBRANCH  21  22
ENDBRANCH   1  21
TORSDOF 5
ENDMDL
MODEL 4
REMARK VINA RESULT:      -8.2      1.847      3.524
REMARK  Name = 
REMARK  6 active torsions:
REMARK  status: ('A' for Active; 'I' for Inactive)
REMARK    1  A    between atoms: C_1  and  N_2
REMARK    2  A    between atoms: C_6  and  C_7
REMARK    3  A    between atoms: C_7  and  C_8
REMARK    4  A    between atoms: C_8  and  C_9
REMARK    5  A    between atoms: C_11  and  N_12
REMARK    6  A    between atoms: C_19  and  C_20
REMARK                            x       y       z     vdW  Elec       q    Type
REMARK                         _______ _______ _______ _____ _____    ______ ____
ROOT
ATOM      1  C   UNL     1       4.005   4.918  17.579  0.00  0.00    +0.000 A 
ATOM      2  C   UNL     1       3.316   6.106  17.808  0.00  0.00    +0.000 A 
ATOM      3  C   UNL     1       2.609   6.291  18.997  0.00  0.00    +0.000 A 
ATOM      4  C   UNL     1       2.574   5.242  19.913  0.00  0.00    +0.000 A 
ATOM      5  C   UNL     1       3.223   4.064  19.583  0.00  0.00    +0.000 A 
ATOM      6  N   UNL     1       3.937   3.885  18.450  0.00  0.00    +0.000 NA
ENDROOT
BRANCH   3   7
ATOM      7  N   UNL     1       1.971   7.524  19.267  0.00  0.00    +0.000 N 
ATOM      8  C   UNL     1       1.342   7.821  20.546  0.00  0.00    +0.000 C 
ATOM      9  C   UNL     1       0.929   9.252  20.402  0.00  0.00    +0.000 A 
ATOM     10  C   UNL     1       1.276   9.709  19.134  0.00  0.00    +0.000 A 
ATOM     11  C   UNL     1       0.997  10.987  18.684  0.00  0.00    +0.000 A 
ATOM     12  C   UNL     1       0.342  11.844  19.565  0.00  0.00    +0.000 A 
ATOM     13  C   UNL     1       0.002  11.411  20.859  0.00  0.00    +0.000 A 
ATOM     14  C   UNL     1       0.295  10.104  21.304  0.00  0.00    +0.000 A 
ATOM     15  C   UNL     1       1.965   8.632  18.415  0.00  0.00    +0.000 C 
ATOM     16  O   UNL     1       2.400   8.766  17.287  0.00  0.00    +0.000 OA
BRANCH  14  17
ATOM     17  C   UNL     1      -0.066   9.691  22.706  0.00  0.00    +0.000 C 
ATOM     18  F   UNL     1       1.007   9.316  23.456  0.00  0.00    +0.000 F 
ATOM     19  F   UNL     1      -0.672  10.693  23.400  0.00  0.00    +0.000 F 
ATOM     20  F   UNL     1      -0.925   8.639  22.734  0.00  0.00    +0.000 F 
ENDBRANCH  14  17
ENDBRANCH   3   7
BRANCH   1  21
ATOM     21  C   UNL     1       4.844   4.702  16.337  0.00  0.00    +0.000 C 
BRANCH  21  22
ATOM     22  C   UNL     1       6.039   5.651  16.199  0.00  0.00    +0.000 C 
BRANCH  22  28
ATOM     23  C   UNL     1       7.388   8.116  17.570  0.00  0.00    +0.000 C 
ATOM     24  N   UNL     1       7.483   6.743  17.989  0.00  0.00    +0.000 N 
ATOM     25  C   UNL     1       8.147   6.290  19.087  0.00  0.00    +0.000 A 
ATOM     26  N   UNL     1       8.020   4.988  19.167  0.00  0.00    +0.000 NA
ATOM     27  N   UNL     1       7.251   4.577  18.105  0.00  0.00    +0.000 NA
ATOM     28  C   UNL     1       6.922   5.640  17.398  0.00  0.00    +0.000 A 
ENDBRANCH  22  28
ENDBRANCH  21  22
ENDBRANCH   1  21
TORSDOF 5
ENDMDL
MODEL 5
REMARK VINA RESULT:      -7.9      1.788      3.510
REMARK  Name = 
REMARK  6 active torsions:
REMARK  status: ('A' for Active; 'I' for Inactive)
REMARK    1  A    between atoms: C_1  and  N_2
REMARK    2  A    between atoms: C_6  and  C_7
REMARK    3  A    between atoms: C_7  and  C_8
REMARK    4  A    between atoms: C_8  and  C_9
REMARK    5  A    between atoms: C_11  and  N_12
REMARK    6  A    between atoms: C_19  and  C_20
REMARK                            x       y       z     vdW  Elec       q    Type
REMARK                         _______ _______ _______ _____ _____    ______ ____
ROOT
ATOM      1  C   UNL     1       3.693   4.136  18.356  0.00  0.00    +0.000 A 
ATOM      2  C   UNL     1       3.117   5.401  18.425  0.00  0.00    +0.000 A 
ATOM      3  C   UNL     1       2.442   5.804  19.578  0.00  0.00    +0.000 A 
ATOM      4  C   UNL     1       2.323   4.893  20.626  0.00  0.00    +0.000 A 
ATOM      5  C   UNL     1       2.859   3.628  20.455  0.00  0.00    +0.000 A 
ATOM      6  N   UNL     1       3.541   3.237  19.356  0.00  0.00    +0.000 NA
ENDROOT
BRANCH   3   7
ATOM      7  N   UNL     1       1.921   7.115  19.682  0.00  0.00    +0.000 N 
ATOM      8  C   UNL     1       1.229   7.595  20.870  0.00  0.00    +0.000 C 
ATOM      9  C   UNL     1       0.984   9.040  20.566  0.00  0.00    +0.000 A 
ATOM     10  C   UNL     1       1.478   9.336  19.298  0.00  0.00    +0.000 A 
ATOM     11  C   UNL     1       1.374  10.586  18.716  0.00  0.00    +0.000 A 
ATOM     12  C   UNL     1       0.747  11.585  19.457  0.00  0.00    +0.000 A 
ATOM     13  C   UNL     1       0.262  11.314  20.749  0.00  0.00    +0.000 A 
ATOM     14  C   UNL     1       0.377  10.033  21.331  0.00  0.00    +0.000 A 
ATOM     15  C   UNL     1       2.101   8.132  18.740  0.00  0.00    +0.000 C 
ATOM     16  O   UNL     1       2.636   8.113  17.648  0.00  0.00    +0.000 OA
BRANCH  14  17
ATOM     17  C   UNL     1      -0.137   9.795  22.726  0.00  0.00    +0.000 C 
ATOM     18  F   UNL     1      -1.029   8.769  22.809  0.00  0.00    +0.000 F 
ATOM     19  F   UNL     1       0.862   9.490  23.599  0.00  0.00    +0.000 F 
ATOM     20  F   UNL     1      -0.771  10.881  23.240  0.00  0.00    +0.000 F 
ENDBRANCH  14  17
ENDBRANCH   3   7
BRANCH   1  21
ATOM     21  C   UNL     1       4.495   3.683  17.155  0.00  0.00    +0.000 C 
BRANCH  21  22
ATOM     22  C   UNL     1       5.461   4.733  16.596  0.00  0.00    +0.000 C 
BRANCH  22  28
ATOM     23  C   UNL     1       6.452   7.616  17.290  0.00  0.00    +0.000 C 
ATOM     24  N   UNL     1       6.924   6.386  17.866  0.00  0.00    +0.000 N 
ATOM     25  C   UNL     1       7.859   6.273  18.848  0.00  0.00    +0.000 A 
ATOM     26  N   UNL     1       8.041   5.007  19.134  0.00  0.00    +0.000 NA
ATOM     27  N   UNL     1       7.204   4.272  18.330  0.00  0.00    +0.000 NA
ATOM     28  C   UNL     1       6.525   5.108  17.568  0.00  0.00    +0.000 A 
ENDBRANCH  22  28
ENDBRANCH  21  22
ENDBRANCH   1  21
TORSDOF 5
ENDMDL
MODEL 6
REMARK VINA RESULT:      -7.9      4.442      8.293
REMARK  Name = 
REMARK  6 active torsions:
REMARK  status: ('A' for Active; 'I' for Inactive)
REMARK    1  A    between atoms: C_1  and  N_2
REMARK    2  A    between atoms: C_6  and  C_7
REMARK    3  A    between atoms: C_7  and  C_8
REMARK    4  A    between atoms: C_8  and  C_9
REMARK    5  A    between atoms: C_11  and  N_12
REMARK    6  A    between atoms: C_19  and  C_20
REMARK                            x       y       z     vdW  Elec       q    Type
REMARK                         _______ _______ _______ _____ _____    ______ ____
ROOT
ATOM      1  C   UNL     1       0.200  10.103  20.019  0.00  0.00    +0.000 A 
ATOM      2  C   UNL     1       0.863   9.091  19.331  0.00  0.00    +0.000 A 
ATOM      3  C   UNL     1       1.605   8.136  20.027  0.00  0.00    +0.000 A 
ATOM      4  C   UNL     1       1.701   8.257  21.412  0.00  0.00    +0.000 A 
ATOM      5  C   UNL     1       1.075   9.333  22.019  0.00  0.00    +0.000 A 
ATOM      6  N   UNL     1       0.328  10.245  21.358  0.00  0.00    +0.000 NA
ENDROOT
BRANCH   3   7
ATOM      7  N   UNL     1       2.217   7.062  19.340  0.00  0.00    +0.000 N 
ATOM      8  C   UNL     1       3.180   7.262  18.266  0.00  0.00    +0.000 C 
ATOM      9  C   UNL     1       3.633   5.871  17.948  0.00  0.00    +0.000 A 
ATOM     10  C   UNL     1       2.957   4.966  18.761  0.00  0.00    +0.000 A 
ATOM     11  C   UNL     1       3.133   3.596  18.684  0.00  0.00    +0.000 A 
ATOM     12  C   UNL     1       4.045   3.123  17.743  0.00  0.00    +0.000 A 
ATOM     13  C   UNL     1       4.756   4.021  16.926  0.00  0.00    +0.000 A 
ATOM     14  C   UNL     1       4.566   5.416  17.018  0.00  0.00    +0.000 A 
ATOM     15  C   UNL     1       2.079   5.710  19.669  0.00  0.00    +0.000 C 
ATOM     16  O   UNL     1       1.385   5.167  20.507  0.00  0.00    +0.000 OA
BRANCH  14  17
ATOM     17  C   UNL     1       5.366   6.341  16.140  0.00  0.00    +0.000 C 
ATOM     18  F   UNL     1       6.128   7.229  16.837  0.00  0.00    +0.000 F 
ATOM     19  F   UNL     1       6.228   5.667  15.330  0.00  0.00    +0.000 F 
ATOM     20  F   UNL     1       4.582   7.088  15.320  0.00  0.00    +0.000 F 
ENDBRANCH  14  17
ENDBRANCH   3   7
BRANCH   1  21
ATOM     21  C   UNL     1      -0.674  11.116  19.311  0.00  0.00    +0.000 C 
BRANCH  21  22
ATOM     22  C   UNL     1      -1.263  10.636  17.981  0.00  0.00    +0.000 C 
BRANCH  22  28
ATOM     23  C   UNL     1      -2.866  10.602  15.296  0.00  0.00    +0.000 C 
ATOM     24  N   UNL     1      -3.335  11.082  16.569  0.00  0.00    +0.000 N 
ATOM     25  C   UNL     1      -4.579  11.567  16.827  0.00  0.00    +0.000 A 
ATOM     26  N   UNL     1      -4.661  11.909  18.090  0.00  0.00    +0.000 NA
ATOM     27  N   UNL     1      -3.448  11.635  18.677  0.00  0.00    +0.000 NA
ATOM     28  C   UNL     1      -2.650  11.130  17.756  0.00  0.00    +0.000 A 
ENDBRANCH  22  28
ENDBRANCH  21  22
ENDBRANCH   1  21
TORSDOF 5
ENDMDL
MODEL 7
REMARK VINA RESULT:      -7.9      3.640      7.781
REMARK  Name = 
REMARK  6 active torsions:
REMARK  status: ('A' for Active; 'I' for Inactive)
REMARK    1  A    between atoms: C_1  and  N_2
REMARK    2  A    between atoms: C_6  and  C_7
REMARK    3  A    between atoms: C_7  and  C_8
REMARK    4  A    between atoms: C_8  and  C_9
REMARK    5  A    between atoms: C_11  and  N_12
REMARK    6  A    between atoms: C_19  and  C_20
REMARK                            x       y       z     vdW  Elec       q    Type
REMARK                         _______ _______ _______ _____ _____    ______ ____
ROOT
ATOM      1  C   UNL     1      -0.396  11.041  19.695  0.00  0.00    +0.000 A 
ATOM      2  C   UNL     1       0.336   9.938  19.267  0.00  0.00    +0.000 A 
ATOM      3  C   UNL     1       1.042   9.162  20.188  0.00  0.00    +0.000 A 
ATOM      4  C   UNL     1       1.030   9.552  21.525  0.00  0.00    +0.000 A 
ATOM      5  C   UNL     1       0.339  10.704  21.863  0.00  0.00    +0.000 A 
ATOM      6  N   UNL     1      -0.373  11.444  20.986  0.00  0.00    +0.000 NA
ENDROOT
BRANCH   3   7
ATOM      7  N   UNL     1       1.725   7.996  19.769  0.00  0.00    +0.000 N 
ATOM      8  C   UNL     1       1.612   6.724  20.468  0.00  0.00    +0.000 C 
ATOM      9  C   UNL     1       2.391   5.784  19.601  0.00  0.00    +0.000 A 
ATOM     10  C   UNL     1       2.917   6.483  18.518  0.00  0.00    +0.000 A 
ATOM     11  C   UNL     1       3.715   5.898  17.551  0.00  0.00    +0.000 A 
ATOM     12  C   UNL     1       3.983   4.537  17.684  0.00  0.00    +0.000 A 
ATOM     13  C   UNL     1       3.443   3.807  18.758  0.00  0.00    +0.000 A 
ATOM     14  C   UNL     1       2.629   4.419  19.736  0.00  0.00    +0.000 A 
ATOM     15  C   UNL     1       2.477   7.880  18.596  0.00  0.00    +0.000 C 
ATOM     16  O   UNL     1       2.775   8.712  17.761  0.00  0.00    +0.000 OA
BRANCH  14  17
ATOM     17  C   UNL     1       2.053   3.593  20.855  0.00  0.00    +0.000 C 
ATOM     18  F   UNL     1       0.693   3.517  20.830  0.00  0.00    +0.000 F 
ATOM     19  F   UNL     1       2.498   2.307  20.830  0.00  0.00    +0.000 F 
ATOM     20  F   UNL     1       2.375   4.081  22.082  0.00  0.00    +0.000 F 
ENDBRANCH  14  17
ENDBRANCH   3   7
BRANCH   1  21
ATOM     21  C   UNL     1      -1.233  11.868  18.742  0.00  0.00    +0.000 C 
BRANCH  21  22
ATOM     22  C   UNL     1      -2.683  11.395  18.587  0.00  0.00    +0.000 C 
BRANCH  22  28
ATOM     23  C   UNL     1      -5.145  12.043  16.774  0.00  0.00    +0.000 C 
ATOM     24  N   UNL     1      -4.047  11.173  16.449  0.00  0.00    +0.000 N 
ATOM     25  C   UNL     1      -3.875  10.513  15.272  0.00  0.00    +0.000 A 
ATOM     26  N   UNL     1      -2.766   9.816  15.320  0.00  0.00    +0.000 NA
ATOM     27  N   UNL     1      -2.193  10.027  16.551  0.00  0.00    +0.000 NA
ATOM     28  C   UNL     1      -2.966  10.852  17.230  0.00  0.00    +0.000 A 
ENDBRANCH  22  28
ENDBRANCH  21  22
ENDBRANCH   1  21
TORSDOF 5
ENDMDL
MODEL 8
REMARK VINA RESULT:      -7.9      3.875      7.936
REMARK  Name = 
REMARK  6 active torsions:
REMARK  status: ('A' for Active; 'I' for Inactive)
REMARK    1  A    between atoms: C_1  and  N_2
REMARK    2  A    between atoms: C_6  and  C_7
REMARK    3  A    between atoms: C_7  and  C_8
REMARK    4  A    between atoms: C_8  and  C_9
REMARK    5  A    between atoms: C_11  and  N_12
REMARK    6  A    between atoms: C_19  and  C_20
REMARK                            x       y       z     vdW  Elec       q    Type
REMARK                         _______ _______ _______ _____ _____    ______ ____
ROOT
ATOM      1  C   UNL     1      -0.300  10.689  20.315  0.00  0.00    +0.000 A 
ATOM      2  C   UNL     1       0.415   9.629  19.764  0.00  0.00    +0.000 A 
ATOM      3  C   UNL     1       1.077   8.721  20.592  0.00  0.00    +0.000 A 
ATOM      4  C   UNL     1       1.041   8.937  21.968  0.00  0.00    +0.000 A 
ATOM      5  C   UNL     1       0.371  10.054  22.437  0.00  0.00    +0.000 A 
ATOM      6  N   UNL     1      -0.300  10.921  21.647  0.00  0.00    +0.000 NA
ENDROOT
BRANCH   3   7
ATOM      7  N   UNL     1       1.741   7.600  20.041  0.00  0.00    +0.000 N 
ATOM      8  C   UNL     1       1.632   6.264  20.609  0.00  0.00    +0.000 C 
ATOM      9  C   UNL     1       2.384   5.413  19.633  0.00  0.00    +0.000 A 
ATOM     10  C   UNL     1       2.892   6.216  18.615  0.00  0.00    +0.000 A 
ATOM     11  C   UNL     1       3.663   5.727  17.576  0.00  0.00    +0.000 A 
ATOM     12  C   UNL     1       3.923   4.359  17.563  0.00  0.00    +0.000 A 
ATOM     13  C   UNL     1       3.400   3.526  18.569  0.00  0.00    +0.000 A 
ATOM     14  C   UNL     1       2.614   4.040  19.622  0.00  0.00    +0.000 A 
ATOM     15  C   UNL     1       2.466   7.600  18.846  0.00  0.00    +0.000 C 
ATOM     16  O   UNL     1       2.752   8.512  18.093  0.00  0.00    +0.000 OA
BRANCH  14  17
ATOM     17  C   UNL     1       2.055   3.107  20.664  0.00  0.00    +0.000 C 
ATOM     18  F   UNL     1       0.695   3.133  20.744  0.00  0.00    +0.000 F 
ATOM     19  F   UNL     1       2.389   1.809  20.428  0.00  0.00    +0.000 F 
ATOM     20  F   UNL     1       2.506   3.393  21.914  0.00  0.00    +0.000 F 
ENDBRANCH  14  17
ENDBRANCH   3   7
BRANCH   1  21
ATOM     21  C   UNL     1      -1.092  11.654  19.459  0.00  0.00    +0.000 C 
BRANCH  21  22
ATOM     22  C   UNL     1      -1.615  11.065  18.144  0.00  0.00    +0.000 C 
BRANCH  22  28
ATOM     23  C   UNL     1      -3.138  10.867  15.421  0.00  0.00    +0.000 C 
ATOM     24  N   UNL     1      -3.683  11.304  16.678  0.00  0.00    +0.000 N 
ATOM     25  C   UNL     1      -4.975  11.667  16.903  0.00  0.00    +0.000 A 
ATOM     26  N   UNL     1      -5.122  12.002  18.161  0.00  0.00    +0.000 NA
ATOM     27  N   UNL     1      -3.904  11.850  18.779  0.00  0.00    +0.000 NA
ATOM     28  C   UNL     1      -3.037  11.422  17.882  0.00  0.00    +0.000 A 
ENDBRANCH  22  28
ENDBRANCH  21  22
ENDBRANCH   1  21
TORSDOF 5
ENDMDL
MODEL 9
REMARK VINA RESULT:      -7.9      1.841      3.845
REMARK  Name = 
REMARK  6 active torsions:
REMARK  status: ('A' for Active; 'I' for Inactive)
REMARK    1  A    between atoms: C_1  and  N_2
REMARK    2  A    between atoms: C_6  and  C_7
REMARK    3  A    between atoms: C_7  and  C_8
REMARK    4  A    between atoms: C_8  and  C_9
REMARK    5  A    between atoms: C_11  and  N_12
REMARK    6  A    between atoms: C_19  and  C_20
REMARK                            x       y       z     vdW  Elec       q    Type
REMARK                         _______ _______ _______ _____ _____    ______ ____
ROOT
ATOM      1  C   UNL     1       5.413   5.026  19.284  0.00  0.00    +0.000 A 
ATOM      2  C   UNL     1       4.595   6.151  19.264  0.00  0.00    +0.000 A 
ATOM      3  C   UNL     1       3.210   6.016  19.375  0.00  0.00    +0.000 A 
ATOM      4  C   UNL     1       2.677   4.732  19.456  0.00  0.00    +0.000 A 
ATOM      5  C   UNL     1       3.550   3.658  19.395  0.00  0.00    +0.000 A 
ATOM      6  N   UNL     1       4.893   3.777  19.320  0.00  0.00    +0.000 NA
ENDROOT
BRANCH   3   7
ATOM      7  N   UNL     1       2.381   7.161  19.431  0.00  0.00    +0.000 N 
ATOM      8  C   UNL     1       1.658   7.550  20.634  0.00  0.00    +0.000 C 
ATOM      9  C   UNL     1       1.039   8.859  20.254  0.00  0.00    +0.000 A 
ATOM     10  C   UNL     1       1.369   9.162  18.936  0.00  0.00    +0.000 A 
ATOM     11  C   UNL     1       0.918  10.294  18.281  0.00  0.00    +0.000 A 
ATOM     12  C   UNL     1       0.102  11.165  19.001  0.00  0.00    +0.000 A 
ATOM     13  C   UNL     1      -0.225  10.890  20.340  0.00  0.00    +0.000 A 
ATOM     14  C   UNL     1       0.244   9.730  20.995  0.00  0.00    +0.000 A 
ATOM     15  C   UNL     1       2.244   8.108  18.413  0.00  0.00    +0.000 C 
ATOM     16  O   UNL     1       2.703   8.132  17.287  0.00  0.00    +0.000 OA
BRANCH  14  17
ATOM     17  C   UNL     1      -0.113   9.489  22.438  0.00  0.00    +0.000 C 
ATOM     18  F   UNL     1      -0.813  10.511  23.003  0.00  0.00    +0.000 F 
ATOM     19  F   UNL     1      -0.880   8.377  22.602  0.00  0.00    +0.000 F 
ATOM     20  F   UNL     1       0.983   9.311  23.222  0.00  0.00    +0.000 F 
ENDBRANCH  14  17
ENDBRANCH   3   7
BRANCH   1  21
ATOM     21  C   UNL     1       6.923   5.129  19.239  0.00  0.00    +0.000 C 
BRANCH  21  22
ATOM     22  C   UNL     1       7.536   4.961  17.845  0.00  0.00    +0.000 C 
BRANCH  22  28
ATOM     23  C   UNL     1       5.871   3.374  15.726  0.00  0.00    +0.000 C 
ATOM     24  N   UNL     1       5.940   4.804  15.866  0.00  0.00    +0.000 N 
ATOM     25  C   UNL     1       5.255   5.711  15.120  0.00  0.00    +0.000 A 
ATOM     26  N   UNL     1       5.554   6.923  15.521  0.00  0.00    +0.000 NA
ATOM     27  N   UNL     1       6.449   6.810  16.558  0.00  0.00    +0.000 NA
ATOM     28  C   UNL     1       6.677   5.528  16.769  0.00  0.00    +0.000 A 
ENDBRANCH  22  28
ENDBRANCH  21  22
ENDBRANCH   1  21
TORSDOF 5
ENDMDL
