MODEL 1
REMARK VINA RESULT:      -8.8      0.000      0.000
REMARK  Name = 
REMARK  5 active torsions:
REMARK  status: ('A' for Active; 'I' for Inactive)
REMARK    1  A    between atoms: C_2  and  C_16
REMARK    2  A    between atoms: N_3  and  C_4
REMARK    3  A    between atoms: C_4  and  C_5
REMARK    4  A    between atoms: C_9  and  C_10
REMARK    5  A    between atoms: C_18  and  C_19
REMARK                            x       y       z     vdW  Elec       q    Type
REMARK                         _______ _______ _______ _____ _____    ______ ____
ROOT
ATOM      1  O   UNL     1       7.923   5.806  19.346  0.00  0.00    +0.000 OA
ATOM      2  C   UNL     1       7.852   6.435  18.294  0.00  0.00    +0.000 C 
ATOM      3  N   UNL     1       7.595   5.855  17.074  0.00  0.00    +0.000 N 
ATOM      4  H   UNL     1       7.522   6.506  16.296  0.00  0.00    +0.000 HD
ENDROOT
BRANCH   2   5
ATOM      5  C   UNL     1       8.061   7.890  18.229  0.00  0.00    +0.000 A 
ATOM      6  C   UNL     1       8.938   8.632  19.051  0.00  0.00    +0.000 A 
ATOM      7  C   UNL     1       8.883   9.935  18.605  0.00  0.00    +0.000 A 
ATOM      8  N   UNL     1       7.945   9.915  17.603  0.00  0.00    +0.000 N 
ATOM      9  N   UNL     1       7.443   8.690  17.336  0.00  0.00    +0.000 NA
ATOM     10  H   UNL     1       7.634  10.695  17.036  0.00  0.00    +0.000 HD
BRANCH   7  11
ATOM     11  C   UNL     1       9.657  11.104  19.007  0.00  0.00    +0.000 A 
ATOM     12  C   UNL     1       9.588  11.546  20.340  0.00  0.00    +0.000 A 
ATOM     13  C   UNL     1      10.317  12.658  20.764  0.00  0.00    +0.000 A 
ATOM     14  C   UNL     1      11.118  13.332  19.855  0.00  0.00    +0.000 A 
ATOM     15  F   UNL     1      11.819  14.399  20.259  0.00  0.00    +0.000 F 
ATOM     16  C   UNL     1      11.198  12.916  18.531  0.00  0.00    +0.000 A 
ATOM     17  C   UNL     1      10.471  11.804  18.103  0.00  0.00    +0.000 A 
ENDBRANCH   7  11
ENDBRANCH   2   5
BRANCH   3  18
ATOM     18  C   UNL     1       7.332   4.440  16.906  0.00  0.00    +0.000 C 
BRANCH  18  19
ATOM     19  C   UNL     1       5.854   4.162  16.594  0.00  0.00    +0.000 C 
ATOM     20  C   UNL     1       5.427   4.762  15.266  0.00  0.00    +0.000 C 
ATOM     21  C   UNL     1       5.109   6.193  15.630  0.00  0.00    +0.000 C 
ATOM     22  O   UNL     1       4.680   6.197  16.997  0.00  0.00    +0.000 OA
ATOM     23  C   UNL     1       4.941   4.905  17.586  0.00  0.00    +0.000 C 
BRANCH  23  24
ATOM     24  C   UNL     1       3.640   4.173  17.891  0.00  0.00    +0.000 A 
ATOM     25  C   UNL     1       2.489   4.842  18.337  0.00  0.00    +0.000 A 
ATOM     26  C   UNL     1       1.303   4.144  18.586  0.00  0.00    +0.000 A 
ATOM     27  C   UNL     1       1.255   2.763  18.410  0.00  0.00    +0.000 A 
ATOM     28  C   UNL     1       2.398   2.078  18.008  0.00  0.00    +0.000 A 
ATOM     29  C   UNL     1       3.582   2.775  17.758  0.00  0.00    +0.000 A 
ENDBRANCH  23  24
ENDBRANCH  18  19
ENDBRANCH   3  18
TORSDOF 5
ENDMDL
MODEL 2
REMARK VINA RESULT:      -8.5      6.600      9.141
REMARK  Name = 
REMARK  5 active torsions:
REMARK  status: ('A' for Active; 'I' for Inactive)
REMARK    1  A    between atoms: C_2  and  C_16
REMARK    2  A    between atoms: N_3  and  C_4
REMARK    3  A    between atoms: C_4  and  C_5
REMARK    4  A    between atoms: C_9  and  C_10
REMARK    5  A    between atoms: C_18  and  C_19
REMARK                            x       y       z     vdW  Elec       q    Type
REMARK                         _______ _______ _______ _____ _____    ______ ____
ROOT
ATOM      1  O   UNL     1       1.313   8.468  21.657  0.00  0.00    +0.000 OA
ATOM      2  C   UNL     1       1.526   8.407  20.449  0.00  0.00    +0.000 C 
ATOM      3  N   UNL     1       1.202   9.410  19.566  0.00  0.00    +0.000 N 
ATOM      4  H   UNL     1       1.478   9.238  18.602  0.00  0.00    +0.000 HD
ENDROOT
BRANCH   2   5
ATOM      5  C   UNL     1       2.135   7.228  19.814  0.00  0.00    +0.000 A 
ATOM      6  C   UNL     1       2.821   7.222  18.578  0.00  0.00    +0.000 A 
ATOM      7  C   UNL     1       3.292   5.939  18.399  0.00  0.00    +0.000 A 
ATOM      8  N   UNL     1       2.818   5.245  19.484  0.00  0.00    +0.000 N 
ATOM      9  N   UNL     1       2.132   5.999  20.369  0.00  0.00    +0.000 NA
ATOM     10  H   UNL     1       2.962   4.265  19.699  0.00  0.00    +0.000 HD
BRANCH   7  11
ATOM     11  C   UNL     1       4.157   5.386  17.362  0.00  0.00    +0.000 A 
ATOM     12  C   UNL     1       4.788   6.260  16.460  0.00  0.00    +0.000 A 
ATOM     13  C   UNL     1       5.625   5.771  15.456  0.00  0.00    +0.000 A 
ATOM     14  C   UNL     1       5.835   4.404  15.353  0.00  0.00    +0.000 A 
ATOM     15  F   UNL     1       6.638   3.931  14.392  0.00  0.00    +0.000 F 
ATOM     16  C   UNL     1       5.217   3.521  16.232  0.00  0.00    +0.000 A 
ATOM     17  C   UNL     1       4.379   4.007  17.236  0.00  0.00    +0.000 A 
ENDBRANCH   7  11
ENDBRANCH   2   5
BRANCH   3  18
ATOM     18  C   UNL     1       0.617  10.671  19.975  0.00  0.00    +0.000 C 
BRANCH  18  19
ATOM     19  C   UNL     1      -0.232  11.300  18.860  0.00  0.00    +0.000 C 
ATOM     20  C   UNL     1      -0.186  12.816  18.891  0.00  0.00    +0.000 C 
ATOM     21  C   UNL     1      -1.234  13.163  19.922  0.00  0.00    +0.000 C 
ATOM     22  O   UNL     1      -2.215  12.120  19.896  0.00  0.00    +0.000 OA
ATOM     23  C   UNL     1      -1.727  11.022  19.096  0.00  0.00    +0.000 C 
BRANCH  23  24
ATOM     24  C   UNL     1      -2.536  10.883  17.812  0.00  0.00    +0.000 A 
ATOM     25  C   UNL     1      -3.757  11.549  17.618  0.00  0.00    +0.000 A 
ATOM     26  C   UNL     1      -4.465  11.418  16.419  0.00  0.00    +0.000 A 
ATOM     27  C   UNL     1      -3.971  10.606  15.402  0.00  0.00    +0.000 A 
ATOM     28  C   UNL     1      -2.783   9.906  15.592  0.00  0.00    +0.000 A 
ATOM     29  C   UNL     1      -2.076  10.037  16.788  0.00  0.00    +0.000 A 
ENDBRANCH  23  24
ENDBRANCH  18  19
ENDBRANCH   3  18
TORSDOF 5
ENDMDL
MODEL 3
REMARK VINA RESULT:      -8.5      1.714      2.246
REMARK  Name = 
REMARK  5 active torsions:
REMARK  status: ('A' for Active; 'I' for Inactive)
REMARK    1  A    between atoms: C_2  and  C_16
REMARK    2  A    between atoms: N_3  and  C_4
REMARK    3  A    between atoms: C_4  and  C_5
REMARK    4  A    between atoms: C_9  and  C_10
REMARK    5  A    between atoms: C_18  and  C_19
REMARK                            x       y       z     vdW  Elec       q    Type
REMARK                         _______ _______ _______ _____ _____    ______ ____
ROOT
ATOM      1  O   UNL     1       7.671   6.733  16.380  0.00  0.00    +0.000 OA
ATOM      2  C   UNL     1       7.212   7.523  17.202  0.00  0.00    +0.000 C 
ATOM      3  N   UNL     1       5.881   7.583  17.541  0.00  0.00    +0.000 N 
ATOM      4  H   UNL     1       5.653   8.257  18.268  0.00  0.00    +0.000 HD
ENDROOT
BRANCH   2   5
ATOM      5  C   UNL     1       8.049   8.512  17.898  0.00  0.00    +0.000 A 
ATOM      6  C   UNL     1       8.243   9.853  17.496  0.00  0.00    +0.000 A 
ATOM      7  C   UNL     1       9.029  10.440  18.465  0.00  0.00    +0.000 A 
ATOM      8  N   UNL     1       9.310   9.423  19.342  0.00  0.00    +0.000 N 
ATOM      9  N   UNL     1       8.717   8.249  19.040  0.00  0.00    +0.000 NA
ATOM     10  H   UNL     1       9.867   9.476  20.187  0.00  0.00    +0.000 HD
BRANCH   7  11
ATOM     11  C   UNL     1       9.449  11.828  18.627  0.00  0.00    +0.000 A 
ATOM     12  C   UNL     1      10.485  12.129  19.528  0.00  0.00    +0.000 A 
ATOM     13  C   UNL     1      10.918  13.443  19.708  0.00  0.00    +0.000 A 
ATOM     14  C   UNL     1      10.316  14.462  18.986  0.00  0.00    +0.000 A 
ATOM     15  F   UNL     1      10.729  15.724  19.156  0.00  0.00    +0.000 F 
ATOM     16  C   UNL     1       9.286  14.188  18.093  0.00  0.00    +0.000 A 
ATOM     17  C   UNL     1       8.851  12.875  17.910  0.00  0.00    +0.000 A 
ENDBRANCH   7  11
ENDBRANCH   2   5
BRANCH   3  18
ATOM     18  C   UNL     1       4.881   6.686  16.998  0.00  0.00    +0.000 C 
BRANCH  18  19
ATOM     19  C   UNL     1       4.584   5.514  17.945  0.00  0.00    +0.000 C 
ATOM     20  C   UNL     1       5.551   4.361  17.750  0.00  0.00    +0.000 C 
ATOM     21  C   UNL     1       4.948   3.608  16.588  0.00  0.00    +0.000 C 
ATOM     22  O   UNL     1       3.533   3.827  16.631  0.00  0.00    +0.000 OA
ATOM     23  C   UNL     1       3.235   4.861  17.593  0.00  0.00    +0.000 C 
BRANCH  23  24
ATOM     24  C   UNL     1       2.497   4.288  18.797  0.00  0.00    +0.000 A 
ATOM     25  C   UNL     1       1.503   3.305  18.669  0.00  0.00    +0.000 A 
ATOM     26  C   UNL     1       0.860   2.783  19.796  0.00  0.00    +0.000 A 
ATOM     27  C   UNL     1       1.188   3.249  21.066  0.00  0.00    +0.000 A 
ATOM     28  C   UNL     1       2.141   4.253  21.209  0.00  0.00    +0.000 A 
ATOM     29  C   UNL     1       2.785   4.773  20.084  0.00  0.00    +0.000 A 
ENDBRANCH  23  24
ENDBRANCH  18  19
ENDBRANCH   3  18
TORSDOF 5
ENDMDL
MODEL 4
REMARK VINA RESULT:      -8.5      0.925      1.304
REMARK  Name = 
REMARK  5 active torsions:
REMARK  status: ('A' for Active; 'I' for Inactive)
REMARK    1  A    between atoms: C_2  and  C_16
REMARK    2  A    between atoms: N_3  and  C_4
REMARK    3  A    between atoms: C_4  and  C_5
REMARK    4  A    between atoms: C_9  and  C_10
REMARK    5  A    between atoms: C_18  and  C_19
REMARK                            x       y       z     vdW  Elec       q    Type
REMARK                         _______ _______ _______ _____ _____    ______ ____
ROOT
ATOM      1  O   UNL     1       8.189   5.774  19.543  0.00  0.00    +0.000 OA
ATOM      2  C   UNL     1       7.833   6.369  18.529  0.00  0.00    +0.000 C 
ATOM      3  N   UNL     1       7.192   5.764  17.475  0.00  0.00    +0.000 N 
ATOM      4  H   UNL     1       6.920   6.392  16.721  0.00  0.00    +0.000 HD
ENDROOT
BRANCH   2   5
ATOM      5  C   UNL     1       8.083   7.805  18.330  0.00  0.00    +0.000 A 
ATOM      6  C   UNL     1       8.959   8.602  19.102  0.00  0.00    +0.000 A 
ATOM      7  C   UNL     1       8.950   9.857  18.530  0.00  0.00    +0.000 A 
ATOM      8  N   UNL     1       8.038   9.762  17.508  0.00  0.00    +0.000 N 
ATOM      9  N   UNL     1       7.511   8.530  17.347  0.00  0.00    +0.000 NA
ATOM     10  H   UNL     1       7.763  10.491  16.860  0.00  0.00    +0.000 HD
BRANCH   7  11
ATOM     11  C   UNL     1       9.745  11.041  18.838  0.00  0.00    +0.000 A 
ATOM     12  C   UNL     1       9.850  11.465  20.175  0.00  0.00    +0.000 A 
ATOM     13  C   UNL     1      10.605  12.590  20.511  0.00  0.00    +0.000 A 
ATOM     14  C   UNL     1      11.257  13.295  19.510  0.00  0.00    +0.000 A 
ATOM     15  F   UNL     1      11.982  14.374  19.829  0.00  0.00    +0.000 F 
ATOM     16  C   UNL     1      11.163  12.895  18.182  0.00  0.00    +0.000 A 
ATOM     17  C   UNL     1      10.410  11.771  17.842  0.00  0.00    +0.000 A 
ENDBRANCH   7  11
ENDBRANCH   2   5
BRANCH   3  18
ATOM     18  C   UNL     1       6.823   4.363  17.466  0.00  0.00    +0.000 C 
BRANCH  18  19
ATOM     19  C   UNL     1       5.299   4.170  17.443  0.00  0.00    +0.000 C 
ATOM     20  C   UNL     1       4.647   4.904  16.286  0.00  0.00    +0.000 C 
ATOM     21  C   UNL     1       4.487   6.306  16.824  0.00  0.00    +0.000 C 
ATOM     22  O   UNL     1       4.344   6.200  18.245  0.00  0.00    +0.000 OA
ATOM     23  C   UNL     1       4.648   4.851  18.659  0.00  0.00    +0.000 C 
BRANCH  23  24
ATOM     24  C   UNL     1       3.397   4.142  19.164  0.00  0.00    +0.000 A 
ATOM     25  C   UNL     1       3.110   2.806  18.843  0.00  0.00    +0.000 A 
ATOM     26  C   UNL     1       1.965   2.177  19.341  0.00  0.00    +0.000 A 
ATOM     27  C   UNL     1       1.079   2.880  20.154  0.00  0.00    +0.000 A 
ATOM     28  C   UNL     1       1.326   4.217  20.450  0.00  0.00    +0.000 A 
ATOM     29  C   UNL     1       2.471   4.845  19.954  0.00  0.00    +0.000 A 
ENDBRANCH  23  24
ENDBRANCH  18  19
ENDBRANCH   3  18
TORSDOF 5
ENDMDL
MODEL 5
REMARK VINA RESULT:      -8.5      4.828      7.383
REMARK  Name = 
REMARK  5 active torsions:
REMARK  status: ('A' for Active; 'I' for Inactive)
REMARK    1  A    between atoms: C_2  and  C_16
REMARK    2  A    between atoms: N_3  and  C_4
REMARK    3  A    between atoms: C_4  and  C_5
REMARK    4  A    between atoms: C_9  and  C_10
REMARK    5  A    between atoms: C_18  and  C_19
REMARK                            x       y       z     vdW  Elec       q    Type
REMARK                         _______ _______ _______ _____ _____    ______ ____
ROOT
ATOM      1  O   UNL     1       2.708   4.353  18.765  0.00  0.00    +0.000 OA
ATOM      2  C   UNL     1       3.311   5.422  18.819  0.00  0.00    +0.000 C 
ATOM      3  N   UNL     1       4.677   5.533  18.716  0.00  0.00    +0.000 N 
ATOM      4  H   UNL     1       5.032   6.487  18.736  0.00  0.00    +0.000 HD
ENDROOT
BRANCH   2   5
ATOM      5  C   UNL     1       2.622   6.705  19.026  0.00  0.00    +0.000 A 
ATOM      6  C   UNL     1       1.873   7.061  20.170  0.00  0.00    +0.000 A 
ATOM      7  C   UNL     1       1.472   8.367  19.984  0.00  0.00    +0.000 A 
ATOM      8  N   UNL     1       1.938   8.694  18.735  0.00  0.00    +0.000 N 
ATOM      9  N   UNL     1       2.656   7.719  18.137  0.00  0.00    +0.000 NA
ATOM     10  H   UNL     1       1.835   9.579  18.252  0.00  0.00    +0.000 HD
BRANCH   7  11
ATOM     11  C   UNL     1       0.773   9.278  20.884  0.00  0.00    +0.000 A 
ATOM     12  C   UNL     1       0.524  10.597  20.464  0.00  0.00    +0.000 A 
ATOM     13  C   UNL     1      -0.145  11.498  21.294  0.00  0.00    +0.000 A 
ATOM     14  C   UNL     1      -0.569  11.081  22.547  0.00  0.00    +0.000 A 
ATOM     15  F   UNL     1      -1.212  11.942  23.345  0.00  0.00    +0.000 F 
ATOM     16  C   UNL     1      -0.330   9.783  22.983  0.00  0.00    +0.000 A 
ATOM     17  C   UNL     1       0.339   8.879  22.157  0.00  0.00    +0.000 A 
ENDBRANCH   7  11
ENDBRANCH   2   5
BRANCH   3  18
ATOM     18  C   UNL     1       5.552   4.402  18.484  0.00  0.00    +0.000 C 
BRANCH  18  19
ATOM     19  C   UNL     1       6.469   4.624  17.272  0.00  0.00    +0.000 C 
ATOM     20  C   UNL     1       7.552   5.649  17.553  0.00  0.00    +0.000 C 
ATOM     21  C   UNL     1       6.849   6.961  17.294  0.00  0.00    +0.000 C 
ATOM     22  O   UNL     1       5.836   6.712  16.313  0.00  0.00    +0.000 OA
ATOM     23  C   UNL     1       5.693   5.288  16.120  0.00  0.00    +0.000 C 
BRANCH  23  24
ATOM     24  C   UNL     1       6.177   4.876  14.735  0.00  0.00    +0.000 A 
ATOM     25  C   UNL     1       7.329   5.425  14.147  0.00  0.00    +0.000 A 
ATOM     26  C   UNL     1       7.759   5.008  12.884  0.00  0.00    +0.000 A 
ATOM     27  C   UNL     1       7.036   4.049  12.180  0.00  0.00    +0.000 A 
ATOM     28  C   UNL     1       5.869   3.523  12.730  0.00  0.00    +0.000 A 
ATOM     29  C   UNL     1       5.440   3.938  13.992  0.00  0.00    +0.000 A 
ENDBRANCH  23  24
ENDBRANCH  18  19
ENDBRANCH   3  18
TORSDOF 5
ENDMDL
MODEL 6
REMARK VINA RESULT:      -8.4      3.868      9.610
REMARK  Name = 
REMARK  5 active torsions:
REMARK  status: ('A' for Active; 'I' for Inactive)
REMARK    1  A    between atoms: C_2  and  C_16
REMARK    2  A    between atoms: N_3  and  C_4
REMARK    3  A    between atoms: C_4  and  C_5
REMARK    4  A    between atoms: C_9  and  C_10
REMARK    5  A    between atoms: C_18  and  C_19
REMARK                            x       y       z     vdW  Elec       q    Type
REMARK                         _______ _______ _______ _____ _____    ______ ____
ROOT
ATOM      1  O   UNL     1       7.964   7.145  16.425  0.00  0.00    +0.000 OA
ATOM      2  C   UNL     1       7.663   7.227  17.613  0.00  0.00    +0.000 C 
ATOM      3  N   UNL     1       8.124   8.216  18.449  0.00  0.00    +0.000 N 
ATOM      4  H   UNL     1       7.756   8.182  19.397  0.00  0.00    +0.000 HD
ENDROOT
BRANCH   2   5
ATOM      5  C   UNL     1       6.786   6.248  18.274  0.00  0.00    +0.000 A 
ATOM      6  C   UNL     1       5.434   6.002  17.945  0.00  0.00    +0.000 A 
ATOM      7  C   UNL     1       5.019   4.964  18.752  0.00  0.00    +0.000 A 
ATOM      8  N   UNL     1       6.103   4.694  19.548  0.00  0.00    +0.000 N 
ATOM      9  N   UNL     1       7.195   5.438  19.272  0.00  0.00    +0.000 NA
ATOM     10  H   UNL     1       6.175   3.987  20.271  0.00  0.00    +0.000 HD
BRANCH   7  11
ATOM     11  C   UNL     1       3.761   4.225  18.768  0.00  0.00    +0.000 A 
ATOM     12  C   UNL     1       2.702   4.659  17.951  0.00  0.00    +0.000 A 
ATOM     13  C   UNL     1       1.484   3.977  17.935  0.00  0.00    +0.000 A 
ATOM     14  C   UNL     1       1.323   2.857  18.736  0.00  0.00    +0.000 A 
ATOM     15  F   UNL     1       0.157   2.199  18.723  0.00  0.00    +0.000 F 
ATOM     16  C   UNL     1       2.355   2.412  19.554  0.00  0.00    +0.000 A 
ATOM     17  C   UNL     1       3.574   3.091  19.573  0.00  0.00    +0.000 A 
ENDBRANCH   7  11
ENDBRANCH   2   5
BRANCH   3  18
ATOM     18  C   UNL     1       8.979   9.298  18.006  0.00  0.00    +0.000 C 
BRANCH  18  19
ATOM     19  C   UNL     1       8.682  10.608  18.751  0.00  0.00    +0.000 C 
ATOM     20  C   UNL     1       8.670  11.806  17.819  0.00  0.00    +0.000 C 
ATOM     21  C   UNL     1      10.133  12.166  17.715  0.00  0.00    +0.000 C 
ATOM     22  O   UNL     1      10.756  11.766  18.941  0.00  0.00    +0.000 OA
ATOM     23  C   UNL     1       9.836  10.960  19.707  0.00  0.00    +0.000 C 
BRANCH  23  24
ATOM     24  C   UNL     1       9.388  11.693  20.966  0.00  0.00    +0.000 A 
ATOM     25  C   UNL     1       8.539  11.104  21.916  0.00  0.00    +0.000 A 
ATOM     26  C   UNL     1       8.165  11.795  23.073  0.00  0.00    +0.000 A 
ATOM     27  C   UNL     1       8.620  13.093  23.289  0.00  0.00    +0.000 A 
ATOM     28  C   UNL     1       9.430  13.708  22.338  0.00  0.00    +0.000 A 
ATOM     29  C   UNL     1       9.805  13.017  21.184  0.00  0.00    +0.000 A 
ENDBRANCH  23  24
ENDBRANCH  18  19
ENDBRANCH   3  18
TORSDOF 5
ENDMDL
MODEL 7
REMARK VINA RESULT:      -8.4      4.958      7.278
REMARK  Name = 
REMARK  5 active torsions:
REMARK  status: ('A' for Active; 'I' for Inactive)
REMARK    1  A    between atoms: C_2  and  C_16
REMARK    2  A    between atoms: N_3  and  C_4
REMARK    3  A    between atoms: C_4  and  C_5
REMARK    4  A    between atoms: C_9  and  C_10
REMARK    5  A    between atoms: C_18  and  C_19
REMARK                            x       y       z     vdW  Elec       q    Type
REMARK                         _______ _______ _______ _____ _____    ______ ____
ROOT
ATOM      1  O   UNL     1       3.484   5.261  20.132  0.00  0.00    +0.000 OA
ATOM      2  C   UNL     1       3.514   5.841  19.049  0.00  0.00    +0.000 C 
ATOM      3  N   UNL     1       4.239   5.399  17.968  0.00  0.00    +0.000 N 
ATOM      4  H   UNL     1       4.134   5.957  17.124  0.00  0.00    +0.000 HD
ENDROOT
BRANCH   2   5
ATOM      5  C   UNL     1       2.785   7.095  18.805  0.00  0.00    +0.000 A 
ATOM      6  C   UNL     1       1.886   7.712  19.704  0.00  0.00    +0.000 A 
ATOM      7  C   UNL     1       1.494   8.895  19.115  0.00  0.00    +0.000 A 
ATOM      8  N   UNL     1       2.118   8.892  17.892  0.00  0.00    +0.000 N 
ATOM      9  N   UNL     1       2.922   7.828  17.681  0.00  0.00    +0.000 NA
ATOM     10  H   UNL     1       2.067   9.605  17.174  0.00  0.00    +0.000 HD
BRANCH   7  11
ATOM     11  C   UNL     1       0.669   9.980  19.633  0.00  0.00    +0.000 A 
ATOM     12  C   UNL     1       0.567  10.158  21.024  0.00  0.00    +0.000 A 
ATOM     13  C   UNL     1      -0.209  11.188  21.559  0.00  0.00    +0.000 A 
ATOM     14  C   UNL     1      -0.886  12.043  20.703  0.00  0.00    +0.000 A 
ATOM     15  F   UNL     1      -1.631  13.032  21.212  0.00  0.00    +0.000 F 
ATOM     16  C   UNL     1      -0.803  11.883  19.325  0.00  0.00    +0.000 A 
ATOM     17  C   UNL     1      -0.028  10.855  18.786  0.00  0.00    +0.000 A 
ENDBRANCH   7  11
ENDBRANCH   2   5
BRANCH   3  18
ATOM     18  C   UNL     1       5.010   4.172  17.975  0.00  0.00    +0.000 C 
BRANCH  18  19
ATOM     19  C   UNL     1       6.087   4.163  16.880  0.00  0.00    +0.000 C 
ATOM     20  C   UNL     1       7.419   4.689  17.382  0.00  0.00    +0.000 C 
ATOM     21  C   UNL     1       7.261   6.185  17.251  0.00  0.00    +0.000 C 
ATOM     22  O   UNL     1       6.353   6.422  16.169  0.00  0.00    +0.000 OA
ATOM     23  C   UNL     1       5.742   5.176  15.773  0.00  0.00    +0.000 C 
BRANCH  23  24
ATOM     24  C   UNL     1       6.214   4.755  14.386  0.00  0.00    +0.000 A 
ATOM     25  C   UNL     1       7.359   5.303  13.785  0.00  0.00    +0.000 A 
ATOM     26  C   UNL     1       7.779   4.879  12.520  0.00  0.00    +0.000 A 
ATOM     27  C   UNL     1       7.052   3.913  11.830  0.00  0.00    +0.000 A 
ATOM     28  C   UNL     1       5.892   3.388  12.393  0.00  0.00    +0.000 A 
ATOM     29  C   UNL     1       5.473   3.810  13.657  0.00  0.00    +0.000 A 
ENDBRANCH  23  24
ENDBRANCH  18  19
ENDBRANCH   3  18
TORSDOF 5
ENDMDL
MODEL 8
REMARK VINA RESULT:      -8.4      7.570     10.024
REMARK  Name = 
REMARK  5 active torsions:
REMARK  status: ('A' for Active; 'I' for Inactive)
REMARK    1  A    between atoms: C_2  and  C_16
REMARK    2  A    between atoms: N_3  and  C_4
REMARK    3  A    between atoms: C_4  and  C_5
REMARK    4  A    between atoms: C_9  and  C_10
REMARK    5  A    between atoms: C_18  and  C_19
REMARK                            x       y       z     vdW  Elec       q    Type
REMARK                         _______ _______ _______ _____ _____    ______ ____
ROOT
ATOM      1  O   UNL     1       1.164  10.856  20.004  0.00  0.00    +0.000 OA
ATOM      2  C   UNL     1       0.849   9.946  19.242  0.00  0.00    +0.000 C 
ATOM      3  N   UNL     1      -0.237   9.999  18.400  0.00  0.00    +0.000 N 
ATOM      4  H   UNL     1      -0.349   9.189  17.795  0.00  0.00    +0.000 HD
ENDROOT
BRANCH   2   5
ATOM      5  C   UNL     1       1.599   8.683  19.169  0.00  0.00    +0.000 A 
ATOM      6  C   UNL     1       2.165   8.128  17.999  0.00  0.00    +0.000 A 
ATOM      7  C   UNL     1       2.837   6.991  18.392  0.00  0.00    +0.000 A 
ATOM      8  N   UNL     1       2.587   6.892  19.738  0.00  0.00    +0.000 N 
ATOM      9  N   UNL     1       1.859   7.910  20.244  0.00  0.00    +0.000 NA
ATOM     10  H   UNL     1       2.919   6.176  20.375  0.00  0.00    +0.000 HD
BRANCH   7  11
ATOM     11  C   UNL     1       3.692   6.088  17.629  0.00  0.00    +0.000 A 
ATOM     12  C   UNL     1       3.482   4.701  17.727  0.00  0.00    +0.000 A 
ATOM     13  C   UNL     1       4.276   3.805  17.009  0.00  0.00    +0.000 A 
ATOM     14  C   UNL     1       5.283   4.294  16.191  0.00  0.00    +0.000 A 
ATOM     15  F   UNL     1       6.047   3.437  15.501  0.00  0.00    +0.000 F 
ATOM     16  C   UNL     1       5.511   5.661  16.084  0.00  0.00    +0.000 A 
ATOM     17  C   UNL     1       4.720   6.560  16.799  0.00  0.00    +0.000 A 
ENDBRANCH   7  11
ENDBRANCH   2   5
BRANCH   3  18
ATOM     18  C   UNL     1      -1.100  11.156  18.287  0.00  0.00    +0.000 C 
BRANCH  18  19
ATOM     19  C   UNL     1      -2.586  10.775  18.358  0.00  0.00    +0.000 C 
ATOM     20  C   UNL     1      -2.888   9.501  17.589  0.00  0.00    +0.000 C 
ATOM     21  C   UNL     1      -3.055   9.995  16.171  0.00  0.00    +0.000 C 
ATOM     22  O   UNL     1      -3.535  11.342  16.246  0.00  0.00    +0.000 OA
ATOM     23  C   UNL     1      -3.447  11.809  17.610  0.00  0.00    +0.000 C 
BRANCH  23  24
ATOM     24  C   UNL     1      -4.835  12.002  18.209  0.00  0.00    +0.000 A 
ATOM     25  C   UNL     1      -5.986  12.122  17.413  0.00  0.00    +0.000 A 
ATOM     26  C   UNL     1      -7.248  12.276  17.995  0.00  0.00    +0.000 A 
ATOM     27  C   UNL     1      -7.378  12.329  19.380  0.00  0.00    +0.000 A 
ATOM     28  C   UNL     1      -6.243  12.252  20.183  0.00  0.00    +0.000 A 
ATOM     29  C   UNL     1      -4.983  12.097  19.603  0.00  0.00    +0.000 A 
ENDBRANCH  23  24
ENDBRANCH  18  19
ENDBRANCH   3  18
TORSDOF 5
ENDMDL
MODEL 9
REMARK VINA RESULT:      -8.4      6.890      9.372
REMARK  Name = 
REMARK  5 active torsions:
REMARK  status: ('A' for Active; 'I' for Inactive)
REMARK    1  A    between atoms: C_2  and  C_16
REMARK    2  A    between atoms: N_3  and  C_4
REMARK    3  A    between atoms: C_4  and  C_5
REMARK    4  A    between atoms: C_9  and  C_10
REMARK    5  A    between atoms: C_18  and  C_19
REMARK                            x       y       z     vdW  Elec       q    Type
REMARK                         _______ _______ _______ _____ _____    ______ ____
ROOT
ATOM      1  O   UNL     1       0.354   9.314  21.498  0.00  0.00    +0.000 OA
ATOM      2  C   UNL     1       1.039   9.282  20.479  0.00  0.00    +0.000 C 
ATOM      3  N   UNL     1       1.240  10.369  19.661  0.00  0.00    +0.000 N 
ATOM      4  H   UNL     1       1.866  10.205  18.876  0.00  0.00    +0.000 HD
ENDROOT
BRANCH   2   5
ATOM      5  C   UNL     1       1.703   8.055  20.013  0.00  0.00    +0.000 A 
ATOM      6  C   UNL     1       2.297   7.873  18.744  0.00  0.00    +0.000 A 
ATOM      7  C   UNL     1       2.866   6.617  18.756  0.00  0.00    +0.000 A 
ATOM      8  N   UNL     1       2.532   6.101  19.983  0.00  0.00    +0.000 N 
ATOM      9  N   UNL     1       1.847   6.952  20.776  0.00  0.00    +0.000 NA
ATOM     10  H   UNL     1       2.776   5.190  20.355  0.00  0.00    +0.000 HD
BRANCH   7  11
ATOM     11  C   UNL     1       3.700   5.948  17.763  0.00  0.00    +0.000 A 
ATOM     12  C   UNL     1       3.632   4.549  17.644  0.00  0.00    +0.000 A 
ATOM     13  C   UNL     1       4.411   3.872  16.704  0.00  0.00    +0.000 A 
ATOM     14  C   UNL     1       5.260   4.594  15.879  0.00  0.00    +0.000 A 
ATOM     15  F   UNL     1       6.008   3.949  14.976  0.00  0.00    +0.000 F 
ATOM     16  C   UNL     1       5.346   5.978  15.983  0.00  0.00    +0.000 A 
ATOM     17  C   UNL     1       4.569   6.658  16.922  0.00  0.00    +0.000 A 
ENDBRANCH   7  11
ENDBRANCH   2   5
BRANCH   3  18
ATOM     18  C   UNL     1       0.702  11.685  19.941  0.00  0.00    +0.000 C 
BRANCH  18  19
ATOM     19  C   UNL     1      -0.371  12.096  18.921  0.00  0.00    +0.000 C 
ATOM     20  C   UNL     1      -0.816  13.535  19.108  0.00  0.00    +0.000 C 
ATOM     21  C   UNL     1      -1.855  13.428  20.198  0.00  0.00    +0.000 C 
ATOM     22  O   UNL     1      -2.446  12.128  20.094  0.00  0.00    +0.000 OA
ATOM     23  C   UNL     1      -1.679  11.325  19.171  0.00  0.00    +0.000 C 
BRANCH  23  24
ATOM     24  C   UNL     1      -2.477  11.041  17.904  0.00  0.00    +0.000 A 
ATOM     25  C   UNL     1      -1.968  10.258  16.855  0.00  0.00    +0.000 A 
ATOM     26  C   UNL     1      -2.734   9.998  15.715  0.00  0.00    +0.000 A 
ATOM     27  C   UNL     1      -4.015  10.532  15.597  0.00  0.00    +0.000 A 
ATOM     28  C   UNL     1      -4.520  11.344  16.608  0.00  0.00    +0.000 A 
ATOM     29  C   UNL     1      -3.756  11.603  17.748  0.00  0.00    +0.000 A 
ENDBRANCH  23  24
ENDBRANCH  18  19
ENDBRANCH   3  18
TORSDOF 5
ENDMDL
