MODEL 1
REMARK VINA RESULT:      -8.4      0.000      0.000
REMARK  Name = 
REMARK  8 active torsions:
REMARK  status: ('A' for Active; 'I' for Inactive)
REMARK    1  A    between atoms: C_1  and  C_2
REMARK    2  A    between atoms: C_2  and  C_3
REMARK    3  A    between atoms: C_2  and  C_4
REMARK    4  A    between atoms: C_8  and  N_9
REMARK    5  A    between atoms: C_14  and  C_15
REMARK    6  A    between atoms: C_15  and  C_16
REMARK    7  A    between atoms: C_16  and  C_17
REMARK    8  A    between atoms: C_20  and  C_21
REMARK                            x       y       z     vdW  Elec       q    Type
REMARK                         _______ _______ _______ _____ _____    ______ ____
ROOT
ATOM      1  N   UNL     1       3.851   4.936  19.215  0.00  0.00    +0.000 N 
ATOM      2  C   UNL     1       5.218   5.477  19.327  0.00  0.00    +0.000 C 
ATOM      3  C   UNL     1       5.775   5.223  17.958  0.00  0.00    +0.000 A 
ATOM      4  C   UNL     1       5.089   4.142  17.422  0.00  0.00    +0.000 A 
ATOM      5  C   UNL     1       5.255   3.694  16.128  0.00  0.00    +0.000 A 
ATOM      6  C   UNL     1       6.149   4.391  15.307  0.00  0.00    +0.000 A 
ATOM      7  C   UNL     1       6.857   5.496  15.848  0.00  0.00    +0.000 A 
ATOM      8  C   UNL     1       6.674   5.937  17.180  0.00  0.00    +0.000 A 
ATOM      9  C   UNL     1       3.922   3.854  18.298  0.00  0.00    +0.000 C 
ATOM     10  O   UNL     1       3.117   2.971  18.085  0.00  0.00    +0.000 OA
ENDROOT
BRANCH   1  15
ATOM     11  C   UNL     1       1.854   7.936  19.875  0.00  0.00    +0.000 A 
ATOM     12  C   UNL     1       2.173   8.663  18.718  0.00  0.00    +0.000 A 
ATOM     13  C   UNL     1       2.699   8.021  17.599  0.00  0.00    +0.000 A 
ATOM     14  C   UNL     1       3.016   6.669  17.659  0.00  0.00    +0.000 A 
ATOM     15  C   UNL     1       2.905   5.986  18.879  0.00  0.00    +0.000 A 
ATOM     16  C   UNL     1       2.195   6.578  19.928  0.00  0.00    +0.000 A 
BRANCH  11  18
ATOM     17  C   UNL     1       0.975  10.111  20.712  0.00  0.00    +0.000 C 
ATOM     18  C   UNL     1       1.194   8.636  21.045  0.00  0.00    +0.000 C 
ATOM     19  C   UNL     1      -0.116   7.964  21.471  0.00  0.00    +0.000 C 
ENDBRANCH  11  18
ENDBRANCH   1  15
BRANCH   8  20
ATOM     20  C   UNL     1       7.367   7.192  17.650  0.00  0.00    +0.000 C 
ATOM     21  F   UNL     1       6.525   8.228  17.919  0.00  0.00    +0.000 F 
ATOM     22  F   UNL     1       8.078   6.993  18.794  0.00  0.00    +0.000 F 
ATOM     23  F   UNL     1       8.257   7.667  16.735  0.00  0.00    +0.000 F 
ENDBRANCH   8  20
BRANCH   6  24
ATOM     24  C   UNL     1       6.370   4.004  13.859  0.00  0.00    +0.000 C 
BRANCH  24  25
ATOM     25  C   UNL     1       5.097   3.687  13.068  0.00  0.00    +0.000 C 
BRANCH  25  26
ATOM     26  C   UNL     1       5.446   2.971  11.794  0.00  0.00    +0.000 C 
ATOM     27  N   UNL     1       6.036   1.824  11.765  0.00  0.00    +0.000 NA
ATOM     28  H   UNL     1       6.231   1.479  12.711  0.00  0.00    +0.000 HD
ENDBRANCH  25  26
ENDBRANCH  24  25
ENDBRANCH   6  24
TORSDOF 6
ENDMDL
MODEL 2
REMARK VINA RESULT:      -8.1      0.383      1.007
REMARK  Name = 
REMARK  8 active torsions:
REMARK  status: ('A' for Active; 'I' for Inactive)
REMARK    1  A    between atoms: C_1  and  C_2
REMARK    2  A    between atoms: C_2  and  C_3
REMARK    3  A    between atoms: C_2  and  C_4
REMARK    4  A    between atoms: C_8  and  N_9
REMARK    5  A    between atoms: C_14  and  C_15
REMARK    6  A    between atoms: C_15  and  C_16
REMARK    7  A    between atoms: C_16  and  C_17
REMARK    8  A    between atoms: C_20  and  C_21
REMARK                            x       y       z     vdW  Elec       q    Type
REMARK                         _______ _______ _______ _____ _____    ______ ____
ROOT
ATOM      1  N   UNL     1       3.709   5.185  19.211  0.00  0.00    +0.000 N 
ATOM      2  C   UNL     1       5.093   5.675  19.341  0.00  0.00    +0.000 C 
ATOM      3  C   UNL     1       5.680   5.330  18.005  0.00  0.00    +0.000 A 
ATOM      4  C   UNL     1       4.967   4.252  17.501  0.00  0.00    +0.000 A 
ATOM      5  C   UNL     1       5.154   3.733  16.237  0.00  0.00    +0.000 A 
ATOM      6  C   UNL     1       6.101   4.351  15.412  0.00  0.00    +0.000 A 
ATOM      7  C   UNL     1       6.837   5.452  15.921  0.00  0.00    +0.000 A 
ATOM      8  C   UNL     1       6.633   5.967  17.223  0.00  0.00    +0.000 A 
ATOM      9  C   UNL     1       3.762   4.056  18.351  0.00  0.00    +0.000 C 
ATOM     10  O   UNL     1       2.928   3.196  18.156  0.00  0.00    +0.000 OA
ENDROOT
BRANCH   1  15
ATOM     11  C   UNL     1       1.682   8.196  19.705  0.00  0.00    +0.000 A 
ATOM     12  C   UNL     1       2.138   8.943  18.607  0.00  0.00    +0.000 A 
ATOM     13  C   UNL     1       2.780   8.317  17.542  0.00  0.00    +0.000 A 
ATOM     14  C   UNL     1       3.074   6.959  17.609  0.00  0.00    +0.000 A 
ATOM     15  C   UNL     1       2.818   6.254  18.792  0.00  0.00    +0.000 A 
ATOM     16  C   UNL     1       2.000   6.833  19.767  0.00  0.00    +0.000 A 
BRANCH  11  18
ATOM     17  C   UNL     1       1.635   8.724  22.140  0.00  0.00    +0.000 C 
ATOM     18  C   UNL     1       0.900   8.881  20.808  0.00  0.00    +0.000 C 
ATOM     19  C   UNL     1       0.619  10.356  20.503  0.00  0.00    +0.000 C 
ENDBRANCH  11  18
ENDBRANCH   1  15
BRANCH   8  20
ATOM     20  C   UNL     1       7.362   7.216  17.653  0.00  0.00    +0.000 C 
ATOM     21  F   UNL     1       8.273   7.670  16.749  0.00  0.00    +0.000 F 
ATOM     22  F   UNL     1       6.515   8.259  17.874  0.00  0.00    +0.000 F 
ATOM     23  F   UNL     1       8.051   7.041  18.815  0.00  0.00    +0.000 F 
ENDBRANCH   8  20
BRANCH   6  24
ATOM     24  C   UNL     1       6.350   3.882  13.993  0.00  0.00    +0.000 C 
BRANCH  24  25
ATOM     25  C   UNL     1       5.108   3.826  13.099  0.00  0.00    +0.000 C 
BRANCH  25  26
ATOM     26  C   UNL     1       5.385   2.985  11.885  0.00  0.00    +0.000 C 
ATOM     27  N   UNL     1       6.264   2.041  11.863  0.00  0.00    +0.000 NA
ATOM     28  H   UNL     1       6.738   1.948  12.768  0.00  0.00    +0.000 HD
ENDBRANCH  25  26
ENDBRANCH  24  25
ENDBRANCH   6  24
TORSDOF 6
ENDMDL
MODEL 3
REMARK VINA RESULT:      -7.9      1.145      1.459
REMARK  Name = 
REMARK  8 active torsions:
REMARK  status: ('A' for Active; 'I' for Inactive)
REMARK    1  A    between atoms: C_1  and  C_2
REMARK    2  A    between atoms: C_2  and  C_3
REMARK    3  A    between atoms: C_2  and  C_4
REMARK    4  A    between atoms: C_8  and  N_9
REMARK    5  A    between atoms: C_14  and  C_15
REMARK    6  A    between atoms: C_15  and  C_16
REMARK    7  A    between atoms: C_16  and  C_17
REMARK    8  A    between atoms: C_20  and  C_21
REMARK                            x       y       z     vdW  Elec       q    Type
REMARK                         _______ _______ _______ _____ _____    ______ ____
ROOT
ATOM      1  N   UNL     1       3.495   5.007  19.303  0.00  0.00    +0.000 N 
ATOM      2  C   UNL     1       4.899   5.457  19.352  0.00  0.00    +0.000 C 
ATOM      3  C   UNL     1       5.361   5.214  17.946  0.00  0.00    +0.000 A 
ATOM      4  C   UNL     1       4.579   4.196  17.419  0.00  0.00    +0.000 A 
ATOM      5  C   UNL     1       4.643   3.782  16.105  0.00  0.00    +0.000 A 
ATOM      6  C   UNL     1       5.534   4.449  15.255  0.00  0.00    +0.000 A 
ATOM      7  C   UNL     1       6.340   5.488  15.787  0.00  0.00    +0.000 A 
ATOM      8  C   UNL     1       6.261   5.895  17.140  0.00  0.00    +0.000 A 
ATOM      9  C   UNL     1       3.445   3.954  18.351  0.00  0.00    +0.000 C 
ATOM     10  O   UNL     1       2.575   3.131  18.159  0.00  0.00    +0.000 OA
ENDROOT
BRANCH   1  15
ATOM     11  C   UNL     1       1.672   8.058  20.191  0.00  0.00    +0.000 A 
ATOM     12  C   UNL     1       2.012   8.842  19.077  0.00  0.00    +0.000 A 
ATOM     13  C   UNL     1       2.486   8.248  17.910  0.00  0.00    +0.000 A 
ATOM     14  C   UNL     1       2.731   6.879  17.877  0.00  0.00    +0.000 A 
ATOM     15  C   UNL     1       2.602   6.125  19.052  0.00  0.00    +0.000 A 
ATOM     16  C   UNL     1       1.940   6.684  20.150  0.00  0.00    +0.000 A 
BRANCH  11  18
ATOM     17  C   UNL     1       1.070  10.233  21.246  0.00  0.00    +0.000 C 
ATOM     18  C   UNL     1       1.067   8.714  21.416  0.00  0.00    +0.000 C 
ATOM     19  C   UNL     1      -0.340   8.194  21.729  0.00  0.00    +0.000 C 
ENDBRANCH  11  18
ENDBRANCH   1  15
BRANCH   8  20
ATOM     20  C   UNL     1       7.058   7.088  17.606  0.00  0.00    +0.000 C 
ATOM     21  F   UNL     1       7.996   7.516  16.717  0.00  0.00    +0.000 F 
ATOM     22  F   UNL     1       6.270   8.171  17.853  0.00  0.00    +0.000 F 
ATOM     23  F   UNL     1       7.731   6.843  18.765  0.00  0.00    +0.000 F 
ENDBRANCH   8  20
BRANCH   6  24
ATOM     24  C   UNL     1       5.649   4.096  13.786  0.00  0.00    +0.000 C 
BRANCH  24  25
ATOM     25  C   UNL     1       7.079   3.899  13.274  0.00  0.00    +0.000 C 
BRANCH  25  26
ATOM     26  C   UNL     1       7.561   5.149  12.594  0.00  0.00    +0.000 C 
ATOM     27  N   UNL     1       8.551   5.853  13.027  0.00  0.00    +0.000 NA
ATOM     28  H   UNL     1       8.953   5.451  13.881  0.00  0.00    +0.000 HD
ENDBRANCH  25  26
ENDBRANCH  24  25
ENDBRANCH   6  24
TORSDOF 6
ENDMDL
MODEL 4
REMARK VINA RESULT:      -7.7      2.823      5.994
REMARK  Name = 
REMARK  8 active torsions:
REMARK  status: ('A' for Active; 'I' for Inactive)
REMARK    1  A    between atoms: C_1  and  C_2
REMARK    2  A    between atoms: C_2  and  C_3
REMARK    3  A    between atoms: C_2  and  C_4
REMARK    4  A    between atoms: C_8  and  N_9
REMARK    5  A    between atoms: C_14  and  C_15
REMARK    6  A    between atoms: C_15  and  C_16
REMARK    7  A    between atoms: C_16  and  C_17
REMARK    8  A    between atoms: C_20  and  C_21
REMARK                            x       y       z     vdW  Elec       q    Type
REMARK                         _______ _______ _______ _____ _____    ______ ____
ROOT
ATOM      1  N   UNL     1       6.074   5.604  15.779  0.00  0.00    +0.000 N 
ATOM      2  C   UNL     1       4.917   6.499  15.969  0.00  0.00    +0.000 C 
ATOM      3  C   UNL     1       4.018   5.678  16.844  0.00  0.00    +0.000 A 
ATOM      4  C   UNL     1       4.313   4.342  16.610  0.00  0.00    +0.000 A 
ATOM      5  C   UNL     1       3.761   3.299  17.323  0.00  0.00    +0.000 A 
ATOM      6  C   UNL     1       2.871   3.615  18.357  0.00  0.00    +0.000 A 
ATOM      7  C   UNL     1       2.561   4.978  18.600  0.00  0.00    +0.000 A 
ATOM      8  C   UNL     1       3.136   6.034  17.854  0.00  0.00    +0.000 A 
ATOM      9  C   UNL     1       5.563   4.279  15.805  0.00  0.00    +0.000 C 
ATOM     10  O   UNL     1       6.088   3.244  15.452  0.00  0.00    +0.000 OA
ENDROOT
BRANCH   1  15
ATOM     11  C   UNL     1       8.062   7.775  17.960  0.00  0.00    +0.000 A 
ATOM     12  C   UNL     1       8.001   7.011  19.135  0.00  0.00    +0.000 A 
ATOM     13  C   UNL     1       7.661   5.661  19.086  0.00  0.00    +0.000 A 
ATOM     14  C   UNL     1       7.271   5.086  17.882  0.00  0.00    +0.000 A 
ATOM     15  C   UNL     1       7.118   5.895  16.747  0.00  0.00    +0.000 A 
ATOM     16  C   UNL     1       7.649   7.188  16.756  0.00  0.00    +0.000 A 
BRANCH  11  18
ATOM     17  C   UNL     1       7.400  10.146  17.571  0.00  0.00    +0.000 C 
ATOM     18  C   UNL     1       8.526   9.216  18.023  0.00  0.00    +0.000 C 
ATOM     19  C   UNL     1       9.045   9.609  19.410  0.00  0.00    +0.000 C 
ENDBRANCH  11  18
ENDBRANCH   1  15
BRANCH   8  20
ATOM     20  C   UNL     1       2.856   7.463  18.248  0.00  0.00    +0.000 C 
ATOM     21  F   UNL     1       2.561   7.631  19.567  0.00  0.00    +0.000 F 
ATOM     22  F   UNL     1       3.915   8.283  18.003  0.00  0.00    +0.000 F 
ATOM     23  F   UNL     1       1.805   7.994  17.563  0.00  0.00    +0.000 F 
ENDBRANCH   8  20
BRANCH   6  24
ATOM     24  C   UNL     1       2.243   2.543  19.224  0.00  0.00    +0.000 C 
BRANCH  24  25
ATOM     25  C   UNL     1       1.158   3.037  20.185  0.00  0.00    +0.000 C 
BRANCH  25  26
ATOM     26  C   UNL     1       1.758   3.336  21.530  0.00  0.00    +0.000 C 
ATOM     27  N   UNL     1       2.488   2.496  22.182  0.00  0.00    +0.000 NA
ATOM     28  H   UNL     1       2.598   1.615  21.668  0.00  0.00    +0.000 HD
ENDBRANCH  25  26
ENDBRANCH  24  25
ENDBRANCH   6  24
TORSDOF 6
ENDMDL
MODEL 5
REMARK VINA RESULT:      -7.7      4.410      8.024
REMARK  Name = 
REMARK  8 active torsions:
REMARK  status: ('A' for Active; 'I' for Inactive)
REMARK    1  A    between atoms: C_1  and  C_2
REMARK    2  A    between atoms: C_2  and  C_3
REMARK    3  A    between atoms: C_2  and  C_4
REMARK    4  A    between atoms: C_8  and  N_9
REMARK    5  A    between atoms: C_14  and  C_15
REMARK    6  A    between atoms: C_15  and  C_16
REMARK    7  A    between atoms: C_16  and  C_17
REMARK    8  A    between atoms: C_20  and  C_21
REMARK                            x       y       z     vdW  Elec       q    Type
REMARK                         _______ _______ _______ _____ _____    ______ ____
ROOT
ATOM      1  N   UNL     1       2.576   7.640  19.415  0.00  0.00    +0.000 N 
ATOM      2  C   UNL     1       2.205   8.386  20.631  0.00  0.00    +0.000 C 
ATOM      3  C   UNL     1       1.021   9.182  20.170  0.00  0.00    +0.000 A 
ATOM      4  C   UNL     1       1.145   9.360  18.799  0.00  0.00    +0.000 A 
ATOM      5  C   UNL     1       0.179   9.949  18.012  0.00  0.00    +0.000 A 
ATOM      6  C   UNL     1      -1.003  10.367  18.635  0.00  0.00    +0.000 A 
ATOM      7  C   UNL     1      -1.137  10.193  20.037  0.00  0.00    +0.000 A 
ATOM      8  C   UNL     1      -0.131   9.588  20.827  0.00  0.00    +0.000 A 
ATOM      9  C   UNL     1       2.239   8.474  18.316  0.00  0.00    +0.000 C 
ATOM     10  O   UNL     1       2.579   8.392  17.154  0.00  0.00    +0.000 OA
ENDROOT
BRANCH   1  15
ATOM     11  C   UNL     1       2.399   4.075  18.590  0.00  0.00    +0.000 A 
ATOM     12  C   UNL     1       2.071   3.578  19.861  0.00  0.00    +0.000 A 
ATOM     13  C   UNL     1       1.545   4.420  20.837  0.00  0.00    +0.000 A 
ATOM     14  C   UNL     1       1.442   5.785  20.596  0.00  0.00    +0.000 A 
ATOM     15  C   UNL     1       1.970   6.319  19.412  0.00  0.00    +0.000 A 
ATOM     16  C   UNL     1       2.307   5.455  18.366  0.00  0.00    +0.000 A 
BRANCH  11  18
ATOM     17  C   UNL     1       4.082   3.729  16.786  0.00  0.00    +0.000 C 
ATOM     18  C   UNL     1       2.879   3.125  17.511  0.00  0.00    +0.000 C 
ATOM     19  C   UNL     1       3.205   1.731  18.056  0.00  0.00    +0.000 C 
ENDBRANCH  11  18
ENDBRANCH   1  15
BRANCH   8  20
ATOM     20  C   UNL     1      -0.392   9.323  22.289  0.00  0.00    +0.000 C 
ATOM     21  F   UNL     1       0.722   9.353  23.071  0.00  0.00    +0.000 F 
ATOM     22  F   UNL     1      -1.246  10.232  22.835  0.00  0.00    +0.000 F 
ATOM     23  F   UNL     1      -0.960   8.103  22.502  0.00  0.00    +0.000 F 
ENDBRANCH   8  20
BRANCH   6  24
ATOM     24  C   UNL     1      -2.141  10.989  17.851  0.00  0.00    +0.000 C 
BRANCH  24  25
ATOM     25  C   UNL     1      -3.096   9.991  17.189  0.00  0.00    +0.000 C 
BRANCH  25  26
ATOM     26  C   UNL     1      -3.049  10.145  15.696  0.00  0.00    +0.000 C 
ATOM     27  N   UNL     1      -3.246  11.269  15.093  0.00  0.00    +0.000 NA
ATOM     28  H   UNL     1      -3.437  12.024  15.761  0.00  0.00    +0.000 HD
ENDBRANCH  25  26
ENDBRANCH  24  25
ENDBRANCH   6  24
TORSDOF 6
ENDMDL
MODEL 6
REMARK VINA RESULT:      -7.7      1.014      1.393
REMARK  Name = 
REMARK  8 active torsions:
REMARK  status: ('A' for Active; 'I' for Inactive)
REMARK    1  A    between atoms: C_1  and  C_2
REMARK    2  A    between atoms: C_2  and  C_3
REMARK    3  A    between atoms: C_2  and  C_4
REMARK    4  A    between atoms: C_8  and  N_9
REMARK    5  A    between atoms: C_14  and  C_15
REMARK    6  A    between atoms: C_15  and  C_16
REMARK    7  A    between atoms: C_16  and  C_17
REMARK    8  A    between atoms: C_20  and  C_21
REMARK                            x       y       z     vdW  Elec       q    Type
REMARK                         _______ _______ _______ _____ _____    ______ ____
ROOT
ATOM      1  N   UNL     1       3.043   4.148  18.876  0.00  0.00    +0.000 N 
ATOM      2  C   UNL     1       4.426   4.265  19.373  0.00  0.00    +0.000 C 
ATOM      3  C   UNL     1       5.221   4.300  18.103  0.00  0.00    +0.000 A 
ATOM      4  C   UNL     1       4.483   3.639  17.130  0.00  0.00    +0.000 A 
ATOM      5  C   UNL     1       4.851   3.572  15.803  0.00  0.00    +0.000 A 
ATOM      6  C   UNL     1       6.024   4.233  15.418  0.00  0.00    +0.000 A 
ATOM      7  C   UNL     1       6.786   4.908  16.406  0.00  0.00    +0.000 A 
ATOM      8  C   UNL     1       6.392   4.961  17.765  0.00  0.00    +0.000 A 
ATOM      9  C   UNL     1       3.114   3.409  17.665  0.00  0.00    +0.000 C 
ATOM     10  O   UNL     1       2.227   2.865  17.042  0.00  0.00    +0.000 OA
ENDROOT
BRANCH   1  15
ATOM     11  C   UNL     1       1.720   7.296  20.203  0.00  0.00    +0.000 A 
ATOM     12  C   UNL     1       2.344   8.183  19.311  0.00  0.00    +0.000 A 
ATOM     13  C   UNL     1       2.848   7.727  18.095  0.00  0.00    +0.000 A 
ATOM     14  C   UNL     1       2.836   6.368  17.803  0.00  0.00    +0.000 A 
ATOM     15  C   UNL     1       2.414   5.455  18.780  0.00  0.00    +0.000 A 
ATOM     16  C   UNL     1       1.730   5.928  19.904  0.00  0.00    +0.000 A 
BRANCH  11  18
ATOM     17  C   UNL     1       1.812   9.102  21.917  0.00  0.00    +0.000 C 
ATOM     18  C   UNL     1       1.093   7.827  21.476  0.00  0.00    +0.000 C 
ATOM     19  C   UNL     1      -0.415   8.063  21.336  0.00  0.00    +0.000 C 
ENDBRANCH  11  18
ENDBRANCH   1  15
BRANCH   8  20
ATOM     20  C   UNL     1       7.184   5.799  18.737  0.00  0.00    +0.000 C 
ATOM     21  F   UNL     1       8.438   5.331  18.987  0.00  0.00    +0.000 F 
ATOM     22  F   UNL     1       7.353   7.077  18.299  0.00  0.00    +0.000 F 
ATOM     23  F   UNL     1       6.577   5.898  19.952  0.00  0.00    +0.000 F 
ENDBRANCH   8  20
BRANCH   6  24
ATOM     24  C   UNL     1       6.491   4.253  13.977  0.00  0.00    +0.000 C 
BRANCH  24  25
ATOM     25  C   UNL     1       5.522   3.628  12.969  0.00  0.00    +0.000 C 
BRANCH  25  26
ATOM     26  C   UNL     1       6.284   2.838  11.943  0.00  0.00    +0.000 C 
ATOM     27  N   UNL     1       5.940   1.655  11.562  0.00  0.00    +0.000 NA
ATOM     28  H   UNL     1       5.095   1.334  12.048  0.00  0.00    +0.000 HD
ENDBRANCH  25  26
ENDBRANCH  24  25
ENDBRANCH   6  24
TORSDOF 6
ENDMDL
MODEL 7
REMARK VINA RESULT:      -7.5      2.837      6.028
REMARK  Name = 
REMARK  8 active torsions:
REMARK  status: ('A' for Active; 'I' for Inactive)
REMARK    1  A    between atoms: C_1  and  C_2
REMARK    2  A    between atoms: C_2  and  C_3
REMARK    3  A    between atoms: C_2  and  C_4
REMARK    4  A    between atoms: C_8  and  N_9
REMARK    5  A    between atoms: C_14  and  C_15
REMARK    6  A    between atoms: C_15  and  C_16
REMARK    7  A    between atoms: C_16  and  C_17
REMARK    8  A    between atoms: C_20  and  C_21
REMARK                            x       y       z     vdW  Elec       q    Type
REMARK                         _______ _______ _______ _____ _____    ______ ____
ROOT
ATOM      1  N   UNL     1       6.137   5.589  15.728  0.00  0.00    +0.000 N 
ATOM      2  C   UNL     1       4.953   6.443  15.932  0.00  0.00    +0.000 C 
ATOM      3  C   UNL     1       4.100   5.598  16.830  0.00  0.00    +0.000 A 
ATOM      4  C   UNL     1       4.440   4.272  16.603  0.00  0.00    +0.000 A 
ATOM      5  C   UNL     1       3.939   3.216  17.335  0.00  0.00    +0.000 A 
ATOM      6  C   UNL     1       3.057   3.509  18.382  0.00  0.00    +0.000 A 
ATOM      7  C   UNL     1       2.702   4.862  18.619  0.00  0.00    +0.000 A 
ATOM      8  C   UNL     1       3.225   5.931  17.853  0.00  0.00    +0.000 A 
ATOM      9  C   UNL     1       5.676   4.246  15.775  0.00  0.00    +0.000 C 
ATOM     10  O   UNL     1       6.232   3.228  15.421  0.00  0.00    +0.000 OA
ENDROOT
BRANCH   1  15
ATOM     11  C   UNL     1       7.843   7.729  18.164  0.00  0.00    +0.000 A 
ATOM     12  C   UNL     1       8.049   6.778  19.176  0.00  0.00    +0.000 A 
ATOM     13  C   UNL     1       7.985   5.416  18.893  0.00  0.00    +0.000 A 
ATOM     14  C   UNL     1       7.607   4.987  17.625  0.00  0.00    +0.000 A 
ATOM     15  C   UNL     1       7.188   5.927  16.673  0.00  0.00    +0.000 A 
ATOM     16  C   UNL     1       7.446   7.283  16.896  0.00  0.00    +0.000 A 
BRANCH  11  18
ATOM     17  C   UNL     1       9.343   9.436  19.186  0.00  0.00    +0.000 C 
ATOM     18  C   UNL     1       8.012   9.203  18.470  0.00  0.00    +0.000 C 
ATOM     19  C   UNL     1       7.895  10.082  17.221  0.00  0.00    +0.000 C 
ENDBRANCH  11  18
ENDBRANCH   1  15
BRANCH   8  20
ATOM     20  C   UNL     1       2.900   7.352  18.240  0.00  0.00    +0.000 C 
ATOM     21  F   UNL     1       3.884   8.248  17.956  0.00  0.00    +0.000 F 
ATOM     22  F   UNL     1       1.788   7.819  17.608  0.00  0.00    +0.000 F 
ATOM     23  F   UNL     1       2.654   7.484  19.574  0.00  0.00    +0.000 F 
ENDBRANCH   8  20
BRANCH   6  24
ATOM     24  C   UNL     1       2.485   2.423  19.271  0.00  0.00    +0.000 C 
BRANCH  24  25
ATOM     25  C   UNL     1       1.204   2.802  20.019  0.00  0.00    +0.000 C 
BRANCH  25  26
ATOM     26  C   UNL     1       1.482   2.919  21.491  0.00  0.00    +0.000 C 
ATOM     27  N   UNL     1       2.599   2.565  22.031  0.00  0.00    +0.000 NA
ATOM     28  H   UNL     1       3.254   2.199  21.332  0.00  0.00    +0.000 HD
ENDBRANCH  25  26
ENDBRANCH  24  25
ENDBRANCH   6  24
TORSDOF 6
ENDMDL
MODEL 8
REMARK VINA RESULT:      -7.4      4.390      8.292
REMARK  Name = 
REMARK  8 active torsions:
REMARK  status: ('A' for Active; 'I' for Inactive)
REMARK    1  A    between atoms: C_1  and  C_2
REMARK    2  A    between atoms: C_2  and  C_3
REMARK    3  A    between atoms: C_2  and  C_4
REMARK    4  A    between atoms: C_8  and  N_9
REMARK    5  A    between atoms: C_14  and  C_15
REMARK    6  A    between atoms: C_15  and  C_16
REMARK    7  A    between atoms: C_16  and  C_17
REMARK    8  A    between atoms: C_20  and  C_21
REMARK                            x       y       z     vdW  Elec       q    Type
REMARK                         _______ _______ _______ _____ _____    ______ ____
ROOT
ATOM      1  N   UNL     1       2.645   7.530  19.398  0.00  0.00    +0.000 N 
ATOM      2  C   UNL     1       2.243   8.309  20.584  0.00  0.00    +0.000 C 
ATOM      3  C   UNL     1       1.096   9.121  20.060  0.00  0.00    +0.000 A 
ATOM      4  C   UNL     1       1.278   9.267  18.692  0.00  0.00    +0.000 A 
ATOM      5  C   UNL     1       0.357   9.861  17.855  0.00  0.00    +0.000 A 
ATOM      6  C   UNL     1      -0.839  10.317  18.422  0.00  0.00    +0.000 A 
ATOM      7  C   UNL     1      -1.031  10.175  19.821  0.00  0.00    +0.000 A 
ATOM      8  C   UNL     1      -0.071   9.566  20.663  0.00  0.00    +0.000 A 
ATOM      9  C   UNL     1       2.370   8.348  18.270  0.00  0.00    +0.000 C 
ATOM     10  O   UNL     1       2.753   8.233  17.124  0.00  0.00    +0.000 OA
ENDROOT
BRANCH   1  15
ATOM     11  C   UNL     1       2.401   3.962  18.604  0.00  0.00    +0.000 A 
ATOM     12  C   UNL     1       2.043   3.484  19.875  0.00  0.00    +0.000 A 
ATOM     13  C   UNL     1       1.521   4.347  20.835  0.00  0.00    +0.000 A 
ATOM     14  C   UNL     1       1.452   5.712  20.579  0.00  0.00    +0.000 A 
ATOM     15  C   UNL     1       2.009   6.223  19.398  0.00  0.00    +0.000 A 
ATOM     16  C   UNL     1       2.343   5.341  18.366  0.00  0.00    +0.000 A 
BRANCH  11  18
ATOM     17  C   UNL     1       4.008   3.624  16.730  0.00  0.00    +0.000 C 
ATOM     18  C   UNL     1       2.877   2.992  17.542  0.00  0.00    +0.000 C 
ATOM     19  C   UNL     1       3.304   1.641  18.126  0.00  0.00    +0.000 C 
ENDBRANCH  11  18
ENDBRANCH   1  15
BRANCH   8  20
ATOM     20  C   UNL     1      -0.395   9.337  22.118  0.00  0.00    +0.000 C 
ATOM     21  F   UNL     1      -0.970   8.132  22.380  0.00  0.00    +0.000 F 
ATOM     22  F   UNL     1       0.712   9.393  22.909  0.00  0.00    +0.000 F 
ATOM     23  F   UNL     1      -1.254  10.272  22.612  0.00  0.00    +0.000 F 
ENDBRANCH   8  20
BRANCH   6  24
ATOM     24  C   UNL     1      -1.931  10.946  17.581  0.00  0.00    +0.000 C 
BRANCH  24  25
ATOM     25  C   UNL     1      -3.292  10.248  17.655  0.00  0.00    +0.000 C 
BRANCH  25  26
ATOM     26  C   UNL     1      -4.361  11.240  18.015  0.00  0.00    +0.000 C 
ATOM     27  N   UNL     1      -4.141  12.289  18.733  0.00  0.00    +0.000 NA
ATOM     28  H   UNL     1      -3.158  12.349  19.019  0.00  0.00    +0.000 HD
ENDBRANCH  25  26
ENDBRANCH  24  25
ENDBRANCH   6  24
TORSDOF 6
ENDMDL
MODEL 9
REMARK VINA RESULT:      -7.4      2.809      5.721
REMARK  Name = 
REMARK  8 active torsions:
REMARK  status: ('A' for Active; 'I' for Inactive)
REMARK    1  A    between atoms: C_1  and  C_2
REMARK    2  A    between atoms: C_2  and  C_3
REMARK    3  A    between atoms: C_2  and  C_4
REMARK    4  A    between atoms: C_8  and  N_9
REMARK    5  A    between atoms: C_14  and  C_15
REMARK    6  A    between atoms: C_15  and  C_16
REMARK    7  A    between atoms: C_16  and  C_17
REMARK    8  A    between atoms: C_20  and  C_21
REMARK                            x       y       z     vdW  Elec       q    Type
REMARK                         _______ _______ _______ _____ _____    ______ ____
ROOT
ATOM      1  N   UNL     1       6.096   5.645  15.725  0.00  0.00    +0.000 N 
ATOM      2  C   UNL     1       4.926   6.513  15.953  0.00  0.00    +0.000 C 
ATOM      3  C   UNL     1       4.060   5.659  16.829  0.00  0.00    +0.000 A 
ATOM      4  C   UNL     1       4.376   4.334  16.566  0.00  0.00    +0.000 A 
ATOM      5  C   UNL     1       3.858   3.267  17.269  0.00  0.00    +0.000 A 
ATOM      6  C   UNL     1       2.982   3.547  18.325  0.00  0.00    +0.000 A 
ATOM      7  C   UNL     1       2.650   4.899  18.599  0.00  0.00    +0.000 A 
ATOM      8  C   UNL     1       3.191   5.979  17.862  0.00  0.00    +0.000 A 
ATOM      9  C   UNL     1       5.612   4.310  15.737  0.00  0.00    +0.000 C 
ATOM     10  O   UNL     1       6.150   3.292  15.354  0.00  0.00    +0.000 OA
ENDROOT
BRANCH   1  15
ATOM     11  C   UNL     1       8.080   7.815  17.910  0.00  0.00    +0.000 A 
ATOM     12  C   UNL     1       8.058   7.026  19.071  0.00  0.00    +0.000 A 
ATOM     13  C   UNL     1       7.746   5.671  19.002  0.00  0.00    +0.000 A 
ATOM     14  C   UNL     1       7.344   5.112  17.794  0.00  0.00    +0.000 A 
ATOM     15  C   UNL     1       7.153   5.939  16.679  0.00  0.00    +0.000 A 
ATOM     16  C   UNL     1       7.656   7.243  16.704  0.00  0.00    +0.000 A 
BRANCH  11  18
ATOM     17  C   UNL     1       7.364  10.177  17.574  0.00  0.00    +0.000 C 
ATOM     18  C   UNL     1       8.516   9.264  17.993  0.00  0.00    +0.000 C 
ATOM     19  C   UNL     1       9.044   9.642  19.381  0.00  0.00    +0.000 C 
ENDBRANCH  11  18
ENDBRANCH   1  15
BRANCH   8  20
ATOM     20  C   UNL     1       2.890   7.395  18.287  0.00  0.00    +0.000 C 
ATOM     21  F   UNL     1       1.825   7.956  17.652  0.00  0.00    +0.000 F 
ATOM     22  F   UNL     1       2.612   7.487  19.617  0.00  0.00    +0.000 F 
ATOM     23  F   UNL     1       3.938   8.237  18.066  0.00  0.00    +0.000 F 
ENDBRANCH   8  20
BRANCH   6  24
ATOM     24  C   UNL     1       2.391   2.448  19.184  0.00  0.00    +0.000 C 
BRANCH  24  25
ATOM     25  C   UNL     1       2.841   2.454  20.648  0.00  0.00    +0.000 C 
BRANCH  25  26
ATOM     26  C   UNL     1       4.338   2.359  20.728  0.00  0.00    +0.000 C 
ATOM     27  N   UNL     1       5.026   1.471  20.094  0.00  0.00    +0.000 NA
ATOM     28  H   UNL     1       4.423   0.852  19.543  0.00  0.00    +0.000 HD
ENDBRANCH  25  26
ENDBRANCH  24  25
ENDBRANCH   6  24
TORSDOF 6
ENDMDL
