MODEL 1
REMARK VINA RESULT:      -9.5      0.000      0.000
REMARK  Name = 
REMARK  5 active torsions:
REMARK  status: ('A' for Active; 'I' for Inactive)
REMARK    1  A    between atoms: N_2  and  C_4
REMARK    2  A    between atoms: C_8  and  C_9
REMARK    3  A    between atoms: C_11  and  N_12
REMARK    4  A    between atoms: N_12  and  S_13
REMARK    5  A    between atoms: S_13  and  C_16
REMARK                            x       y       z     vdW  Elec       q    Type
REMARK                         _______ _______ _______ _____ _____    ______ ____
ROOT
ATOM      1  C   UNL     1       8.664   9.221  18.573  0.00  0.00    +0.000 A 
ATOM      2  C   UNL     1       7.745   9.118  17.483  0.00  0.00    +0.000 A 
ATOM      3  C   UNL     1       7.373   7.799  17.440  0.00  0.00    +0.000 A 
ATOM      4  N   UNL     1       8.047   7.183  18.453  0.00  0.00    +0.000 N 
ATOM      5  N   UNL     1       8.836   8.017  19.148  0.00  0.00    +0.000 NA
ATOM      6  H   UNL     1       8.038   6.203  18.719  0.00  0.00    +0.000 HD
ENDROOT
BRANCH   1  11
ATOM      7  C   UNL     1      10.527  12.515  18.702  0.00  0.00    +0.000 A 
ATOM      8  C   UNL     1      10.549  12.784  20.075  0.00  0.00    +0.000 A 
ATOM      9  C   UNL     1       9.977  11.867  20.955  0.00  0.00    +0.000 A 
ATOM     10  C   UNL     1       9.378  10.699  20.463  0.00  0.00    +0.000 A 
ATOM     11  C   UNL     1       9.339  10.424  19.084  0.00  0.00    +0.000 A 
ATOM     12  C   UNL     1       9.935  11.342  18.206  0.00  0.00    +0.000 A 
BRANCH   7  14
ATOM     13  O   UNL     1      11.441  14.588  18.196  0.00  0.00    +0.000 OA
ATOM     14  N   UNL     1      11.118  13.473  17.761  0.00  0.00    +0.000 N 
ATOM     15  O   UNL     1      11.253  13.111  16.581  0.00  0.00    +0.000 OA
ENDBRANCH   7  14
ENDBRANCH   1  11
BRANCH   3  16
ATOM     16  N   UNL     1       6.467   7.234  16.566  0.00  0.00    +0.000 N 
ATOM     17  H   UNL     1       5.544   7.641  16.499  0.00  0.00    +0.000 HD
BRANCH  16  18
ATOM     18  S   UNL     1       6.414   5.607  16.324  0.00  0.00    +0.000 S 
ATOM     19  O   UNL     1       6.476   5.334  14.898  0.00  0.00    +0.000 OA
ATOM     20  O   UNL     1       7.425   5.039  17.184  0.00  0.00    +0.000 OA
BRANCH  18  21
ATOM     21  C   UNL     1       4.853   5.156  16.941  0.00  0.00    +0.000 C 
ATOM     22  C   UNL     1       4.041   6.090  17.480  0.00  0.00    +0.000 C 
ATOM     23  C   UNL     1       2.958   5.602  18.355  0.00  0.00    +0.000 A 
ATOM     24  C   UNL     1       2.542   6.356  19.452  0.00  0.00    +0.000 A 
ATOM     25  C   UNL     1       1.863   5.725  20.497  0.00  0.00    +0.000 A 
ATOM     26  C   UNL     1       1.568   4.361  20.428  0.00  0.00    +0.000 A 
ATOM     27  C   UNL     1       1.869   3.635  19.280  0.00  0.00    +0.000 A 
ATOM     28  C   UNL     1       2.547   4.259  18.234  0.00  0.00    +0.000 A 
ATOM     29  C   UNL     1       3.008   3.494  17.024  0.00  0.00    +0.000 C 
ATOM     30  C   UNL     1       4.522   3.683  16.955  0.00  0.00    +0.000 C 
ENDBRANCH  18  21
ENDBRANCH  16  18
ENDBRANCH   3  16
TORSDOF 5
ENDMDL
MODEL 2
REMARK VINA RESULT:      -9.3      1.615      2.164
REMARK  Name = 
REMARK  5 active torsions:
REMARK  status: ('A' for Active; 'I' for Inactive)
REMARK    1  A    between atoms: N_2  and  C_4
REMARK    2  A    between atoms: C_8  and  C_9
REMARK    3  A    between atoms: C_11  and  N_12
REMARK    4  A    between atoms: N_12  and  S_13
REMARK    5  A    between atoms: S_13  and  C_16
REMARK                            x       y       z     vdW  Elec       q    Type
REMARK                         _______ _______ _______ _____ _____    ______ ____
ROOT
ATOM      1  C   UNL     1       8.767   9.926  18.410  0.00  0.00    +0.000 A 
ATOM      2  C   UNL     1       8.949   8.647  19.021  0.00  0.00    +0.000 A 
ATOM      3  C   UNL     1       8.103   7.798  18.356  0.00  0.00    +0.000 A 
ATOM      4  N   UNL     1       7.470   8.557  17.415  0.00  0.00    +0.000 N 
ATOM      5  N   UNL     1       7.848   9.844  17.431  0.00  0.00    +0.000 NA
ATOM      6  H   UNL     1       6.759   8.277  16.747  0.00  0.00    +0.000 HD
ENDROOT
BRANCH   1  11
ATOM      7  C   UNL     1       9.671  13.603  18.481  0.00  0.00    +0.000 A 
ATOM      8  C   UNL     1      10.741  13.623  19.383  0.00  0.00    +0.000 A 
ATOM      9  C   UNL     1      11.179  12.423  19.942  0.00  0.00    +0.000 A 
ATOM     10  C   UNL     1      10.543  11.219  19.610  0.00  0.00    +0.000 A 
ATOM     11  C   UNL     1       9.460  11.188  18.714  0.00  0.00    +0.000 A 
ATOM     12  C   UNL     1       9.038  12.397  18.140  0.00  0.00    +0.000 A 
BRANCH   7  14
ATOM     13  O   UNL     1      10.039  15.660  17.472  0.00  0.00    +0.000 OA
ATOM     14  N   UNL     1       9.192  14.857  17.888  0.00  0.00    +0.000 N 
ATOM     15  O   UNL     1       7.966  15.041  17.847  0.00  0.00    +0.000 OA
ENDBRANCH   7  14
ENDBRANCH   1  11
BRANCH   3  16
ATOM     16  N   UNL     1       7.962   6.444  18.580  0.00  0.00    +0.000 N 
ATOM     17  H   UNL     1       8.664   5.972  19.134  0.00  0.00    +0.000 HD
BRANCH  16  18
ATOM     18  S   UNL     1       7.352   5.446  17.422  0.00  0.00    +0.000 S 
ATOM     19  O   UNL     1       7.427   6.109  16.131  0.00  0.00    +0.000 OA
ATOM     20  O   UNL     1       8.022   4.178  17.591  0.00  0.00    +0.000 OA
BRANCH  18  21
ATOM     21  C   UNL     1       5.689   5.253  17.888  0.00  0.00    +0.000 C 
ATOM     22  C   UNL     1       5.358   4.403  18.883  0.00  0.00    +0.000 C 
ATOM     23  C   UNL     1       3.950   3.963  18.937  0.00  0.00    +0.000 A 
ATOM     24  C   UNL     1       3.628   2.678  19.373  0.00  0.00    +0.000 A 
ATOM     25  C   UNL     1       2.396   2.124  19.017  0.00  0.00    +0.000 A 
ATOM     26  C   UNL     1       1.479   2.862  18.264  0.00  0.00    +0.000 A 
ATOM     27  C   UNL     1       1.746   4.189  17.937  0.00  0.00    +0.000 A 
ATOM     28  C   UNL     1       2.973   4.746  18.289  0.00  0.00    +0.000 A 
ATOM     29  C   UNL     1       3.365   6.131  17.853  0.00  0.00    +0.000 C 
ATOM     30  C   UNL     1       4.658   5.975  17.055  0.00  0.00    +0.000 C 
ENDBRANCH  18  21
ENDBRANCH  16  18
ENDBRANCH   3  16
TORSDOF 5
ENDMDL
MODEL 3
REMARK VINA RESULT:      -9.3      5.039      8.251
REMARK  Name = 
REMARK  5 active torsions:
REMARK  status: ('A' for Active; 'I' for Inactive)
REMARK    1  A    between atoms: N_2  and  C_4
REMARK    2  A    between atoms: C_8  and  C_9
REMARK    3  A    between atoms: C_11  and  N_12
REMARK    4  A    between atoms: N_12  and  S_13
REMARK    5  A    between atoms: S_13  and  C_16
REMARK                            x       y       z     vdW  Elec       q    Type
REMARK                         _______ _______ _______ _____ _____    ______ ____
ROOT
ATOM      1  C   UNL     1       6.545   4.267  14.466  0.00  0.00    +0.000 A 
ATOM      2  C   UNL     1       6.624   3.702  15.777  0.00  0.00    +0.000 A 
ATOM      3  C   UNL     1       7.289   4.629  16.536  0.00  0.00    +0.000 A 
ATOM      4  N   UNL     1       7.577   5.667  15.700  0.00  0.00    +0.000 N 
ATOM      5  N   UNL     1       7.143   5.471  14.445  0.00  0.00    +0.000 NA
ATOM      6  H   UNL     1       8.079   6.526  15.902  0.00  0.00    +0.000 HD
ENDROOT
BRANCH   1  11
ATOM      7  C   UNL     1       5.827   2.081  11.459  0.00  0.00    +0.000 A 
ATOM      8  C   UNL     1       4.590   2.573  11.029  0.00  0.00    +0.000 A 
ATOM      9  C   UNL     1       4.010   3.640  11.713  0.00  0.00    +0.000 A 
ATOM     10  C   UNL     1       4.658   4.200  12.822  0.00  0.00    +0.000 A 
ATOM     11  C   UNL     1       5.896   3.706  13.270  0.00  0.00    +0.000 A 
ATOM     12  C   UNL     1       6.483   2.645  12.565  0.00  0.00    +0.000 A 
BRANCH   7  14
ATOM     13  O   UNL     1       7.362   1.202   9.956  0.00  0.00    +0.000 OA
ATOM     14  N   UNL     1       6.449   0.952  10.755  0.00  0.00    +0.000 N 
ATOM     15  O   UNL     1       6.016  -0.185  10.999  0.00  0.00    +0.000 OA
ENDBRANCH   7  14
ENDBRANCH   1  11
BRANCH   3  16
ATOM     16  N   UNL     1       7.569   4.532  17.884  0.00  0.00    +0.000 N 
ATOM     17  H   UNL     1       7.578   3.615  18.309  0.00  0.00    +0.000 HD
BRANCH  16  18
ATOM     18  S   UNL     1       7.048   5.673  18.950  0.00  0.00    +0.000 S 
ATOM     19  O   UNL     1       7.569   5.366  20.271  0.00  0.00    +0.000 OA
ATOM     20  O   UNL     1       7.365   6.950  18.357  0.00  0.00    +0.000 OA
BRANCH  18  21
ATOM     21  C   UNL     1       5.320   5.477  18.939  0.00  0.00    +0.000 C 
ATOM     22  C   UNL     1       4.728   4.637  19.814  0.00  0.00    +0.000 C 
ATOM     23  C   UNL     1       3.361   4.189  19.481  0.00  0.00    +0.000 A 
ATOM     24  C   UNL     1       2.934   2.908  19.827  0.00  0.00    +0.000 A 
ATOM     25  C   UNL     1       1.850   2.343  19.151  0.00  0.00    +0.000 A 
ATOM     26  C   UNL     1       1.176   3.068  18.164  0.00  0.00    +0.000 A 
ATOM     27  C   UNL     1       1.520   4.392  17.907  0.00  0.00    +0.000 A 
ATOM     28  C   UNL     1       2.601   4.960  18.579  0.00  0.00    +0.000 A 
ATOM     29  C   UNL     1       3.096   6.342  18.251  0.00  0.00    +0.000 C 
ATOM     30  C   UNL     1       4.559   6.183  17.844  0.00  0.00    +0.000 C 
ENDBRANCH  18  21
ENDBRANCH  16  18
ENDBRANCH   3  16
TORSDOF 5
ENDMDL
MODEL 4
REMARK VINA RESULT:      -9.2      6.305      7.713
REMARK  Name = 
REMARK  5 active torsions:
REMARK  status: ('A' for Active; 'I' for Inactive)
REMARK    1  A    between atoms: N_2  and  C_4
REMARK    2  A    between atoms: C_8  and  C_9
REMARK    3  A    between atoms: C_11  and  N_12
REMARK    4  A    between atoms: N_12  and  S_13
REMARK    5  A    between atoms: S_13  and  C_16
REMARK                            x       y       z     vdW  Elec       q    Type
REMARK                         _______ _______ _______ _____ _____    ______ ____
ROOT
ATOM      1  C   UNL     1       5.874   4.440  16.380  0.00  0.00    +0.000 A 
ATOM      2  C   UNL     1       4.911   3.628  17.055  0.00  0.00    +0.000 A 
ATOM      3  C   UNL     1       4.858   4.110  18.337  0.00  0.00    +0.000 A 
ATOM      4  N   UNL     1       5.748   5.143  18.389  0.00  0.00    +0.000 N 
ATOM      5  N   UNL     1       6.377   5.358  17.223  0.00  0.00    +0.000 NA
ATOM      6  H   UNL     1       5.995   5.729  19.180  0.00  0.00    +0.000 HD
ENDROOT
BRANCH   1  11
ATOM      7  C   UNL     1       5.972   3.561  12.698  0.00  0.00    +0.000 A 
ATOM      8  C   UNL     1       7.038   4.343  12.239  0.00  0.00    +0.000 A 
ATOM      9  C   UNL     1       7.738   5.134  13.148  0.00  0.00    +0.000 A 
ATOM     10  C   UNL     1       7.367   5.150  14.499  0.00  0.00    +0.000 A 
ATOM     11  C   UNL     1       6.289   4.378  14.969  0.00  0.00    +0.000 A 
ATOM     12  C   UNL     1       5.602   3.569  14.052  0.00  0.00    +0.000 A 
BRANCH   7  14
ATOM     13  O   UNL     1       4.118   3.143  11.366  0.00  0.00    +0.000 OA
ATOM     14  N   UNL     1       5.219   2.727  11.753  0.00  0.00    +0.000 N 
ATOM     15  O   UNL     1       5.728   1.651  11.404  0.00  0.00    +0.000 OA
ENDBRANCH   7  14
ENDBRANCH   1  11
BRANCH   3  16
ATOM     16  N   UNL     1       4.036   3.656  19.348  0.00  0.00    +0.000 N 
ATOM     17  H   UNL     1       4.212   2.739  19.736  0.00  0.00    +0.000 HD
BRANCH  16  18
ATOM     18  S   UNL     1       2.428   4.006  19.363  0.00  0.00    +0.000 S 
ATOM     19  O   UNL     1       1.792   3.382  18.215  0.00  0.00    +0.000 OA
ATOM     20  O   UNL     1       1.956   3.672  20.685  0.00  0.00    +0.000 OA
BRANCH  18  21
ATOM     21  C   UNL     1       2.388   5.735  19.188  0.00  0.00    +0.000 C 
ATOM     22  C   UNL     1       2.283   6.525  20.277  0.00  0.00    +0.000 C 
ATOM     23  C   UNL     1       1.825   7.910  20.051  0.00  0.00    +0.000 A 
ATOM     24  C   UNL     1       1.040   8.558  21.003  0.00  0.00    +0.000 A 
ATOM     25  C   UNL     1       0.262   9.652  20.617  0.00  0.00    +0.000 A 
ATOM     26  C   UNL     1       0.298  10.117  19.300  0.00  0.00    +0.000 A 
ATOM     27  C   UNL     1       1.176   9.551  18.380  0.00  0.00    +0.000 A 
ATOM     28  C   UNL     1       1.954   8.459  18.759  0.00  0.00    +0.000 A 
ATOM     29  C   UNL     1       2.826   7.730  17.774  0.00  0.00    +0.000 C 
ATOM     30  C   UNL     1       2.350   6.279  17.780  0.00  0.00    +0.000 C 
ENDBRANCH  18  21
ENDBRANCH  16  18
ENDBRANCH   3  16
TORSDOF 5
ENDMDL
MODEL 5
REMARK VINA RESULT:      -9.1      6.068      7.684
REMARK  Name = 
REMARK  5 active torsions:
REMARK  status: ('A' for Active; 'I' for Inactive)
REMARK    1  A    between atoms: N_2  and  C_4
REMARK    2  A    between atoms: C_8  and  C_9
REMARK    3  A    between atoms: C_11  and  N_12
REMARK    4  A    between atoms: N_12  and  S_13
REMARK    5  A    between atoms: S_13  and  C_16
REMARK                            x       y       z     vdW  Elec       q    Type
REMARK                         _______ _______ _______ _____ _____    ______ ____
ROOT
ATOM      1  C   UNL     1       6.513   4.530  16.158  0.00  0.00    +0.000 A 
ATOM      2  C   UNL     1       5.301   4.791  16.869  0.00  0.00    +0.000 A 
ATOM      3  C   UNL     1       5.648   4.790  18.196  0.00  0.00    +0.000 A 
ATOM      4  N   UNL     1       6.988   4.540  18.237  0.00  0.00    +0.000 N 
ATOM      5  N   UNL     1       7.532   4.373  17.021  0.00  0.00    +0.000 NA
ATOM      6  H   UNL     1       7.593   4.447  19.047  0.00  0.00    +0.000 HD
ENDROOT
BRANCH   1  11
ATOM      7  C   UNL     1       6.104   3.592  12.512  0.00  0.00    +0.000 A 
ATOM      8  C   UNL     1       7.055   4.409  11.892  0.00  0.00    +0.000 A 
ATOM      9  C   UNL     1       7.847   5.245  12.678  0.00  0.00    +0.000 A 
ATOM     10  C   UNL     1       7.679   5.269  14.069  0.00  0.00    +0.000 A 
ATOM     11  C   UNL     1       6.718   4.460  14.702  0.00  0.00    +0.000 A 
ATOM     12  C   UNL     1       5.938   3.607  13.906  0.00  0.00    +0.000 A 
BRANCH   7  14
ATOM     13  O   UNL     1       5.675   1.570  11.455  0.00  0.00    +0.000 OA
ATOM     14  N   UNL     1       5.256   2.711  11.699  0.00  0.00    +0.000 N 
ATOM     15  O   UNL     1       4.173   3.165  11.299  0.00  0.00    +0.000 OA
ENDBRANCH   7  14
ENDBRANCH   1  11
BRANCH   3  16
ATOM     16  N   UNL     1       4.804   5.035  19.260  0.00  0.00    +0.000 N 
ATOM     17  H   UNL     1       5.101   4.752  20.184  0.00  0.00    +0.000 HD
BRANCH  16  18
ATOM     18  S   UNL     1       3.171   4.917  19.101  0.00  0.00    +0.000 S 
ATOM     19  O   UNL     1       2.860   4.278  17.833  0.00  0.00    +0.000 OA
ATOM     20  O   UNL     1       2.690   4.312  20.320  0.00  0.00    +0.000 OA
BRANCH  18  21
ATOM     21  C   UNL     1       2.646   6.574  19.067  0.00  0.00    +0.000 C 
ATOM     22  C   UNL     1       2.347   7.214  20.217  0.00  0.00    +0.000 C 
ATOM     23  C   UNL     1       1.515   8.428  20.103  0.00  0.00    +0.000 A 
ATOM     24  C   UNL     1       0.600   8.754  21.104  0.00  0.00    +0.000 A 
ATOM     25  C   UNL     1      -0.461   9.613  20.807  0.00  0.00    +0.000 A 
ATOM     26  C   UNL     1      -0.583  10.171  19.532  0.00  0.00    +0.000 A 
ATOM     27  C   UNL     1       0.400   9.949  18.571  0.00  0.00    +0.000 A 
ATOM     28  C   UNL     1       1.459   9.093  18.862  0.00  0.00    +0.000 A 
ATOM     29  C   UNL     1       2.480   8.718  17.822  0.00  0.00    +0.000 C 
ATOM     30  C   UNL     1       2.429   7.195  17.708  0.00  0.00    +0.000 C 
ENDBRANCH  18  21
ENDBRANCH  16  18
ENDBRANCH   3  16
TORSDOF 5
ENDMDL
MODEL 6
REMARK VINA RESULT:      -9.1      2.002      2.648
REMARK  Name = 
REMARK  5 active torsions:
REMARK  status: ('A' for Active; 'I' for Inactive)
REMARK    1  A    between atoms: N_2  and  C_4
REMARK    2  A    between atoms: C_8  and  C_9
REMARK    3  A    between atoms: C_11  and  N_12
REMARK    4  A    between atoms: N_12  and  S_13
REMARK    5  A    between atoms: S_13  and  C_16
REMARK                            x       y       z     vdW  Elec       q    Type
REMARK                         _______ _______ _______ _____ _____    ______ ____
ROOT
ATOM      1  C   UNL     1       8.784   9.870  18.425  0.00  0.00    +0.000 A 
ATOM      2  C   UNL     1       8.951   8.571  18.997  0.00  0.00    +0.000 A 
ATOM      3  C   UNL     1       8.085   7.755  18.314  0.00  0.00    +0.000 A 
ATOM      4  N   UNL     1       7.456   8.550  17.402  0.00  0.00    +0.000 N 
ATOM      5  N   UNL     1       7.856   9.831  17.452  0.00  0.00    +0.000 NA
ATOM      6  H   UNL     1       6.736   8.302  16.732  0.00  0.00    +0.000 HD
ENDROOT
BRANCH   1  11
ATOM      7  C   UNL     1      10.048  12.886  20.333  0.00  0.00    +0.000 A 
ATOM      8  C   UNL     1      10.956  13.445  19.427  0.00  0.00    +0.000 A 
ATOM      9  C   UNL     1      11.128  12.844  18.181  0.00  0.00    +0.000 A 
ATOM     10  C   UNL     1      10.406  11.689  17.852  0.00  0.00    +0.000 A 
ATOM     11  C   UNL     1       9.499  11.112  18.759  0.00  0.00    +0.000 A 
ATOM     12  C   UNL     1       9.317  11.733  20.003  0.00  0.00    +0.000 A 
BRANCH   7  14
ATOM     13  O   UNL     1       9.262  12.845  22.516  0.00  0.00    +0.000 OA
ATOM     14  N   UNL     1       9.860  13.502  21.652  0.00  0.00    +0.000 N 
ATOM     15  O   UNL     1      10.304  14.648  21.820  0.00  0.00    +0.000 OA
ENDBRANCH   7  14
ENDBRANCH   1  11
BRANCH   3  16
ATOM     16  N   UNL     1       7.925   6.397  18.500  0.00  0.00    +0.000 N 
ATOM     17  H   UNL     1       8.621   5.899  19.038  0.00  0.00    +0.000 HD
BRANCH  16  18
ATOM     18  S   UNL     1       7.296   5.442  17.316  0.00  0.00    +0.000 S 
ATOM     19  O   UNL     1       7.325   6.163  16.055  0.00  0.00    +0.000 OA
ATOM     20  O   UNL     1       7.988   4.178  17.410  0.00  0.00    +0.000 OA
BRANCH  18  21
ATOM     21  C   UNL     1       5.650   5.203  17.820  0.00  0.00    +0.000 C 
ATOM     22  C   UNL     1       5.362   4.329  18.807  0.00  0.00    +0.000 C 
ATOM     23  C   UNL     1       3.966   3.855  18.888  0.00  0.00    +0.000 A 
ATOM     24  C   UNL     1       3.685   2.556  19.309  0.00  0.00    +0.000 A 
ATOM     25  C   UNL     1       2.457   1.981  18.973  0.00  0.00    +0.000 A 
ATOM     26  C   UNL     1       1.505   2.711  18.257  0.00  0.00    +0.000 A 
ATOM     27  C   UNL     1       1.734   4.049  17.947  0.00  0.00    +0.000 A 
ATOM     28  C   UNL     1       2.957   4.628  18.279  0.00  0.00    +0.000 A 
ATOM     29  C   UNL     1       3.307   6.029  17.859  0.00  0.00    +0.000 C 
ATOM     30  C   UNL     1       4.582   5.916  17.025  0.00  0.00    +0.000 C 
ENDBRANCH  18  21
ENDBRANCH  16  18
ENDBRANCH   3  16
TORSDOF 5
ENDMDL
MODEL 7
REMARK VINA RESULT:      -9.1      1.723      2.125
REMARK  Name = 
REMARK  5 active torsions:
REMARK  status: ('A' for Active; 'I' for Inactive)
REMARK    1  A    between atoms: N_2  and  C_4
REMARK    2  A    between atoms: C_8  and  C_9
REMARK    3  A    between atoms: C_11  and  N_12
REMARK    4  A    between atoms: N_12  and  S_13
REMARK    5  A    between atoms: S_13  and  C_16
REMARK                            x       y       z     vdW  Elec       q    Type
REMARK                         _______ _______ _______ _____ _____    ______ ____
ROOT
ATOM      1  C   UNL     1       8.736   9.751  18.354  0.00  0.00    +0.000 A 
ATOM      2  C   UNL     1       8.802   8.431  18.898  0.00  0.00    +0.000 A 
ATOM      3  C   UNL     1       7.889   7.695  18.188  0.00  0.00    +0.000 A 
ATOM      4  N   UNL     1       7.330   8.553  17.287  0.00  0.00    +0.000 N 
ATOM      5  N   UNL     1       7.820   9.800  17.370  0.00  0.00    +0.000 NA
ATOM      6  H   UNL     1       6.602   8.371  16.604  0.00  0.00    +0.000 HD
ENDROOT
BRANCH   1  11
ATOM      7  C   UNL     1      10.131  12.675  20.313  0.00  0.00    +0.000 A 
ATOM      8  C   UNL     1      11.145  13.137  19.466  0.00  0.00    +0.000 A 
ATOM      9  C   UNL     1      11.347  12.503  18.242  0.00  0.00    +0.000 A 
ATOM     10  C   UNL     1      10.549  11.410  17.876  0.00  0.00    +0.000 A 
ATOM     11  C   UNL     1       9.535  10.930  18.724  0.00  0.00    +0.000 A 
ATOM     12  C   UNL     1       9.324  11.586  19.946  0.00  0.00    +0.000 A 
BRANCH   7  14
ATOM     13  O   UNL     1       9.306  12.686  22.483  0.00  0.00    +0.000 OA
ATOM     14  N   UNL     1       9.909  13.327  21.610  0.00  0.00    +0.000 N 
ATOM     15  O   UNL     1      10.332  14.485  21.751  0.00  0.00    +0.000 OA
ENDBRANCH   7  14
ENDBRANCH   1  11
BRANCH   3  16
ATOM     16  N   UNL     1       7.629   6.348  18.341  0.00  0.00    +0.000 N 
ATOM     17  H   UNL     1       8.180   5.824  19.007  0.00  0.00    +0.000 HD
BRANCH  16  18
ATOM     18  S   UNL     1       7.200   5.410  17.059  0.00  0.00    +0.000 S 
ATOM     19  O   UNL     1       7.371   6.171  15.832  0.00  0.00    +0.000 OA
ATOM     20  O   UNL     1       7.920   4.168  17.211  0.00  0.00    +0.000 OA
BRANCH  18  21
ATOM     21  C   UNL     1       5.511   5.102  17.329  0.00  0.00    +0.000 C 
ATOM     22  C   UNL     1       4.714   6.076  17.817  0.00  0.00    +0.000 C 
ATOM     23  C   UNL     1       3.437   5.646  18.421  0.00  0.00    +0.000 A 
ATOM     24  C   UNL     1       2.901   6.341  19.505  0.00  0.00    +0.000 A 
ATOM     25  C   UNL     1       1.971   5.704  20.331  0.00  0.00    +0.000 A 
ATOM     26  C   UNL     1       1.553   4.400  20.054  0.00  0.00    +0.000 A 
ATOM     27  C   UNL     1       1.991   3.753  18.901  0.00  0.00    +0.000 A 
ATOM     28  C   UNL     1       2.919   4.383  18.074  0.00  0.00    +0.000 A 
ATOM     29  C   UNL     1       3.520   3.683  16.886  0.00  0.00    +0.000 C 
ATOM     30  C   UNL     1       5.031   3.687  17.112  0.00  0.00    +0.000 C 
ENDBRANCH  18  21
ENDBRANCH  16  18
ENDBRANCH   3  16
TORSDOF 5
ENDMDL
MODEL 8
REMARK VINA RESULT:      -9.0      1.617      1.984
REMARK  Name = 
REMARK  5 active torsions:
REMARK  status: ('A' for Active; 'I' for Inactive)
REMARK    1  A    between atoms: N_2  and  C_4
REMARK    2  A    between atoms: C_8  and  C_9
REMARK    3  A    between atoms: C_11  and  N_12
REMARK    4  A    between atoms: N_12  and  S_13
REMARK    5  A    between atoms: S_13  and  C_16
REMARK                            x       y       z     vdW  Elec       q    Type
REMARK                         _______ _______ _______ _____ _____    ______ ____
ROOT
ATOM      1  C   UNL     1       8.683   9.196  18.494  0.00  0.00    +0.000 A 
ATOM      2  C   UNL     1       7.805   8.835  17.425  0.00  0.00    +0.000 A 
ATOM      3  C   UNL     1       7.523   7.507  17.615  0.00  0.00    +0.000 A 
ATOM      4  N   UNL     1       8.207   7.131  18.734  0.00  0.00    +0.000 N 
ATOM      5  N   UNL     1       8.918   8.130  19.279  0.00  0.00    +0.000 NA
ATOM      6  H   UNL     1       8.256   6.216  19.171  0.00  0.00    +0.000 HD
ENDROOT
BRANCH   1  11
ATOM      7  C   UNL     1       9.728  12.325  20.353  0.00  0.00    +0.000 A 
ATOM      8  C   UNL     1      10.461  13.012  19.378  0.00  0.00    +0.000 A 
ATOM      9  C   UNL     1      10.585  12.457  18.106  0.00  0.00    +0.000 A 
ATOM     10  C   UNL     1       9.990  11.221  17.817  0.00  0.00    +0.000 A 
ATOM     11  C   UNL     1       9.261  10.516  18.792  0.00  0.00    +0.000 A 
ATOM     12  C   UNL     1       9.124  11.091  20.064  0.00  0.00    +0.000 A 
BRANCH   7  14
ATOM     13  O   UNL     1       9.062  12.189  22.572  0.00  0.00    +0.000 OA
ATOM     14  N   UNL     1       9.594  12.892  21.700  0.00  0.00    +0.000 N 
ATOM     15  O   UNL     1      10.015  14.044  21.883  0.00  0.00    +0.000 OA
ENDBRANCH   7  14
ENDBRANCH   1  11
BRANCH   3  16
ATOM     16  N   UNL     1       6.682   6.732  16.842  0.00  0.00    +0.000 N 
ATOM     17  H   UNL     1       5.786   7.115  16.573  0.00  0.00    +0.000 HD
BRANCH  16  18
ATOM     18  S   UNL     1       6.591   5.102  17.051  0.00  0.00    +0.000 S 
ATOM     19  O   UNL     1       6.933   4.441  15.802  0.00  0.00    +0.000 OA
ATOM     20  O   UNL     1       7.368   4.803  18.230  0.00  0.00    +0.000 OA
BRANCH  18  21
ATOM     21  C   UNL     1       4.913   4.834  17.417  0.00  0.00    +0.000 C 
ATOM     22  C   UNL     1       4.175   5.818  17.972  0.00  0.00    +0.000 C 
ATOM     23  C   UNL     1       2.926   5.410  18.644  0.00  0.00    +0.000 A 
ATOM     24  C   UNL     1       2.475   6.095  19.772  0.00  0.00    +0.000 A 
ATOM     25  C   UNL     1       1.580   5.467  20.641  0.00  0.00    +0.000 A 
ATOM     26  C   UNL     1       1.109   4.181  20.363  0.00  0.00    +0.000 A 
ATOM     27  C   UNL     1       1.458   3.547  19.174  0.00  0.00    +0.000 A 
ATOM     28  C   UNL     1       2.351   4.169  18.304  0.00  0.00    +0.000 A 
ATOM     29  C   UNL     1       2.860   3.479  17.069  0.00  0.00    +0.000 C 
ATOM     30  C   UNL     1       4.381   3.437  17.202  0.00  0.00    +0.000 C 
ENDBRANCH  18  21
ENDBRANCH  16  18
ENDBRANCH   3  16
TORSDOF 5
ENDMDL
MODEL 9
REMARK VINA RESULT:      -9.0      6.158      9.033
REMARK  Name = 
REMARK  5 active torsions:
REMARK  status: ('A' for Active; 'I' for Inactive)
REMARK    1  A    between atoms: N_2  and  C_4
REMARK    2  A    between atoms: C_8  and  C_9
REMARK    3  A    between atoms: C_11  and  N_12
REMARK    4  A    between atoms: N_12  and  S_13
REMARK    5  A    between atoms: S_13  and  C_16
REMARK                            x       y       z     vdW  Elec       q    Type
REMARK                         _______ _______ _______ _____ _____    ______ ____
ROOT
ATOM      1  C   UNL     1       2.928   6.307  18.999  0.00  0.00    +0.000 A 
ATOM      2  C   UNL     1       2.342   7.601  18.843  0.00  0.00    +0.000 A 
ATOM      3  C   UNL     1       1.760   7.889  20.050  0.00  0.00    +0.000 A 
ATOM      4  N   UNL     1       2.001   6.812  20.852  0.00  0.00    +0.000 N 
ATOM      5  N   UNL     1       2.699   5.843  20.240  0.00  0.00    +0.000 NA
ATOM      6  H   UNL     1       1.708   6.656  21.812  0.00  0.00    +0.000 HD
ENDROOT
BRANCH   1  11
ATOM      7  C   UNL     1       5.733   5.219  16.700  0.00  0.00    +0.000 A 
ATOM      8  C   UNL     1       5.252   4.000  16.210  0.00  0.00    +0.000 A 
ATOM      9  C   UNL     1       3.995   3.554  16.616  0.00  0.00    +0.000 A 
ATOM     10  C   UNL     1       3.235   4.317  17.512  0.00  0.00    +0.000 A 
ATOM     11  C   UNL     1       3.712   5.538  18.020  0.00  0.00    +0.000 A 
ATOM     12  C   UNL     1       4.970   5.990  17.592  0.00  0.00    +0.000 A 
BRANCH   7  14
ATOM     13  O   UNL     1       7.719   4.986  15.521  0.00  0.00    +0.000 OA
ATOM     14  N   UNL     1       7.058   5.700  16.289  0.00  0.00    +0.000 N 
ATOM     15  O   UNL     1       7.439   6.790  16.742  0.00  0.00    +0.000 OA
ENDBRANCH   7  14
ENDBRANCH   1  11
BRANCH   3  16
ATOM     16  N   UNL     1       1.101   9.055  20.382  0.00  0.00    +0.000 N 
ATOM     17  H   UNL     1       1.493   9.934  20.074  0.00  0.00    +0.000 HD
BRANCH  16  18
ATOM     18  S   UNL     1       0.338   9.223  21.831  0.00  0.00    +0.000 S 
ATOM     19  O   UNL     1      -0.570   8.105  22.025  0.00  0.00    +0.000 OA
ATOM     20  O   UNL     1       1.377   9.450  22.808  0.00  0.00    +0.000 OA
BRANCH  18  21
ATOM     21  C   UNL     1      -0.570  10.693  21.644  0.00  0.00    +0.000 C 
ATOM     22  C   UNL     1      -1.114  11.296  22.722  0.00  0.00    +0.000 C 
ATOM     23  C   UNL     1      -2.204  12.257  22.464  0.00  0.00    +0.000 A 
ATOM     24  C   UNL     1      -3.252  12.396  23.372  0.00  0.00    +0.000 A 
ATOM     25  C   UNL     1      -4.462  12.947  22.941  0.00  0.00    +0.000 A 
ATOM     26  C   UNL     1      -4.607  13.391  21.625  0.00  0.00    +0.000 A 
ATOM     27  C   UNL     1      -3.522  13.371  20.753  0.00  0.00    +0.000 A 
ATOM     28  C   UNL     1      -2.314  12.822  21.177  0.00  0.00    +0.000 A 
ATOM     29  C   UNL     1      -1.148  12.660  20.241  0.00  0.00    +0.000 C 
ATOM     30  C   UNL     1      -0.815  11.169  20.232  0.00  0.00    +0.000 C 
ENDBRANCH  18  21
ENDBRANCH  16  18
ENDBRANCH   3  16
TORSDOF 5
ENDMDL
