MODEL 1
REMARK VINA RESULT:      -9.1      0.000      0.000
REMARK  Name = 
REMARK  4 active torsions:
REMARK  status: ('A' for Active; 'I' for Inactive)
REMARK    1  A    between atoms: C_1  and  C_2
REMARK    2  A    between atoms: C_2  and  C_3
REMARK    3  A    between atoms: N_13  and  C_14
REMARK    4  A    between atoms: C_14  and  C_15
REMARK                            x       y       z     vdW  Elec       q    Type
REMARK                         _______ _______ _______ _____ _____    ______ ____
ROOT
ATOM      1  C   UNL     1      -1.584  10.623  19.053  0.00  0.00    +0.000 C 
ATOM      2  C   UNL     1      -0.072  10.521  19.204  0.00  0.00    +0.000 C 
ATOM      3  N   UNL     1       0.574  10.141  17.965  0.00  0.00    +0.000 N 
ATOM      4  C   UNL     1       1.578   9.228  18.165  0.00  0.00    +0.000 C 
ATOM      5  O   UNL     1       2.453   8.997  17.354  0.00  0.00    +0.000 OA
ATOM      6  N   UNL     1       1.439   8.691  19.397  0.00  0.00    +0.000 N 
ATOM      7  C   UNL     1       0.367   9.274  20.026  0.00  0.00    +0.000 C 
ATOM      8  O   UNL     1      -0.091   8.951  21.117  0.00  0.00    +0.000 OA
ATOM      9  H   UNL     1       0.653  10.759  17.168  0.00  0.00    +0.000 HD
ENDROOT
BRANCH   2  10
ATOM     10  C   UNL     1       0.513  11.809  19.815  0.00  0.00    +0.000 A 
ATOM     11  C   UNL     1       1.638  12.418  19.208  0.00  0.00    +0.000 A 
ATOM     12  C   UNL     1       2.190  13.606  19.691  0.00  0.00    +0.000 A 
ATOM     13  C   UNL     1       1.651  14.212  20.815  0.00  0.00    +0.000 A 
ATOM     14  C   UNL     1       0.572  13.617  21.463  0.00  0.00    +0.000 A 
ATOM     15  C   UNL     1       0.013  12.425  20.981  0.00  0.00    +0.000 A 
ATOM     16 CL   UNL     1      -1.289  11.772  21.914  0.00  0.00    +0.000 Cl
ENDBRANCH   2  10
BRANCH   6  17
ATOM     17  C   UNL     1       2.439   7.856  20.018  0.00  0.00    +0.000 C 
BRANCH  17  18
ATOM     18  C   UNL     1       2.397   6.435  19.542  0.00  0.00    +0.000 A 
ATOM     19  C   UNL     1       1.594   5.604  20.237  0.00  0.00    +0.000 A 
ATOM     20  C   UNL     1       1.657   4.149  20.160  0.00  0.00    +0.000 A 
ATOM     21  O   UNL     1       0.798   3.432  20.652  0.00  0.00    +0.000 OA
ATOM     22  O   UNL     1       2.837   3.665  19.665  0.00  0.00    +0.000 OA
ATOM     23  C   UNL     1       3.524   4.449  18.719  0.00  0.00    +0.000 A 
ATOM     24  C   UNL     1       4.350   3.676  17.934  0.00  0.00    +0.000 A 
ATOM     25  C   UNL     1       4.926   4.263  16.839  0.00  0.00    +0.000 A 
ATOM     26  C   UNL     1       4.769   5.621  16.558  0.00  0.00    +0.000 A 
ATOM     27  C   UNL     1       3.996   6.429  17.441  0.00  0.00    +0.000 A 
ATOM     28  C   UNL     1       3.322   5.829  18.542  0.00  0.00    +0.000 A 
ATOM     29  C   UNL     1       5.515   5.915  15.274  0.00  0.00    +0.000 C 
ATOM     30  C   UNL     1       5.913   4.512  14.731  0.00  0.00    +0.000 C 
ATOM     31  C   UNL     1       5.689   3.489  15.832  0.00  0.00    +0.000 C 
ENDBRANCH  17  18
ENDBRANCH   6  17
TORSDOF 3
ENDMDL
MODEL 2
REMARK VINA RESULT:      -8.5      1.245      1.459
REMARK  Name = 
REMARK  4 active torsions:
REMARK  status: ('A' for Active; 'I' for Inactive)
REMARK    1  A    between atoms: C_1  and  C_2
REMARK    2  A    between atoms: C_2  and  C_3
REMARK    3  A    between atoms: N_13  and  C_14
REMARK    4  A    between atoms: C_14  and  C_15
REMARK                            x       y       z     vdW  Elec       q    Type
REMARK                         _______ _______ _______ _____ _____    ______ ____
ROOT
ATOM      1  C   UNL     1      -2.154  10.269  18.729  0.00  0.00    +0.000 C 
ATOM      2  C   UNL     1      -0.714  10.449  19.191  0.00  0.00    +0.000 C 
ATOM      3  N   UNL     1       0.220  10.427  18.085  0.00  0.00    +0.000 N 
ATOM      4  C   UNL     1       1.354   9.715  18.381  0.00  0.00    +0.000 C 
ATOM      5  O   UNL     1       2.393   9.808  17.757  0.00  0.00    +0.000 OA
ATOM      6  N   UNL     1       1.119   8.956  19.473  0.00  0.00    +0.000 N 
ATOM      7  C   UNL     1      -0.157   9.193  19.923  0.00  0.00    +0.000 C 
ATOM      8  O   UNL     1      -0.719   8.601  20.837  0.00  0.00    +0.000 OA
ATOM      9  H   UNL     1       0.299  11.177  17.411  0.00  0.00    +0.000 HD
ENDROOT
BRANCH   2  10
ATOM     10  C   UNL     1      -0.568  11.703  20.075  0.00  0.00    +0.000 A 
ATOM     11  C   UNL     1      -0.608  11.568  21.485  0.00  0.00    +0.000 A 
ATOM     12  C   UNL     1      -0.443  12.659  22.339  0.00  0.00    +0.000 A 
ATOM     13  C   UNL     1      -0.259  13.928  21.813  0.00  0.00    +0.000 A 
ATOM     14  C   UNL     1      -0.259  14.104  20.432  0.00  0.00    +0.000 A 
ATOM     15  C   UNL     1      -0.422  13.010  19.570  0.00  0.00    +0.000 A 
ATOM     16 CL   UNL     1      -0.452  13.383  17.880  0.00  0.00    +0.000 Cl
ENDBRANCH   2  10
BRANCH   6  17
ATOM     17  C   UNL     1       2.154   8.245  20.185  0.00  0.00    +0.000 C 
BRANCH  17  18
ATOM     18  C   UNL     1       2.263   6.805  19.781  0.00  0.00    +0.000 A 
ATOM     19  C   UNL     1       1.585   5.925  20.544  0.00  0.00    +0.000 A 
ATOM     20  C   UNL     1       1.815   4.484  20.535  0.00  0.00    +0.000 A 
ATOM     21  O   UNL     1       1.061   3.700  21.093  0.00  0.00    +0.000 OA
ATOM     22  O   UNL     1       3.027   4.115  20.022  0.00  0.00    +0.000 OA
ATOM     23  C   UNL     1       3.589   4.922  19.015  0.00  0.00    +0.000 A 
ATOM     24  C   UNL     1       4.475   4.209  18.238  0.00  0.00    +0.000 A 
ATOM     25  C   UNL     1       4.944   4.799  17.096  0.00  0.00    +0.000 A 
ATOM     26  C   UNL     1       4.622   6.114  16.756  0.00  0.00    +0.000 A 
ATOM     27  C   UNL     1       3.787   6.872  17.625  0.00  0.00    +0.000 A 
ATOM     28  C   UNL     1       3.221   6.258  18.778  0.00  0.00    +0.000 A 
ATOM     29  C   UNL     1       5.289   6.425  15.432  0.00  0.00    +0.000 C 
ATOM     30  C   UNL     1       5.832   5.050  14.944  0.00  0.00    +0.000 C 
ATOM     31  C   UNL     1       5.762   4.067  16.100  0.00  0.00    +0.000 C 
ENDBRANCH  17  18
ENDBRANCH   6  17
TORSDOF 3
ENDMDL
MODEL 3
REMARK VINA RESULT:      -8.1      4.461      6.884
REMARK  Name = 
REMARK  4 active torsions:
REMARK  status: ('A' for Active; 'I' for Inactive)
REMARK    1  A    between atoms: C_1  and  C_2
REMARK    2  A    between atoms: C_2  and  C_3
REMARK    3  A    between atoms: N_13  and  C_14
REMARK    4  A    between atoms: C_14  and  C_15
REMARK                            x       y       z     vdW  Elec       q    Type
REMARK                         _______ _______ _______ _____ _____    ______ ____
ROOT
ATOM      1  C   UNL     1       0.401   2.995  19.076  0.00  0.00    +0.000 C 
ATOM      2  C   UNL     1       1.699   3.776  19.237  0.00  0.00    +0.000 C 
ATOM      3  N   UNL     1       1.500   5.021  19.948  0.00  0.00    +0.000 N 
ATOM      4  C   UNL     1       2.214   6.052  19.393  0.00  0.00    +0.000 C 
ATOM      5  O   UNL     1       2.459   7.093  19.971  0.00  0.00    +0.000 OA
ATOM      6  N   UNL     1       2.608   5.690  18.153  0.00  0.00    +0.000 N 
ATOM      7  C   UNL     1       2.190   4.407  17.901  0.00  0.00    +0.000 C 
ATOM      8  O   UNL     1       2.301   3.809  16.837  0.00  0.00    +0.000 OA
ATOM      9  H   UNL     1       1.300   5.068  20.939  0.00  0.00    +0.000 HD
ENDROOT
BRANCH   2  10
ATOM     10  C   UNL     1       2.801   2.898  19.861  0.00  0.00    +0.000 A 
ATOM     11  C   UNL     1       3.926   2.536  19.080  0.00  0.00    +0.000 A 
ATOM     12  C   UNL     1       4.975   1.776  19.600  0.00  0.00    +0.000 A 
ATOM     13  C   UNL     1       4.922   1.327  20.910  0.00  0.00    +0.000 A 
ATOM     14  C   UNL     1       3.811   1.627  21.693  0.00  0.00    +0.000 A 
ATOM     15  C   UNL     1       2.755   2.392  21.176  0.00  0.00    +0.000 A 
ATOM     16 CL   UNL     1       1.416   2.644  22.243  0.00  0.00    +0.000 Cl
ENDBRANCH   2  10
BRANCH   6  17
ATOM     17  C   UNL     1       3.555   6.446  17.367  0.00  0.00    +0.000 C 
BRANCH  17  18
ATOM     18  C   UNL     1       4.854   5.726  17.160  0.00  0.00    +0.000 A 
ATOM     19  C   UNL     1       5.713   5.749  18.198  0.00  0.00    +0.000 A 
ATOM     20  C   UNL     1       7.129   5.411  18.098  0.00  0.00    +0.000 A 
ATOM     21  O   UNL     1       7.834   5.258  19.085  0.00  0.00    +0.000 OA
ATOM     22  O   UNL     1       7.629   5.469  16.826  0.00  0.00    +0.000 OA
ATOM     23  C   UNL     1       6.758   5.167  15.762  0.00  0.00    +0.000 A 
ATOM     24  C   UNL     1       7.453   4.745  14.651  0.00  0.00    +0.000 A 
ATOM     25  C   UNL     1       6.737   4.222  13.608  0.00  0.00    +0.000 A 
ATOM     26  C   UNL     1       5.341   4.191  13.610  0.00  0.00    +0.000 A 
ATOM     27  C   UNL     1       4.635   4.729  14.724  0.00  0.00    +0.000 A 
ATOM     28  C   UNL     1       5.355   5.206  15.856  0.00  0.00    +0.000 A 
ATOM     29  C   UNL     1       4.893   3.531  12.324  0.00  0.00    +0.000 C 
ATOM     30  C   UNL     1       6.206   2.973  11.701  0.00  0.00    +0.000 C 
ATOM     31  C   UNL     1       7.385   3.582  12.440  0.00  0.00    +0.000 C 
ENDBRANCH  17  18
ENDBRANCH   6  17
TORSDOF 3
ENDMDL
MODEL 4
REMARK VINA RESULT:      -8.1      5.310      9.332
REMARK  Name = 
REMARK  4 active torsions:
REMARK  status: ('A' for Active; 'I' for Inactive)
REMARK    1  A    between atoms: C_1  and  C_2
REMARK    2  A    between atoms: C_2  and  C_3
REMARK    3  A    between atoms: N_13  and  C_14
REMARK    4  A    between atoms: C_14  and  C_15
REMARK                            x       y       z     vdW  Elec       q    Type
REMARK                         _______ _______ _______ _____ _____    ______ ____
ROOT
ATOM      1  C   UNL     1       1.335  11.531  18.584  0.00  0.00    +0.000 C 
ATOM      2  C   UNL     1      -0.105  11.112  18.845  0.00  0.00    +0.000 C 
ATOM      3  N   UNL     1      -0.531  10.048  17.960  0.00  0.00    +0.000 N 
ATOM      4  C   UNL     1      -1.810  10.239  17.502  0.00  0.00    +0.000 C 
ATOM      5  O   UNL     1      -2.491   9.359  17.014  0.00  0.00    +0.000 OA
ATOM      6  N   UNL     1      -2.164  11.523  17.723  0.00  0.00    +0.000 N 
ATOM      7  C   UNL     1      -1.137  12.172  18.362  0.00  0.00    +0.000 C 
ATOM      8  O   UNL     1      -1.095  13.369  18.625  0.00  0.00    +0.000 OA
ATOM      9  H   UNL     1      -0.196   9.096  18.035  0.00  0.00    +0.000 HD
ENDROOT
BRANCH   2  10
ATOM     10  C   UNL     1      -0.324  10.778  20.333  0.00  0.00    +0.000 A 
ATOM     11  C   UNL     1      -1.084  11.661  21.139  0.00  0.00    +0.000 A 
ATOM     12  C   UNL     1      -1.350  11.396  22.483  0.00  0.00    +0.000 A 
ATOM     13  C   UNL     1      -0.843  10.250  23.076  0.00  0.00    +0.000 A 
ATOM     14  C   UNL     1      -0.055   9.381  22.325  0.00  0.00    +0.000 A 
ATOM     15  C   UNL     1       0.213   9.643  20.973  0.00  0.00    +0.000 A 
ATOM     16 CL   UNL     1       1.247   8.506  20.178  0.00  0.00    +0.000 Cl
ENDBRANCH   2  10
BRANCH   6  17
ATOM     17  C   UNL     1      -3.512  12.015  17.561  0.00  0.00    +0.000 C 
BRANCH  17  18
ATOM     18  C   UNL     1      -4.417  11.634  18.694  0.00  0.00    +0.000 A 
ATOM     19  C   UNL     1      -5.238  10.589  18.467  0.00  0.00    +0.000 A 
ATOM     20  C   UNL     1      -6.403  10.269  19.284  0.00  0.00    +0.000 A 
ATOM     21  O   UNL     1      -7.012   9.216  19.168  0.00  0.00    +0.000 OA
ATOM     22  O   UNL     1      -6.859  11.313  20.041  0.00  0.00    +0.000 OA
ATOM     23  C   UNL     1      -5.917  12.254  20.499  0.00  0.00    +0.000 A 
ATOM     24  C   UNL     1      -6.365  12.903  21.627  0.00  0.00    +0.000 A 
ATOM     25  C   UNL     1      -5.479  13.696  22.305  0.00  0.00    +0.000 A 
ATOM     26  C   UNL     1      -4.184  13.928  21.836  0.00  0.00    +0.000 A 
ATOM     27  C   UNL     1      -3.771  13.331  20.611  0.00  0.00    +0.000 A 
ATOM     28  C   UNL     1      -4.645  12.439  19.927  0.00  0.00    +0.000 A 
ATOM     29  C   UNL     1      -3.484  14.822  22.838  0.00  0.00    +0.000 C 
ATOM     30  C   UNL     1      -4.458  14.874  24.051  0.00  0.00    +0.000 C 
ATOM     31  C   UNL     1      -5.797  14.303  23.619  0.00  0.00    +0.000 C 
ENDBRANCH  17  18
ENDBRANCH   6  17
TORSDOF 3
ENDMDL
MODEL 5
REMARK VINA RESULT:      -8.0      1.872      4.002
REMARK  Name = 
REMARK  4 active torsions:
REMARK  status: ('A' for Active; 'I' for Inactive)
REMARK    1  A    between atoms: C_1  and  C_2
REMARK    2  A    between atoms: C_2  and  C_3
REMARK    3  A    between atoms: N_13  and  C_14
REMARK    4  A    between atoms: C_14  and  C_15
REMARK                            x       y       z     vdW  Elec       q    Type
REMARK                         _______ _______ _______ _____ _____    ______ ____
ROOT
ATOM      1  C   UNL     1       1.617  12.590  20.491  0.00  0.00    +0.000 C 
ATOM      2  C   UNL     1       0.833  11.347  20.092  0.00  0.00    +0.000 C 
ATOM      3  N   UNL     1       0.998  10.271  21.046  0.00  0.00    +0.000 N 
ATOM      4  C   UNL     1       1.146   9.054  20.432  0.00  0.00    +0.000 C 
ATOM      5  O   UNL     1       0.989   7.988  20.994  0.00  0.00    +0.000 OA
ATOM      6  N   UNL     1       1.446   9.257  19.130  0.00  0.00    +0.000 N 
ATOM      7  C   UNL     1       1.458  10.606  18.875  0.00  0.00    +0.000 C 
ATOM      8  O   UNL     1       1.785  11.135  17.819  0.00  0.00    +0.000 OA
ATOM      9  H   UNL     1       0.590  10.282  21.973  0.00  0.00    +0.000 HD
ENDROOT
BRANCH   2  10
ATOM     10  C   UNL     1      -0.646  11.687  19.821  0.00  0.00    +0.000 A 
ATOM     11  C   UNL     1      -1.189  11.446  18.536  0.00  0.00    +0.000 A 
ATOM     12  C   UNL     1      -2.531  11.696  18.239  0.00  0.00    +0.000 A 
ATOM     13  C   UNL     1      -3.368  12.222  19.210  0.00  0.00    +0.000 A 
ATOM     14  C   UNL     1      -2.856  12.513  20.472  0.00  0.00    +0.000 A 
ATOM     15  C   UNL     1      -1.510  12.261  20.775  0.00  0.00    +0.000 A 
ATOM     16 CL   UNL     1      -0.999  12.717  22.364  0.00  0.00    +0.000 Cl
ENDBRANCH   2  10
BRANCH   6  17
ATOM     17  C   UNL     1       1.459   8.204  18.143  0.00  0.00    +0.000 C 
BRANCH  17  18
ATOM     18  C   UNL     1       2.692   7.352  18.210  0.00  0.00    +0.000 A 
ATOM     19  C   UNL     1       3.733   7.763  17.458  0.00  0.00    +0.000 A 
ATOM     20  C   UNL     1       4.880   6.927  17.120  0.00  0.00    +0.000 A 
ATOM     21  O   UNL     1       5.888   7.383  16.600  0.00  0.00    +0.000 OA
ATOM     22  O   UNL     1       4.653   5.585  17.256  0.00  0.00    +0.000 OA
ATOM     23  C   UNL     1       3.750   5.168  18.252  0.00  0.00    +0.000 A 
ATOM     24  C   UNL     1       4.000   3.872  18.644  0.00  0.00    +0.000 A 
ATOM     25  C   UNL     1       3.340   3.397  19.744  0.00  0.00    +0.000 A 
ATOM     26  C   UNL     1       2.372   4.151  20.410  0.00  0.00    +0.000 A 
ATOM     27  C   UNL     1       2.051   5.452  19.928  0.00  0.00    +0.000 A 
ATOM     28  C   UNL     1       2.778   6.001  18.834  0.00  0.00    +0.000 A 
ATOM     29  C   UNL     1       1.874   3.331  21.582  0.00  0.00    +0.000 C 
ATOM     30  C   UNL     1       2.846   2.118  21.642  0.00  0.00    +0.000 C 
ATOM     31  C   UNL     1       3.655   2.085  20.356  0.00  0.00    +0.000 C 
ENDBRANCH  17  18
ENDBRANCH   6  17
TORSDOF 3
ENDMDL
MODEL 6
REMARK VINA RESULT:      -7.9      5.313     10.604
REMARK  Name = 
REMARK  4 active torsions:
REMARK  status: ('A' for Active; 'I' for Inactive)
REMARK    1  A    between atoms: C_1  and  C_2
REMARK    2  A    between atoms: C_2  and  C_3
REMARK    3  A    between atoms: N_13  and  C_14
REMARK    4  A    between atoms: C_14  and  C_15
REMARK                            x       y       z     vdW  Elec       q    Type
REMARK                         _______ _______ _______ _____ _____    ______ ____
ROOT
ATOM      1  C   UNL     1      -0.286  12.909  18.277  0.00  0.00    +0.000 C 
ATOM      2  C   UNL     1      -1.132  11.664  18.511  0.00  0.00    +0.000 C 
ATOM      3  N   UNL     1      -1.438  10.975  17.275  0.00  0.00    +0.000 N 
ATOM      4  C   UNL     1      -2.735  10.529  17.240  0.00  0.00    +0.000 C 
ATOM      5  O   UNL     1      -3.136   9.676  16.474  0.00  0.00    +0.000 OA
ATOM      6  N   UNL     1      -3.439  11.164  18.203  0.00  0.00    +0.000 N 
ATOM      7  C   UNL     1      -2.601  11.999  18.900  0.00  0.00    +0.000 C 
ATOM      8  O   UNL     1      -2.937  12.788  19.776  0.00  0.00    +0.000 OA
ATOM      9  H   UNL     1      -0.750  10.458  16.742  0.00  0.00    +0.000 HD
ENDROOT
BRANCH   2  10
ATOM     10  C   UNL     1      -0.486  10.745  19.566  0.00  0.00    +0.000 A 
ATOM     11  C   UNL     1      -0.923  10.817  20.911  0.00  0.00    +0.000 A 
ATOM     12  C   UNL     1      -0.405   9.984  21.905  0.00  0.00    +0.000 A 
ATOM     13  C   UNL     1       0.589   9.070  21.593  0.00  0.00    +0.000 A 
ATOM     14  C   UNL     1       1.074   9.003  20.290  0.00  0.00    +0.000 A 
ATOM     15  C   UNL     1       0.555   9.836  19.288  0.00  0.00    +0.000 A 
ATOM     16 CL   UNL     1       1.287   9.681  17.728  0.00  0.00    +0.000 Cl
ENDBRANCH   2  10
BRANCH   6  17
ATOM     17  C   UNL     1      -4.777  10.786  18.589  0.00  0.00    +0.000 C 
BRANCH  17  18
ATOM     18  C   UNL     1      -5.722  11.949  18.652  0.00  0.00    +0.000 A 
ATOM     19  C   UNL     1      -6.026  12.526  17.472  0.00  0.00    +0.000 A 
ATOM     20  C   UNL     1      -6.640  13.843  17.338  0.00  0.00    +0.000 A 
ATOM     21  O   UNL     1      -7.075  14.254  16.272  0.00  0.00    +0.000 OA
ATOM     22  O   UNL     1      -6.514  14.634  18.447  0.00  0.00    +0.000 OA
ATOM     23  C   UNL     1      -6.474  14.003  19.704  0.00  0.00    +0.000 A 
ATOM     24  C   UNL     1      -6.876  14.858  20.706  0.00  0.00    +0.000 A 
ATOM     25  C   UNL     1      -7.085  14.330  21.952  0.00  0.00    +0.000 A 
ATOM     26  C   UNL     1      -6.819  12.992  22.244  0.00  0.00    +0.000 A 
ATOM     27  C   UNL     1      -6.303  12.146  21.220  0.00  0.00    +0.000 A 
ATOM     28  C   UNL     1      -6.151  12.648  19.897  0.00  0.00    +0.000 A 
ATOM     29  C   UNL     1      -7.185  12.754  23.694  0.00  0.00    +0.000 C 
ATOM     30  C   UNL     1      -7.917  14.059  24.123  0.00  0.00    +0.000 C 
ATOM     31  C   UNL     1      -7.681  15.116  23.058  0.00  0.00    +0.000 C 
ENDBRANCH  17  18
ENDBRANCH   6  17
TORSDOF 3
ENDMDL
MODEL 7
REMARK VINA RESULT:      -7.7      5.970      7.580
REMARK  Name = 
REMARK  4 active torsions:
REMARK  status: ('A' for Active; 'I' for Inactive)
REMARK    1  A    between atoms: C_1  and  C_2
REMARK    2  A    between atoms: C_2  and  C_3
REMARK    3  A    between atoms: N_13  and  C_14
REMARK    4  A    between atoms: C_14  and  C_15
REMARK                            x       y       z     vdW  Elec       q    Type
REMARK                         _______ _______ _______ _____ _____    ______ ____
ROOT
ATOM      1  C   UNL     1       0.522  17.357  21.822  0.00  0.00    +0.000 C 
ATOM      2  C   UNL     1      -0.241  16.127  21.349  0.00  0.00    +0.000 C 
ATOM      3  N   UNL     1      -1.530  16.469  20.787  0.00  0.00    +0.000 N 
ATOM      4  C   UNL     1      -2.512  15.594  21.176  0.00  0.00    +0.000 C 
ATOM      5  O   UNL     1      -3.580  15.480  20.608  0.00  0.00    +0.000 OA
ATOM      6  N   UNL     1      -2.069  14.887  22.238  0.00  0.00    +0.000 N 
ATOM      7  C   UNL     1      -0.781  15.266  22.528  0.00  0.00    +0.000 C 
ATOM      8  O   UNL     1      -0.119  14.888  23.487  0.00  0.00    +0.000 OA
ATOM      9  H   UNL     1      -1.641  16.932  19.894  0.00  0.00    +0.000 HD
ENDROOT
BRANCH   2  10
ATOM     10  C   UNL     1       0.620  15.271  20.400  0.00  0.00    +0.000 A 
ATOM     11  C   UNL     1       0.017  14.670  19.267  0.00  0.00    +0.000 A 
ATOM     12  C   UNL     1       0.751  13.916  18.349  0.00  0.00    +0.000 A 
ATOM     13  C   UNL     1       2.108  13.714  18.548  0.00  0.00    +0.000 A 
ATOM     14  C   UNL     1       2.723  14.253  19.674  0.00  0.00    +0.000 A 
ATOM     15  C   UNL     1       1.991  15.013  20.598  0.00  0.00    +0.000 A 
ATOM     16 CL   UNL     1       2.873  15.577  21.975  0.00  0.00    +0.000 Cl
ENDBRANCH   2  10
BRANCH   6  17
ATOM     17  C   UNL     1      -2.757  13.735  22.769  0.00  0.00    +0.000 C 
BRANCH  17  18
ATOM     18  C   UNL     1      -2.188  12.435  22.285  0.00  0.00    +0.000 A 
ATOM     19  C   UNL     1      -1.437  11.753  23.173  0.00  0.00    +0.000 A 
ATOM     20  C   UNL     1      -0.535  10.663  22.817  0.00  0.00    +0.000 A 
ATOM     21  O   UNL     1      -0.016   9.945  23.659  0.00  0.00    +0.000 OA
ATOM     22  O   UNL     1      -0.178  10.640  21.497  0.00  0.00    +0.000 OA
ATOM     23  C   UNL     1      -1.111  11.115  20.555  0.00  0.00    +0.000 A 
ATOM     24  C   UNL     1      -0.886  10.572  19.310  0.00  0.00    +0.000 A 
ATOM     25  C   UNL     1      -1.832  10.778  18.342  0.00  0.00    +0.000 A 
ATOM     26  C   UNL     1      -2.950  11.585  18.558  0.00  0.00    +0.000 A 
ATOM     27  C   UNL     1      -3.112  12.224  19.820  0.00  0.00    +0.000 A 
ATOM     28  C   UNL     1      -2.187  11.964  20.870  0.00  0.00    +0.000 A 
ATOM     29  C   UNL     1      -3.783  11.567  17.294  0.00  0.00    +0.000 C 
ATOM     30  C   UNL     1      -3.126  10.462  16.417  0.00  0.00    +0.000 C 
ATOM     31  C   UNL     1      -1.781  10.102  17.024  0.00  0.00    +0.000 C 
ENDBRANCH  17  18
ENDBRANCH   6  17
TORSDOF 3
ENDMDL
MODEL 8
REMARK VINA RESULT:      -7.7      3.103      5.504
REMARK  Name = 
REMARK  4 active torsions:
REMARK  status: ('A' for Active; 'I' for Inactive)
REMARK    1  A    between atoms: C_1  and  C_2
REMARK    2  A    between atoms: C_2  and  C_3
REMARK    3  A    between atoms: N_13  and  C_14
REMARK    4  A    between atoms: C_14  and  C_15
REMARK                            x       y       z     vdW  Elec       q    Type
REMARK                         _______ _______ _______ _____ _____    ______ ____
ROOT
ATOM      1  C   UNL     1      -2.122  14.948  20.606  0.00  0.00    +0.000 C 
ATOM      2  C   UNL     1      -2.286  13.517  21.101  0.00  0.00    +0.000 C 
ATOM      3  N   UNL     1      -1.445  13.237  22.244  0.00  0.00    +0.000 N 
ATOM      4  C   UNL     1      -0.865  11.996  22.167  0.00  0.00    +0.000 C 
ATOM      5  O   UNL     1      -0.383  11.414  23.119  0.00  0.00    +0.000 OA
ATOM      6  N   UNL     1      -0.965  11.547  20.897  0.00  0.00    +0.000 N 
ATOM      7  C   UNL     1      -1.644  12.472  20.142  0.00  0.00    +0.000 C 
ATOM      8  O   UNL     1      -1.825  12.420  18.931  0.00  0.00    +0.000 OA
ATOM      9  H   UNL     1      -1.615  13.619  23.166  0.00  0.00    +0.000 HD
ENDROOT
BRANCH   2  10
ATOM     10  C   UNL     1      -3.770  13.184  21.351  0.00  0.00    +0.000 A 
ATOM     11  C   UNL     1      -4.536  12.599  20.313  0.00  0.00    +0.000 A 
ATOM     12  C   UNL     1      -5.873  12.239  20.491  0.00  0.00    +0.000 A 
ATOM     13  C   UNL     1      -6.498  12.476  21.705  0.00  0.00    +0.000 A 
ATOM     14  C   UNL     1      -5.788  13.090  22.733  0.00  0.00    +0.000 A 
ATOM     15  C   UNL     1      -4.444  13.452  22.560  0.00  0.00    +0.000 A 
ATOM     16 CL   UNL     1      -3.702  14.252  23.903  0.00  0.00    +0.000 Cl
ENDBRANCH   2  10
BRANCH   6  17
ATOM     17  C   UNL     1      -0.653  10.193  20.505  0.00  0.00    +0.000 C 
BRANCH  17  18
ATOM     18  C   UNL     1       0.661  10.076  19.792  0.00  0.00    +0.000 A 
ATOM     19  C   UNL     1       1.107  11.196  19.189  0.00  0.00    +0.000 A 
ATOM     20  C   UNL     1       2.164  11.221  18.184  0.00  0.00    +0.000 A 
ATOM     21  O   UNL     1       2.672  12.264  17.798  0.00  0.00    +0.000 OA
ATOM     22  O   UNL     1       2.395  10.014  17.585  0.00  0.00    +0.000 OA
ATOM     23  C   UNL     1       2.177   8.850  18.346  0.00  0.00    +0.000 A 
ATOM     24  C   UNL     1       2.915   7.791  17.865  0.00  0.00    +0.000 A 
ATOM     25  C   UNL     1       2.967   6.651  18.621  0.00  0.00    +0.000 A 
ATOM     26  C   UNL     1       2.231   6.508  19.798  0.00  0.00    +0.000 A 
ATOM     27  C   UNL     1       1.389   7.575  20.225  0.00  0.00    +0.000 A 
ATOM     28  C   UNL     1       1.377   8.801  19.502  0.00  0.00    +0.000 A 
ATOM     29  C   UNL     1       2.545   5.145  20.376  0.00  0.00    +0.000 C 
ATOM     30  C   UNL     1       3.733   4.627  19.513  0.00  0.00    +0.000 C 
ATOM     31  C   UNL     1       3.864   5.519  18.290  0.00  0.00    +0.000 C 
ENDBRANCH  17  18
ENDBRANCH   6  17
TORSDOF 3
ENDMDL
MODEL 9
REMARK VINA RESULT:      -7.6      6.183      8.363
REMARK  Name = 
REMARK  4 active torsions:
REMARK  status: ('A' for Active; 'I' for Inactive)
REMARK    1  A    between atoms: C_1  and  C_2
REMARK    2  A    between atoms: C_2  and  C_3
REMARK    3  A    between atoms: N_13  and  C_14
REMARK    4  A    between atoms: C_14  and  C_15
REMARK                            x       y       z     vdW  Elec       q    Type
REMARK                         _______ _______ _______ _____ _____    ______ ____
ROOT
ATOM      1  C   UNL     1      -6.320  14.322  20.850  0.00  0.00    +0.000 C 
ATOM      2  C   UNL     1      -5.136  13.416  21.161  0.00  0.00    +0.000 C 
ATOM      3  N   UNL     1      -5.306  12.709  22.412  0.00  0.00    +0.000 N 
ATOM      4  C   UNL     1      -4.145  12.664  23.142  0.00  0.00    +0.000 C 
ATOM      5  O   UNL     1      -3.949  11.882  24.052  0.00  0.00    +0.000 OA
ATOM      6  N   UNL     1      -3.287  13.584  22.651  0.00  0.00    +0.000 N 
ATOM      7  C   UNL     1      -3.863  14.211  21.574  0.00  0.00    +0.000 C 
ATOM      8  O   UNL     1      -3.392  15.160  20.958  0.00  0.00    +0.000 OA
ATOM      9  H   UNL     1      -5.969  11.955  22.538  0.00  0.00    +0.000 HD
ENDROOT
BRANCH   2  10
ATOM     10  C   UNL     1      -4.830  12.477  19.978  0.00  0.00    +0.000 A 
ATOM     11  C   UNL     1      -3.511  12.411  19.467  0.00  0.00    +0.000 A 
ATOM     12  C   UNL     1      -3.162  11.552  18.422  0.00  0.00    +0.000 A 
ATOM     13  C   UNL     1      -4.128  10.750  17.835  0.00  0.00    +0.000 A 
ATOM     14  C   UNL     1      -5.444  10.822  18.283  0.00  0.00    +0.000 A 
ATOM     15  C   UNL     1      -5.798  11.682  19.333  0.00  0.00    +0.000 A 
ATOM     16 CL   UNL     1      -7.477  11.706  19.751  0.00  0.00    +0.000 Cl
ENDBRANCH   2  10
BRANCH   6  17
ATOM     17  C   UNL     1      -1.899  13.664  23.040  0.00  0.00    +0.000 C 
BRANCH  17  18
ATOM     18  C   UNL     1      -0.979  12.969  22.081  0.00  0.00    +0.000 A 
ATOM     19  C   UNL     1      -0.926  11.625  22.183  0.00  0.00    +0.000 A 
ATOM     20  C   UNL     1       0.123  10.799  21.595  0.00  0.00    +0.000 A 
ATOM     21  O   UNL     1       0.040   9.581  21.544  0.00  0.00    +0.000 OA
ATOM     22  O   UNL     1       1.267  11.483  21.288  0.00  0.00    +0.000 OA
ATOM     23  C   UNL     1       1.145  12.835  20.914  0.00  0.00    +0.000 A 
ATOM     24  C   UNL     1       2.214  13.240  20.147  0.00  0.00    +0.000 A 
ATOM     25  C   UNL     1       2.138  14.464  19.539  0.00  0.00    +0.000 A 
ATOM     26  C   UNL     1       1.063  15.330  19.748  0.00  0.00    +0.000 A 
ATOM     27  C   UNL     1       0.015  14.936  20.628  0.00  0.00    +0.000 A 
ATOM     28  C   UNL     1       0.029  13.638  21.211  0.00  0.00    +0.000 A 
ATOM     29  C   UNL     1       1.298  16.568  18.908  0.00  0.00    +0.000 C 
ATOM     30  C   UNL     1       2.516  16.198  18.013  0.00  0.00    +0.000 C 
ATOM     31  C   UNL     1       3.147  14.928  18.558  0.00  0.00    +0.000 C 
ENDBRANCH  17  18
ENDBRANCH   6  17
TORSDOF 3
ENDMDL
