MODEL 1
REMARK VINA RESULT:      -8.8      0.000      0.000
REMARK  Name = 
REMARK  7 active torsions:
REMARK  status: ('A' for Active; 'I' for Inactive)
REMARK    1  A    between atoms: C_1  and  C_2
REMARK    2  A    between atoms: C_7  and  C_8
REMARK    3  A    between atoms: C_10  and  N_11
REMARK    4  A    between atoms: C_12  and  C_14
REMARK    5  A    between atoms: C_18  and  C_19
REMARK    6  A    between atoms: C_19  and  S_20
REMARK    7  A    between atoms: S_20  and  N_21
REMARK                            x       y       z     vdW  Elec       q    Type
REMARK                         _______ _______ _______ _____ _____    ______ ____
ROOT
ATOM      1  N   UNL     1       2.026   7.626  19.650  0.00  0.00    +0.000 N 
ATOM      2  C   UNL     1       2.115   6.208  19.895  0.00  0.00    +0.000 C 
ATOM      3  O   UNL     1       1.679   5.713  20.922  0.00  0.00    +0.000 OA
ATOM      4  H   UNL     1       2.310   8.006  18.755  0.00  0.00    +0.000 HD
ENDROOT
BRANCH   1   7
ATOM      5  C   UNL     1       0.494  10.167  21.706  0.00  0.00    +0.000 A 
ATOM      6  C   UNL     1       0.693   9.587  20.426  0.00  0.00    +0.000 A 
ATOM      7  C   UNL     1       1.523   8.510  20.606  0.00  0.00    +0.000 A 
ATOM      8  N   UNL     1       1.766   8.481  21.951  0.00  0.00    +0.000 N 
ATOM      9  N   UNL     1       1.184   9.486  22.638  0.00  0.00    +0.000 NA
ATOM     10  H   UNL     1       2.320   7.818  22.483  0.00  0.00    +0.000 HD
BRANCH   5  17
ATOM     11  C   UNL     1      -3.446  12.297  23.930  0.00  0.00    +0.000 C 
ATOM     12  C   UNL     1      -2.206  12.415  23.098  0.00  0.00    +0.000 A 
ATOM     13  C   UNL     1      -1.733  13.674  22.695  0.00  0.00    +0.000 A 
ATOM     14  C   UNL     1      -0.568  13.776  21.940  0.00  0.00    +0.000 A 
ATOM     15  C   UNL     1       0.133  12.624  21.597  0.00  0.00    +0.000 A 
ATOM     16  F   UNL     1       1.250  12.770  20.870  0.00  0.00    +0.000 F 
ATOM     17  C   UNL     1      -0.302  11.355  21.997  0.00  0.00    +0.000 A 
ATOM     18  C   UNL     1      -1.487  11.257  22.740  0.00  0.00    +0.000 A 
ENDBRANCH   5  17
ENDBRANCH   1   7
BRANCH   2  19
ATOM     19  C   UNL     1       2.751   5.351  18.872  0.00  0.00    +0.000 A 
ATOM     20  C   UNL     1       2.307   4.061  18.566  0.00  0.00    +0.000 A 
ATOM     21  C   UNL     1       2.898   3.365  17.506  0.00  0.00    +0.000 A 
ATOM     22  C   UNL     1       3.898   3.962  16.734  0.00  0.00    +0.000 A 
ATOM     23  C   UNL     1       4.325   5.264  17.012  0.00  0.00    +0.000 A 
ATOM     24  C   UNL     1       3.772   5.936  18.107  0.00  0.00    +0.000 A 
BRANCH  23  25
ATOM     25  C   UNL     1       5.260   5.991  16.089  0.00  0.00    +0.000 C 
BRANCH  25  26
ATOM     26  S   UNL     1       6.949   5.484  16.316  0.00  0.00    +0.000 S 
ATOM     27  O   UNL     1       7.052   4.572  17.432  0.00  0.00    +0.000 OA
ATOM     28  O   UNL     1       7.568   5.226  15.037  0.00  0.00    +0.000 OA
BRANCH  26  29
ATOM     29  N   UNL     1       7.569   6.953  16.852  0.00  0.00    +0.000 NA
ATOM     30  H   UNL     1       7.527   7.076  17.862  0.00  0.00    +0.000 HD
ATOM     31  H   UNL     1       8.421   7.243  16.374  0.00  0.00    +0.000 HD
ENDBRANCH  26  29
ENDBRANCH  25  26
ENDBRANCH  23  25
ENDBRANCH   2  19
TORSDOF 6
ENDMDL
MODEL 2
REMARK VINA RESULT:      -8.7      1.186      1.828
REMARK  Name = 
REMARK  7 active torsions:
REMARK  status: ('A' for Active; 'I' for Inactive)
REMARK    1  A    between atoms: C_1  and  C_2
REMARK    2  A    between atoms: C_7  and  C_8
REMARK    3  A    between atoms: C_10  and  N_11
REMARK    4  A    between atoms: C_12  and  C_14
REMARK    5  A    between atoms: C_18  and  C_19
REMARK    6  A    between atoms: C_19  and  S_20
REMARK    7  A    between atoms: S_20  and  N_21
REMARK                            x       y       z     vdW  Elec       q    Type
REMARK                         _______ _______ _______ _____ _____    ______ ____
ROOT
ATOM      1  N   UNL     1       2.061   7.559  19.568  0.00  0.00    +0.000 N 
ATOM      2  C   UNL     1       2.203   6.152  19.845  0.00  0.00    +0.000 C 
ATOM      3  O   UNL     1       1.826   5.672  20.902  0.00  0.00    +0.000 OA
ATOM      4  H   UNL     1       2.296   7.924  18.652  0.00  0.00    +0.000 HD
ENDROOT
BRANCH   1   7
ATOM      5  C   UNL     1       0.573  10.131  21.619  0.00  0.00    +0.000 A 
ATOM      6  C   UNL     1       0.764   9.546  20.339  0.00  0.00    +0.000 A 
ATOM      7  C   UNL     1       1.573   8.454  20.522  0.00  0.00    +0.000 A 
ATOM      8  N   UNL     1       1.811   8.420  21.868  0.00  0.00    +0.000 N 
ATOM      9  N   UNL     1       1.246   9.437  22.553  0.00  0.00    +0.000 NA
ATOM     10  H   UNL     1       2.351   7.747  22.402  0.00  0.00    +0.000 HD
BRANCH   5  17
ATOM     11  C   UNL     1      -0.505  14.917  20.652  0.00  0.00    +0.000 C 
ATOM     12  C   UNL     1      -0.759  13.662  21.430  0.00  0.00    +0.000 A 
ATOM     13  C   UNL     1      -1.816  13.594  22.350  0.00  0.00    +0.000 A 
ATOM     14  C   UNL     1      -2.058  12.417  23.053  0.00  0.00    +0.000 A 
ATOM     15  C   UNL     1      -1.254  11.304  22.830  0.00  0.00    +0.000 A 
ATOM     16  F   UNL     1      -1.524  10.191  23.528  0.00  0.00    +0.000 F 
ATOM     17  C   UNL     1      -0.201  11.333  21.907  0.00  0.00    +0.000 A 
ATOM     18  C   UNL     1       0.050  12.527  21.216  0.00  0.00    +0.000 A 
ENDBRANCH   5  17
ENDBRANCH   1   7
BRANCH   2  19
ATOM     19  C   UNL     1       2.822   5.287  18.818  0.00  0.00    +0.000 A 
ATOM     20  C   UNL     1       2.363   4.001  18.518  0.00  0.00    +0.000 A 
ATOM     21  C   UNL     1       2.937   3.297  17.454  0.00  0.00    +0.000 A 
ATOM     22  C   UNL     1       3.935   3.883  16.671  0.00  0.00    +0.000 A 
ATOM     23  C   UNL     1       4.376   5.182  16.942  0.00  0.00    +0.000 A 
ATOM     24  C   UNL     1       3.841   5.861  18.041  0.00  0.00    +0.000 A 
BRANCH  23  25
ATOM     25  C   UNL     1       5.309   5.898  16.009  0.00  0.00    +0.000 C 
BRANCH  25  26
ATOM     26  S   UNL     1       7.013   5.666  16.460  0.00  0.00    +0.000 S 
ATOM     27  O   UNL     1       7.629   6.939  16.762  0.00  0.00    +0.000 OA
ATOM     28  O   UNL     1       7.149   4.511  17.315  0.00  0.00    +0.000 OA
BRANCH  26  29
ATOM     29  N   UNL     1       7.599   5.207  14.951  0.00  0.00    +0.000 NA
ATOM     30  H   UNL     1       8.048   5.962  14.434  0.00  0.00    +0.000 HD
ATOM     31  H   UNL     1       8.050   4.294  14.942  0.00  0.00    +0.000 HD
ENDBRANCH  26  29
ENDBRANCH  25  26
ENDBRANCH  23  25
ENDBRANCH   2  19
TORSDOF 6
ENDMDL
MODEL 3
REMARK VINA RESULT:      -8.7      1.260      1.277
REMARK  Name = 
REMARK  7 active torsions:
REMARK  status: ('A' for Active; 'I' for Inactive)
REMARK    1  A    between atoms: C_1  and  C_2
REMARK    2  A    between atoms: C_7  and  C_8
REMARK    3  A    between atoms: C_10  and  N_11
REMARK    4  A    between atoms: C_12  and  C_14
REMARK    5  A    between atoms: C_18  and  C_19
REMARK    6  A    between atoms: C_19  and  S_20
REMARK    7  A    between atoms: S_20  and  N_21
REMARK                            x       y       z     vdW  Elec       q    Type
REMARK                         _______ _______ _______ _____ _____    ______ ____
ROOT
ATOM      1  N   UNL     1       1.630   7.189  20.722  0.00  0.00    +0.000 N 
ATOM      2  C   UNL     1       2.186   7.270  19.394  0.00  0.00    +0.000 C 
ATOM      3  O   UNL     1       2.295   8.340  18.816  0.00  0.00    +0.000 OA
ATOM      4  H   UNL     1       1.630   6.307  21.221  0.00  0.00    +0.000 HD
ENDROOT
BRANCH   1   7
ATOM      5  C   UNL     1      -0.073  10.104  22.002  0.00  0.00    +0.000 A 
ATOM      6  C   UNL     1       0.026   9.076  21.027  0.00  0.00    +0.000 A 
ATOM      7  C   UNL     1       1.109   8.309  21.373  0.00  0.00    +0.000 A 
ATOM      8  N   UNL     1       1.588   8.882  22.519  0.00  0.00    +0.000 N 
ATOM      9  N   UNL     1       0.914   9.985  22.906  0.00  0.00    +0.000 NA
ATOM     10  H   UNL     1       2.371   8.592  23.095  0.00  0.00    +0.000 HD
BRANCH   5  17
ATOM     11  C   UNL     1      -3.758  12.539  24.348  0.00  0.00    +0.000 C 
ATOM     12  C   UNL     1      -2.848  12.389  23.167  0.00  0.00    +0.000 A 
ATOM     13  C   UNL     1      -2.857  13.340  22.134  0.00  0.00    +0.000 A 
ATOM     14  C   UNL     1      -1.993  13.205  21.051  0.00  0.00    +0.000 A 
ATOM     15  C   UNL     1      -1.111  12.129  21.003  0.00  0.00    +0.000 A 
ATOM     16  F   UNL     1      -0.297  12.040  19.941  0.00  0.00    +0.000 F 
ATOM     17  C   UNL     1      -1.065  11.173  22.024  0.00  0.00    +0.000 A 
ATOM     18  C   UNL     1      -1.952  11.303  23.103  0.00  0.00    +0.000 A 
ENDBRANCH   5  17
ENDBRANCH   1   7
BRANCH   2  19
ATOM     19  C   UNL     1       2.625   6.023  18.733  0.00  0.00    +0.000 A 
ATOM     20  C   UNL     1       1.800   4.905  18.574  0.00  0.00    +0.000 A 
ATOM     21  C   UNL     1       2.261   3.810  17.837  0.00  0.00    +0.000 A 
ATOM     22  C   UNL     1       3.521   3.841  17.231  0.00  0.00    +0.000 A 
ATOM     23  C   UNL     1       4.339   4.968  17.356  0.00  0.00    +0.000 A 
ATOM     24  C   UNL     1       3.898   6.038  18.142  0.00  0.00    +0.000 A 
BRANCH  23  25
ATOM     25  C   UNL     1       5.609   5.100  16.567  0.00  0.00    +0.000 C 
BRANCH  25  26
ATOM     26  S   UNL     1       7.051   4.859  17.579  0.00  0.00    +0.000 S 
ATOM     27  O   UNL     1       6.668   4.401  18.896  0.00  0.00    +0.000 OA
ATOM     28  O   UNL     1       8.102   4.234  16.810  0.00  0.00    +0.000 OA
BRANCH  26  29
ATOM     29  N   UNL     1       7.492   6.473  17.754  0.00  0.00    +0.000 NA
ATOM     30  H   UNL     1       7.144   7.080  17.013  0.00  0.00    +0.000 HD
ATOM     31  H   UNL     1       7.436   6.816  18.711  0.00  0.00    +0.000 HD
ENDBRANCH  26  29
ENDBRANCH  25  26
ENDBRANCH  23  25
ENDBRANCH   2  19
TORSDOF 6
ENDMDL
MODEL 4
REMARK VINA RESULT:      -8.7      1.033      1.077
REMARK  Name = 
REMARK  7 active torsions:
REMARK  status: ('A' for Active; 'I' for Inactive)
REMARK    1  A    between atoms: C_1  and  C_2
REMARK    2  A    between atoms: C_7  and  C_8
REMARK    3  A    between atoms: C_10  and  N_11
REMARK    4  A    between atoms: C_12  and  C_14
REMARK    5  A    between atoms: C_18  and  C_19
REMARK    6  A    between atoms: C_19  and  S_20
REMARK    7  A    between atoms: S_20  and  N_21
REMARK                            x       y       z     vdW  Elec       q    Type
REMARK                         _______ _______ _______ _____ _____    ______ ____
ROOT
ATOM      1  N   UNL     1       2.126   7.502  19.668  0.00  0.00    +0.000 N 
ATOM      2  C   UNL     1       2.136   6.083  19.921  0.00  0.00    +0.000 C 
ATOM      3  O   UNL     1       1.623   5.613  20.924  0.00  0.00    +0.000 OA
ATOM      4  H   UNL     1       2.475   7.865  18.789  0.00  0.00    +0.000 HD
ENDROOT
BRANCH   1   7
ATOM      5  C   UNL     1       0.569  10.098  21.636  0.00  0.00    +0.000 A 
ATOM      6  C   UNL     1       0.778   9.479  20.375  0.00  0.00    +0.000 A 
ATOM      7  C   UNL     1       1.613   8.413  20.594  0.00  0.00    +0.000 A 
ATOM      8  N   UNL     1       1.849   8.427  21.941  0.00  0.00    +0.000 N 
ATOM      9  N   UNL     1       1.258   9.451  22.592  0.00  0.00    +0.000 NA
ATOM     10  H   UNL     1       2.405   7.785  22.495  0.00  0.00    +0.000 HD
BRANCH   5  17
ATOM     11  C   UNL     1      -3.357  12.287  23.827  0.00  0.00    +0.000 C 
ATOM     12  C   UNL     1      -2.132  12.380  22.969  0.00  0.00    +0.000 A 
ATOM     13  C   UNL     1      -1.681  13.623  22.501  0.00  0.00    +0.000 A 
ATOM     14  C   UNL     1      -0.530  13.702  21.721  0.00  0.00    +0.000 A 
ATOM     15  C   UNL     1       0.179  12.543  21.420  0.00  0.00    +0.000 A 
ATOM     16  F   UNL     1       1.282  12.667  20.668  0.00  0.00    +0.000 F 
ATOM     17  C   UNL     1      -0.235  11.289  21.886  0.00  0.00    +0.000 A 
ATOM     18  C   UNL     1      -1.406  11.213  22.653  0.00  0.00    +0.000 A 
ENDBRANCH   5  17
ENDBRANCH   1   7
BRANCH   2  19
ATOM     19  C   UNL     1       2.787   5.193  18.937  0.00  0.00    +0.000 A 
ATOM     20  C   UNL     1       2.077   4.385  18.044  0.00  0.00    +0.000 A 
ATOM     21  C   UNL     1       2.773   3.659  17.071  0.00  0.00    +0.000 A 
ATOM     22  C   UNL     1       4.163   3.766  16.965  0.00  0.00    +0.000 A 
ATOM     23  C   UNL     1       4.878   4.597  17.832  0.00  0.00    +0.000 A 
ATOM     24  C   UNL     1       4.185   5.277  18.839  0.00  0.00    +0.000 A 
BRANCH  23  25
ATOM     25  C   UNL     1       6.339   4.870  17.621  0.00  0.00    +0.000 C 
BRANCH  25  26
ATOM     26  S   UNL     1       6.611   6.189  16.459  0.00  0.00    +0.000 S 
ATOM     27  O   UNL     1       5.361   6.582  15.848  0.00  0.00    +0.000 OA
ATOM     28  O   UNL     1       7.550   7.143  16.998  0.00  0.00    +0.000 OA
BRANCH  26  29
ATOM     29  N   UNL     1       7.447   5.310  15.294  0.00  0.00    +0.000 NA
ATOM     30  H   UNL     1       8.133   4.661  15.677  0.00  0.00    +0.000 HD
ATOM     31  H   UNL     1       6.866   4.984  14.524  0.00  0.00    +0.000 HD
ENDBRANCH  26  29
ENDBRANCH  25  26
ENDBRANCH  23  25
ENDBRANCH   2  19
TORSDOF 6
ENDMDL
MODEL 5
REMARK VINA RESULT:      -8.7      1.284      1.361
REMARK  Name = 
REMARK  7 active torsions:
REMARK  status: ('A' for Active; 'I' for Inactive)
REMARK    1  A    between atoms: C_1  and  C_2
REMARK    2  A    between atoms: C_7  and  C_8
REMARK    3  A    between atoms: C_10  and  N_11
REMARK    4  A    between atoms: C_12  and  C_14
REMARK    5  A    between atoms: C_18  and  C_19
REMARK    6  A    between atoms: C_19  and  S_20
REMARK    7  A    between atoms: S_20  and  N_21
REMARK                            x       y       z     vdW  Elec       q    Type
REMARK                         _______ _______ _______ _____ _____    ______ ____
ROOT
ATOM      1  N   UNL     1       1.815   7.057  20.552  0.00  0.00    +0.000 N 
ATOM      2  C   UNL     1       2.411   7.118  19.241  0.00  0.00    +0.000 C 
ATOM      3  O   UNL     1       2.558   8.181  18.659  0.00  0.00    +0.000 OA
ATOM      4  H   UNL     1       1.784   6.178  21.056  0.00  0.00    +0.000 HD
ENDROOT
BRANCH   1   7
ATOM      5  C   UNL     1       0.107   9.989  21.784  0.00  0.00    +0.000 A 
ATOM      6  C   UNL     1       0.193   8.930  20.841  0.00  0.00    +0.000 A 
ATOM      7  C   UNL     1       1.297   8.190  21.181  0.00  0.00    +0.000 A 
ATOM      8  N   UNL     1       1.801   8.808  22.292  0.00  0.00    +0.000 N 
ATOM      9  N   UNL     1       1.122   9.915  22.662  0.00  0.00    +0.000 NA
ATOM     10  H   UNL     1       2.605   8.549  22.854  0.00  0.00    +0.000 HD
BRANCH   5  17
ATOM     11  C   UNL     1      -3.512  12.480  24.172  0.00  0.00    +0.000 C 
ATOM     12  C   UNL     1      -2.651  12.288  22.961  0.00  0.00    +0.000 A 
ATOM     13  C   UNL     1      -2.719  13.189  21.887  0.00  0.00    +0.000 A 
ATOM     14  C   UNL     1      -1.900  13.015  20.775  0.00  0.00    +0.000 A 
ATOM     15  C   UNL     1      -1.004  11.951  20.738  0.00  0.00    +0.000 A 
ATOM     16  F   UNL     1      -0.235  11.823  19.648  0.00  0.00    +0.000 F 
ATOM     17  C   UNL     1      -0.900  11.044  21.800  0.00  0.00    +0.000 A 
ATOM     18  C   UNL     1      -1.742  11.213  22.909  0.00  0.00    +0.000 A 
ENDBRANCH   5  17
ENDBRANCH   1   7
BRANCH   2  19
ATOM     19  C   UNL     1       2.845   5.858  18.601  0.00  0.00    +0.000 A 
ATOM     20  C   UNL     1       1.958   4.932  18.045  0.00  0.00    +0.000 A 
ATOM     21  C   UNL     1       2.462   3.822  17.360  0.00  0.00    +0.000 A 
ATOM     22  C   UNL     1       3.841   3.654  17.197  0.00  0.00    +0.000 A 
ATOM     23  C   UNL     1       4.735   4.593  17.720  0.00  0.00    +0.000 A 
ATOM     24  C   UNL     1       4.229   5.671  18.453  0.00  0.00    +0.000 A 
BRANCH  23  25
ATOM     25  C   UNL     1       6.201   4.534  17.401  0.00  0.00    +0.000 C 
BRANCH  25  26
ATOM     26  S   UNL     1       6.616   5.525  15.984  0.00  0.00    +0.000 S 
ATOM     27  O   UNL     1       7.548   4.818  15.135  0.00  0.00    +0.000 OA
ATOM     28  O   UNL     1       5.437   6.182  15.473  0.00  0.00    +0.000 OA
BRANCH  26  29
ATOM     29  N   UNL     1       7.510   6.710  16.777  0.00  0.00    +0.000 NA
ATOM     30  H   UNL     1       6.950   7.486  17.126  0.00  0.00    +0.000 HD
ATOM     31  H   UNL     1       8.239   6.342  17.385  0.00  0.00    +0.000 HD
ENDBRANCH  26  29
ENDBRANCH  25  26
ENDBRANCH  23  25
ENDBRANCH   2  19
TORSDOF 6
ENDMDL
MODEL 6
REMARK VINA RESULT:      -8.6      2.309      2.877
REMARK  Name = 
REMARK  7 active torsions:
REMARK  status: ('A' for Active; 'I' for Inactive)
REMARK    1  A    between atoms: C_1  and  C_2
REMARK    2  A    between atoms: C_7  and  C_8
REMARK    3  A    between atoms: C_10  and  N_11
REMARK    4  A    between atoms: C_12  and  C_14
REMARK    5  A    between atoms: C_18  and  C_19
REMARK    6  A    between atoms: C_19  and  S_20
REMARK    7  A    between atoms: S_20  and  N_21
REMARK                            x       y       z     vdW  Elec       q    Type
REMARK                         _______ _______ _______ _____ _____    ______ ____
ROOT
ATOM      1  N   UNL     1       1.513   8.758  19.927  0.00  0.00    +0.000 N 
ATOM      2  C   UNL     1       1.854   7.359  19.997  0.00  0.00    +0.000 C 
ATOM      3  O   UNL     1       1.536   6.676  20.957  0.00  0.00    +0.000 OA
ATOM      4  H   UNL     1       1.705   9.286  19.084  0.00  0.00    +0.000 HD
ENDROOT
BRANCH   1   7
ATOM      5  C   UNL     1      -0.298  10.805  22.285  0.00  0.00    +0.000 A 
ATOM      6  C   UNL     1       0.059  10.512  20.942  0.00  0.00    +0.000 A 
ATOM      7  C   UNL     1       0.885   9.418  20.984  0.00  0.00    +0.000 A 
ATOM      8  N   UNL     1       0.973   9.100  22.311  0.00  0.00    +0.000 N 
ATOM      9  N   UNL     1       0.295   9.938  23.124  0.00  0.00    +0.000 NA
ATOM     10  H   UNL     1       1.477   8.337  22.750  0.00  0.00    +0.000 HD
BRANCH   5  17
ATOM     11  C   UNL     1      -4.475  12.425  24.507  0.00  0.00    +0.000 C 
ATOM     12  C   UNL     1      -3.169  12.714  23.833  0.00  0.00    +0.000 A 
ATOM     13  C   UNL     1      -2.694  14.031  23.731  0.00  0.00    +0.000 A 
ATOM     14  C   UNL     1      -1.468  14.288  23.123  0.00  0.00    +0.000 A 
ATOM     15  C   UNL     1      -0.710  13.233  22.627  0.00  0.00    +0.000 A 
ATOM     16  F   UNL     1       0.464  13.527  22.050  0.00  0.00    +0.000 F 
ATOM     17  C   UNL     1      -1.146  11.906  22.728  0.00  0.00    +0.000 A 
ATOM     18  C   UNL     1      -2.391  11.654  23.324  0.00  0.00    +0.000 A 
ENDBRANCH   5  17
ENDBRANCH   1   7
BRANCH   2  19
ATOM     19  C   UNL     1       2.607   6.756  18.876  0.00  0.00    +0.000 A 
ATOM     20  C   UNL     1       3.548   7.457  18.117  0.00  0.00    +0.000 A 
ATOM     21  C   UNL     1       4.295   6.777  17.149  0.00  0.00    +0.000 A 
ATOM     22  C   UNL     1       4.132   5.402  16.964  0.00  0.00    +0.000 A 
ATOM     23  C   UNL     1       3.217   4.686  17.742  0.00  0.00    +0.000 A 
ATOM     24  C   UNL     1       2.432   5.379  18.669  0.00  0.00    +0.000 A 
BRANCH  23  25
ATOM     25  C   UNL     1       3.156   3.186  17.691  0.00  0.00    +0.000 C 
BRANCH  25  26
ATOM     26  S   UNL     1       3.782   2.442  19.180  0.00  0.00    +0.000 S 
ATOM     27  O   UNL     1       5.010   3.089  19.584  0.00  0.00    +0.000 OA
ATOM     28  O   UNL     1       2.699   2.178  20.098  0.00  0.00    +0.000 OA
BRANCH  26  29
ATOM     29  N   UNL     1       4.226   0.954  18.534  0.00  0.00    +0.000 NA
ATOM     30  H   UNL     1       4.116   0.892  17.522  0.00  0.00    +0.000 HD
ATOM     31  H   UNL     1       5.072   0.560  18.942  0.00  0.00    +0.000 HD
ENDBRANCH  26  29
ENDBRANCH  25  26
ENDBRANCH  23  25
ENDBRANCH   2  19
TORSDOF 6
ENDMDL
MODEL 7
REMARK VINA RESULT:      -8.5      1.379      1.444
REMARK  Name = 
REMARK  7 active torsions:
REMARK  status: ('A' for Active; 'I' for Inactive)
REMARK    1  A    between atoms: C_1  and  C_2
REMARK    2  A    between atoms: C_7  and  C_8
REMARK    3  A    between atoms: C_10  and  N_11
REMARK    4  A    between atoms: C_12  and  C_14
REMARK    5  A    between atoms: C_18  and  C_19
REMARK    6  A    between atoms: C_19  and  S_20
REMARK    7  A    between atoms: S_20  and  N_21
REMARK                            x       y       z     vdW  Elec       q    Type
REMARK                         _______ _______ _______ _____ _____    ______ ____
ROOT
ATOM      1  N   UNL     1       2.067   7.167  20.530  0.00  0.00    +0.000 N 
ATOM      2  C   UNL     1       2.426   7.155  19.134  0.00  0.00    +0.000 C 
ATOM      3  O   UNL     1       2.285   8.146  18.435  0.00  0.00    +0.000 OA
ATOM      4  H   UNL     1       2.274   6.366  21.116  0.00  0.00    +0.000 HD
ENDROOT
BRANCH   1   7
ATOM      5  C   UNL     1       0.176  10.033  21.645  0.00  0.00    +0.000 A 
ATOM      6  C   UNL     1       0.382   8.999  20.693  0.00  0.00    +0.000 A 
ATOM      7  C   UNL     1       1.462   8.274  21.128  0.00  0.00    +0.000 A 
ATOM      8  N   UNL     1       1.836   8.875  22.298  0.00  0.00    +0.000 N 
ATOM      9  N   UNL     1       1.098   9.959  22.621  0.00  0.00    +0.000 NA
ATOM     10  H   UNL     1       2.584   8.619  22.933  0.00  0.00    +0.000 HD
BRANCH   5  17
ATOM     11  C   UNL     1      -3.335  12.790  23.900  0.00  0.00    +0.000 C 
ATOM     12  C   UNL     1      -2.551  12.440  22.673  0.00  0.00    +0.000 A 
ATOM     13  C   UNL     1      -2.708  13.178  21.490  0.00  0.00    +0.000 A 
ATOM     14  C   UNL     1      -1.960  12.859  20.360  0.00  0.00    +0.000 A 
ATOM     15  C   UNL     1      -1.045  11.813  20.412  0.00  0.00    +0.000 A 
ATOM     16  F   UNL     1      -0.346  11.542  19.301  0.00  0.00    +0.000 F 
ATOM     17  C   UNL     1      -0.852  11.066  21.581  0.00  0.00    +0.000 A 
ATOM     18  C   UNL     1      -1.622  11.379  22.710  0.00  0.00    +0.000 A 
ENDBRANCH   5  17
ENDBRANCH   1   7
BRANCH   2  19
ATOM     19  C   UNL     1       2.970   5.910  18.553  0.00  0.00    +0.000 A 
ATOM     20  C   UNL     1       2.457   4.641  18.835  0.00  0.00    +0.000 A 
ATOM     21  C   UNL     1       2.961   3.528  18.154  0.00  0.00    +0.000 A 
ATOM     22  C   UNL     1       3.944   3.682  17.173  0.00  0.00    +0.000 A 
ATOM     23  C   UNL     1       4.440   4.951  16.860  0.00  0.00    +0.000 A 
ATOM     24  C   UNL     1       3.975   6.054  17.583  0.00  0.00    +0.000 A 
BRANCH  23  25
ATOM     25  C   UNL     1       5.356   5.163  15.689  0.00  0.00    +0.000 C 
BRANCH  25  26
ATOM     26  S   UNL     1       7.017   5.539  16.201  0.00  0.00    +0.000 S 
ATOM     27  O   UNL     1       7.118   6.928  16.589  0.00  0.00    +0.000 OA
ATOM     28  O   UNL     1       7.547   4.463  17.004  0.00  0.00    +0.000 OA
BRANCH  26  29
ATOM     29  N   UNL     1       7.762   5.416  14.698  0.00  0.00    +0.000 NA
ATOM     30  H   UNL     1       7.442   4.626  14.140  0.00  0.00    +0.000 HD
ATOM     31  H   UNL     1       7.889   6.309  14.224  0.00  0.00    +0.000 HD
ENDBRANCH  26  29
ENDBRANCH  25  26
ENDBRANCH  23  25
ENDBRANCH   2  19
TORSDOF 6
ENDMDL
MODEL 8
REMARK VINA RESULT:      -8.5      6.676      8.452
REMARK  Name = 
REMARK  7 active torsions:
REMARK  status: ('A' for Active; 'I' for Inactive)
REMARK    1  A    between atoms: C_1  and  C_2
REMARK    2  A    between atoms: C_7  and  C_8
REMARK    3  A    between atoms: C_10  and  N_11
REMARK    4  A    between atoms: C_12  and  C_14
REMARK    5  A    between atoms: C_18  and  C_19
REMARK    6  A    between atoms: C_19  and  S_20
REMARK    7  A    between atoms: S_20  and  N_21
REMARK                            x       y       z     vdW  Elec       q    Type
REMARK                         _______ _______ _______ _____ _____    ______ ____
ROOT
ATOM      1  N   UNL     1       7.494   8.388  17.474  0.00  0.00    +0.000 N 
ATOM      2  C   UNL     1       7.512   7.010  17.894  0.00  0.00    +0.000 C 
ATOM      3  O   UNL     1       8.173   6.647  18.855  0.00  0.00    +0.000 OA
ATOM      4  H   UNL     1       6.872   8.686  16.732  0.00  0.00    +0.000 HD
ENDROOT
BRANCH   1   7
ATOM      5  C   UNL     1       9.463  11.193  18.613  0.00  0.00    +0.000 A 
ATOM      6  C   UNL     1       8.595  10.621  17.645  0.00  0.00    +0.000 A 
ATOM      7  C   UNL     1       8.296   9.356  18.083  0.00  0.00    +0.000 A 
ATOM      8  N   UNL     1       8.963   9.233  19.270  0.00  0.00    +0.000 N 
ATOM      9  N   UNL     1       9.701  10.314  19.602  0.00  0.00    +0.000 NA
ATOM     10  H   UNL     1       8.978   8.448  19.913  0.00  0.00    +0.000 HD
BRANCH   5  17
ATOM     11  C   UNL     1       9.159  16.114  19.447  0.00  0.00    +0.000 C 
ATOM     12  C   UNL     1       9.938  14.924  18.977  0.00  0.00    +0.000 A 
ATOM     13  C   UNL     1      11.281  15.056  18.592  0.00  0.00    +0.000 A 
ATOM     14  C   UNL     1      12.004  13.941  18.177  0.00  0.00    +0.000 A 
ATOM     15  C   UNL     1      11.393  12.692  18.159  0.00  0.00    +0.000 A 
ATOM     16  F   UNL     1      12.127  11.646  17.753  0.00  0.00    +0.000 F 
ATOM     17  C   UNL     1      10.059  12.522  18.552  0.00  0.00    +0.000 A 
ATOM     18  C   UNL     1       9.330  13.652  18.950  0.00  0.00    +0.000 A 
ENDBRANCH   5  17
ENDBRANCH   1   7
BRANCH   2  19
ATOM     19  C   UNL     1       6.710   6.027  17.135  0.00  0.00    +0.000 A 
ATOM     20  C   UNL     1       7.216   5.287  16.062  0.00  0.00    +0.000 A 
ATOM     21  C   UNL     1       6.420   4.298  15.473  0.00  0.00    +0.000 A 
ATOM     22  C   UNL     1       5.144   4.024  15.972  0.00  0.00    +0.000 A 
ATOM     23  C   UNL     1       4.643   4.736  17.066  0.00  0.00    +0.000 A 
ATOM     24  C   UNL     1       5.418   5.762  17.615  0.00  0.00    +0.000 A 
BRANCH  23  25
ATOM     25  C   UNL     1       3.358   4.337  17.733  0.00  0.00    +0.000 C 
BRANCH  25  26
ATOM     26  S   UNL     1       3.633   3.254  19.116  0.00  0.00    +0.000 S 
ATOM     27  O   UNL     1       2.841   2.053  18.976  0.00  0.00    +0.000 OA
ATOM     28  O   UNL     1       5.035   3.230  19.460  0.00  0.00    +0.000 OA
BRANCH  26  29
ATOM     29  N   UNL     1       2.874   4.180  20.298  0.00  0.00    +0.000 NA
ATOM     30  H   UNL     1       2.843   3.737  21.215  0.00  0.00    +0.000 HD
ATOM     31  H   UNL     1       3.104   5.172  20.259  0.00  0.00    +0.000 HD
ENDBRANCH  26  29
ENDBRANCH  25  26
ENDBRANCH  23  25
ENDBRANCH   2  19
TORSDOF 6
ENDMDL
MODEL 9
REMARK VINA RESULT:      -8.5      7.580     10.109
REMARK  Name = 
REMARK  7 active torsions:
REMARK  status: ('A' for Active; 'I' for Inactive)
REMARK    1  A    between atoms: C_1  and  C_2
REMARK    2  A    between atoms: C_7  and  C_8
REMARK    3  A    between atoms: C_10  and  N_11
REMARK    4  A    between atoms: C_12  and  C_14
REMARK    5  A    between atoms: C_18  and  C_19
REMARK    6  A    between atoms: C_19  and  S_20
REMARK    7  A    between atoms: S_20  and  N_21
REMARK                            x       y       z     vdW  Elec       q    Type
REMARK                         _______ _______ _______ _____ _____    ______ ____
ROOT
ATOM      1  N   UNL     1       8.574   8.369  18.547  0.00  0.00    +0.000 N 
ATOM      2  C   UNL     1       8.417   9.748  18.161  0.00  0.00    +0.000 C 
ATOM      3  O   UNL     1       7.565  10.089  17.356  0.00  0.00    +0.000 OA
ATOM      4  H   UNL     1       9.224   8.117  19.282  0.00  0.00    +0.000 HD
ENDROOT
BRANCH   1   7
ATOM      5  C   UNL     1       6.446   5.642  17.514  0.00  0.00    +0.000 A 
ATOM      6  C   UNL     1       6.902   6.517  18.535  0.00  0.00    +0.000 A 
ATOM      7  C   UNL     1       7.828   7.347  17.956  0.00  0.00    +0.000 A 
ATOM      8  N   UNL     1       7.873   6.957  16.646  0.00  0.00    +0.000 N 
ATOM      9  N   UNL     1       7.073   5.910  16.355  0.00  0.00    +0.000 NA
ATOM     10  H   UNL     1       8.424   7.343  15.887  0.00  0.00    +0.000 HD
BRANCH   5  17
ATOM     11  C   UNL     1       4.023   2.403  20.455  0.00  0.00    +0.000 C 
ATOM     12  C   UNL     1       4.259   3.000  19.101  0.00  0.00    +0.000 A 
ATOM     13  C   UNL     1       3.466   2.623  18.006  0.00  0.00    +0.000 A 
ATOM     14  C   UNL     1       3.678   3.198  16.757  0.00  0.00    +0.000 A 
ATOM     15  C   UNL     1       4.672   4.159  16.600  0.00  0.00    +0.000 A 
ATOM     16  F   UNL     1       4.841   4.687  15.379  0.00  0.00    +0.000 F 
ATOM     17  C   UNL     1       5.470   4.569  17.675  0.00  0.00    +0.000 A 
ATOM     18  C   UNL     1       5.265   3.972  18.927  0.00  0.00    +0.000 A 
ENDBRANCH   5  17
ENDBRANCH   1   7
BRANCH   2  19
ATOM     19  C   UNL     1       9.314  10.759  18.761  0.00  0.00    +0.000 A 
ATOM     20  C   UNL     1       9.784  10.686  20.075  0.00  0.00    +0.000 A 
ATOM     21  C   UNL     1      10.719  11.625  20.524  0.00  0.00    +0.000 A 
ATOM     22  C   UNL     1      11.210  12.607  19.660  0.00  0.00    +0.000 A 
ATOM     23  C   UNL     1      10.770  12.667  18.334  0.00  0.00    +0.000 A 
ATOM     24  C   UNL     1       9.794  11.763  17.905  0.00  0.00    +0.000 A 
BRANCH  23  25
ATOM     25  C   UNL     1      11.415  13.591  17.341  0.00  0.00    +0.000 C 
BRANCH  25  26
ATOM     26  S   UNL     1      10.940  15.285  17.599  0.00  0.00    +0.000 S 
ATOM     27  O   UNL     1       9.577  15.355  18.075  0.00  0.00    +0.000 OA
ATOM     28  O   UNL     1      12.021  16.017  18.214  0.00  0.00    +0.000 OA
BRANCH  26  29
ATOM     29  N   UNL     1      10.901  15.768  15.988  0.00  0.00    +0.000 NA
ATOM     30  H   UNL     1      10.453  16.671  15.838  0.00  0.00    +0.000 HD
ATOM     31  H   UNL     1      11.760  15.576  15.476  0.00  0.00    +0.000 HD
ENDBRANCH  26  29
ENDBRANCH  25  26
ENDBRANCH  23  25
ENDBRANCH   2  19
TORSDOF 6
ENDMDL
