MODEL 1
REMARK VINA RESULT:      -8.9      0.000      0.000
REMARK  Name = 
REMARK  5 active torsions:
REMARK  status: ('A' for Active; 'I' for Inactive)
REMARK    1  A    between atoms: C_1  and  C_2
REMARK    2  A    between atoms: C_4  and  C_5
REMARK    3  A    between atoms: C_7  and  N_8
REMARK    4  A    between atoms: C_12  and  C_14
REMARK    5  A    between atoms: C_27  and  C_28
REMARK                            x       y       z     vdW  Elec       q    Type
REMARK                         _______ _______ _______ _____ _____    ______ ____
ROOT
ATOM      1  N   UNL     1       3.318   5.555  19.514  0.00  0.00    +0.000 N 
ATOM      2  N   UNL     1       2.761   6.787  19.686  0.00  0.00    +0.000 NA
ATOM      3  C   UNL     1       1.687   6.628  20.471  0.00  0.00    +0.000 A 
ATOM      4  N   UNL     1       0.810   7.648  20.939  0.00  0.00    +0.000 N 
ATOM      5  C   UNL     1       0.970   9.027  20.619  0.00  0.00    +0.000 C 
ATOM      6  O   UNL     1       1.879   9.467  19.910  0.00  0.00    +0.000 OA
ATOM      7  C   UNL     1       1.599   5.268  20.803  0.00  0.00    +0.000 A 
ATOM      8  C   UNL     1       2.629   4.610  20.213  0.00  0.00    +0.000 A 
ATOM      9  C   UNL     1       2.959   3.193  20.275  0.00  0.00    +0.000 C 
ATOM     10  H   UNL     1       0.055   7.366  21.568  0.00  0.00    +0.000 HD
ENDROOT
BRANCH   5  11
ATOM     11  C   UNL     1      -0.041   9.993  21.214  0.00  0.00    +0.000 A 
ATOM     12  C   UNL     1      -0.737  10.922  20.435  0.00  0.00    +0.000 A 
ATOM     13  C   UNL     1      -1.638  11.801  20.996  0.00  0.00    +0.000 A 
ATOM     14  C   UNL     1      -1.791  11.641  22.318  0.00  0.00    +0.000 A 
ATOM     15  C   UNL     1      -1.194  10.836  23.146  0.00  0.00    +0.000 A 
ATOM     16  C   UNL     1      -0.284  10.005  22.583  0.00  0.00    +0.000 A 
ATOM     17  F   UNL     1       0.360   9.174  23.406  0.00  0.00    +0.000 F 
ATOM     18  N   UNL     1      -2.635  12.430  22.920  0.00  0.00    +0.000 N 
ATOM     19  C   UNL     1      -3.454  13.183  23.531  0.00  0.00    +0.000 C 
ATOM     20  O   UNL     1      -3.846  13.304  24.702  0.00  0.00    +0.000 OA
ATOM     21  C   UNL     1      -3.380  13.644  21.488  0.00  0.00    +0.000 C 
ATOM     22  C   UNL     1      -2.422  12.818  20.259  0.00  0.00    +0.000 C 
ATOM     23  H   UNL     1      -3.383  13.211  22.820  0.00  0.00    +0.000 HD
ENDBRANCH   5  11
BRANCH   1  30
ATOM     24  C   UNL     1       5.258   4.296  15.154  0.00  0.00    +0.000 C 
ATOM     25  C   UNL     1       5.436   4.729  16.571  0.00  0.00    +0.000 A 
ATOM     26  C   UNL     1       6.703   4.916  17.125  0.00  0.00    +0.000 A 
ATOM     27  C   UNL     1       6.874   5.291  18.454  0.00  0.00    +0.000 A 
ATOM     28  C   UNL     1       8.207   5.509  19.089  0.00  0.00    +0.000 C 
ATOM     29  C   UNL     1       5.732   5.504  19.212  0.00  0.00    +0.000 A 
ATOM     30  C   UNL     1       4.457   5.319  18.704  0.00  0.00    +0.000 A 
ATOM     31  C   UNL     1       4.328   4.927  17.386  0.00  0.00    +0.000 A 
ENDBRANCH   1  30
TORSDOF 2
ENDMDL
MODEL 2
REMARK VINA RESULT:      -8.8      0.061      1.603
REMARK  Name = 
REMARK  5 active torsions:
REMARK  status: ('A' for Active; 'I' for Inactive)
REMARK    1  A    between atoms: C_1  and  C_2
REMARK    2  A    between atoms: C_4  and  C_5
REMARK    3  A    between atoms: C_7  and  N_8
REMARK    4  A    between atoms: C_12  and  C_14
REMARK    5  A    between atoms: C_27  and  C_28
REMARK                            x       y       z     vdW  Elec       q    Type
REMARK                         _______ _______ _______ _____ _____    ______ ____
ROOT
ATOM      1  N   UNL     1       3.308   5.613  19.505  0.00  0.00    +0.000 N 
ATOM      2  N   UNL     1       2.749   6.842  19.682  0.00  0.00    +0.000 NA
ATOM      3  C   UNL     1       1.670   6.677  20.460  0.00  0.00    +0.000 A 
ATOM      4  N   UNL     1       0.789   7.693  20.930  0.00  0.00    +0.000 N 
ATOM      5  C   UNL     1       0.948   9.074  20.619  0.00  0.00    +0.000 C 
ATOM      6  O   UNL     1       1.861   9.520  19.918  0.00  0.00    +0.000 OA
ATOM      7  C   UNL     1       1.583   5.315  20.783  0.00  0.00    +0.000 A 
ATOM      8  C   UNL     1       2.617   4.662  20.195  0.00  0.00    +0.000 A 
ATOM      9  C   UNL     1       2.949   3.245  20.248  0.00  0.00    +0.000 C 
ATOM     10  H   UNL     1       0.031   7.405  21.553  0.00  0.00    +0.000 HD
ENDROOT
BRANCH   5  11
ATOM     11  C   UNL     1      -0.067  10.034  21.215  0.00  0.00    +0.000 A 
ATOM     12  C   UNL     1      -0.768  10.960  20.437  0.00  0.00    +0.000 A 
ATOM     13  C   UNL     1      -1.673  11.834  20.998  0.00  0.00    +0.000 A 
ATOM     14  C   UNL     1      -1.825  11.673  22.320  0.00  0.00    +0.000 A 
ATOM     15  C   UNL     1      -1.225  10.870  23.148  0.00  0.00    +0.000 A 
ATOM     16  C   UNL     1      -0.310  10.044  22.584  0.00  0.00    +0.000 A 
ATOM     17  F   UNL     1       0.338   9.215  23.406  0.00  0.00    +0.000 F 
ATOM     18  N   UNL     1      -2.673  12.456  22.923  0.00  0.00    +0.000 N 
ATOM     19  C   UNL     1      -3.496  13.205  23.534  0.00  0.00    +0.000 C 
ATOM     20  O   UNL     1      -3.888  13.323  24.705  0.00  0.00    +0.000 OA
ATOM     21  C   UNL     1      -3.424  13.669  21.492  0.00  0.00    +0.000 C 
ATOM     22  C   UNL     1      -2.462  12.848  20.262  0.00  0.00    +0.000 C 
ATOM     23  H   UNL     1      -3.426  13.234  22.823  0.00  0.00    +0.000 HD
ENDBRANCH   5  11
BRANCH   1  30
ATOM     24  C   UNL     1       8.217   5.390  19.041  0.00  0.00    +0.000 C 
ATOM     25  C   UNL     1       6.855   5.244  18.449  0.00  0.00    +0.000 A 
ATOM     26  C   UNL     1       6.673   4.879  17.115  0.00  0.00    +0.000 A 
ATOM     27  C   UNL     1       5.406   4.770  16.551  0.00  0.00    +0.000 A 
ATOM     28  C   UNL     1       5.160   4.377  15.132  0.00  0.00    +0.000 C 
ATOM     29  C   UNL     1       4.315   5.009  17.374  0.00  0.00    +0.000 A 
ATOM     30  C   UNL     1       4.453   5.384  18.700  0.00  0.00    +0.000 A 
ATOM     31  C   UNL     1       5.727   5.502  19.218  0.00  0.00    +0.000 A 
ENDBRANCH   1  30
TORSDOF 2
ENDMDL
MODEL 3
REMARK VINA RESULT:      -8.2      1.566      1.983
REMARK  Name = 
REMARK  5 active torsions:
REMARK  status: ('A' for Active; 'I' for Inactive)
REMARK    1  A    between atoms: C_1  and  C_2
REMARK    2  A    between atoms: C_4  and  C_5
REMARK    3  A    between atoms: C_7  and  N_8
REMARK    4  A    between atoms: C_12  and  C_14
REMARK    5  A    between atoms: C_27  and  C_28
REMARK                            x       y       z     vdW  Elec       q    Type
REMARK                         _______ _______ _______ _____ _____    ______ ____
ROOT
ATOM      1  N   UNL     1       3.466   5.718  19.283  0.00  0.00    +0.000 N 
ATOM      2  N   UNL     1       2.869   6.940  19.210  0.00  0.00    +0.000 NA
ATOM      3  C   UNL     1       1.794   6.903  20.010  0.00  0.00    +0.000 A 
ATOM      4  N   UNL     1       0.882   7.966  20.268  0.00  0.00    +0.000 N 
ATOM      5  C   UNL     1       1.000   9.260  19.684  0.00  0.00    +0.000 C 
ATOM      6  O   UNL     1       1.900   9.582  18.904  0.00  0.00    +0.000 OA
ATOM      7  C   UNL     1       1.748   5.632  20.602  0.00  0.00    +0.000 A 
ATOM      8  C   UNL     1       2.802   4.906  20.153  0.00  0.00    +0.000 A 
ATOM      9  C   UNL     1       3.177   3.539  20.491  0.00  0.00    +0.000 C 
ATOM     10  H   UNL     1       0.132   7.788  20.939  0.00  0.00    +0.000 HD
ENDROOT
BRANCH   5  11
ATOM     11  C   UNL     1      -0.045  10.290  20.077  0.00  0.00    +0.000 A 
ATOM     12  C   UNL     1      -0.153  10.789  21.379  0.00  0.00    +0.000 A 
ATOM     13  C   UNL     1      -1.118  11.710  21.720  0.00  0.00    +0.000 A 
ATOM     14  C   UNL     1      -1.888  12.086  20.689  0.00  0.00    +0.000 A 
ATOM     15  C   UNL     1      -1.899  11.686  19.452  0.00  0.00    +0.000 A 
ATOM     16  C   UNL     1      -0.967  10.751  19.144  0.00  0.00    +0.000 A 
ATOM     17  F   UNL     1      -0.958  10.305  17.886  0.00  0.00    +0.000 F 
ATOM     18  N   UNL     1      -2.819  12.965  20.929  0.00  0.00    +0.000 N 
ATOM     19  C   UNL     1      -3.732  13.823  21.136  0.00  0.00    +0.000 C 
ATOM     20  O   UNL     1      -4.589  14.391  20.442  0.00  0.00    +0.000 OA
ATOM     21  C   UNL     1      -2.690  13.388  22.901  0.00  0.00    +0.000 C 
ATOM     22  C   UNL     1      -1.313  12.297  23.065  0.00  0.00    +0.000 C 
ATOM     23  H   UNL     1      -3.275  13.635  21.653  0.00  0.00    +0.000 HD
ENDBRANCH   5  11
BRANCH   1  30
ATOM     24  C   UNL     1       5.499   4.199  15.049  0.00  0.00    +0.000 C 
ATOM     25  C   UNL     1       5.644   4.645  16.466  0.00  0.00    +0.000 A 
ATOM     26  C   UNL     1       6.894   4.732  17.081  0.00  0.00    +0.000 A 
ATOM     27  C   UNL     1       7.032   5.119  18.410  0.00  0.00    +0.000 A 
ATOM     28  C   UNL     1       8.347   5.233  19.108  0.00  0.00    +0.000 C 
ATOM     29  C   UNL     1       5.878   5.448  19.105  0.00  0.00    +0.000 A 
ATOM     30  C   UNL     1       4.618   5.365  18.536  0.00  0.00    +0.000 A 
ATOM     31  C   UNL     1       4.519   4.957  17.220  0.00  0.00    +0.000 A 
ENDBRANCH   1  30
TORSDOF 2
ENDMDL
MODEL 4
REMARK VINA RESULT:      -8.2      3.136      3.821
REMARK  Name = 
REMARK  5 active torsions:
REMARK  status: ('A' for Active; 'I' for Inactive)
REMARK    1  A    between atoms: C_1  and  C_2
REMARK    2  A    between atoms: C_4  and  C_5
REMARK    3  A    between atoms: C_7  and  N_8
REMARK    4  A    between atoms: C_12  and  C_14
REMARK    5  A    between atoms: C_27  and  C_28
REMARK                            x       y       z     vdW  Elec       q    Type
REMARK                         _______ _______ _______ _____ _____    ______ ____
ROOT
ATOM      1  N   UNL     1       2.573   6.456  19.064  0.00  0.00    +0.000 N 
ATOM      2  N   UNL     1       2.349   7.730  18.638  0.00  0.00    +0.000 NA
ATOM      3  C   UNL     1       1.647   8.349  19.598  0.00  0.00    +0.000 A 
ATOM      4  N   UNL     1       1.209   9.704  19.599  0.00  0.00    +0.000 N 
ATOM      5  C   UNL     1       1.471  10.614  18.536  0.00  0.00    +0.000 C 
ATOM      6  O   UNL     1       2.101  10.317  17.517  0.00  0.00    +0.000 OA
ATOM      7  C   UNL     1       1.458   7.434  20.644  0.00  0.00    +0.000 A 
ATOM      8  C   UNL     1       2.051   6.261  20.308  0.00  0.00    +0.000 A 
ATOM      9  C   UNL     1       2.127   5.025  21.075  0.00  0.00    +0.000 C 
ATOM     10  H   UNL     1       0.715  10.037  20.431  0.00  0.00    +0.000 HD
ENDROOT
BRANCH   5  11
ATOM     11  C   UNL     1       0.951  12.032  18.699  0.00  0.00    +0.000 A 
ATOM     12  C   UNL     1       1.790  13.149  18.648  0.00  0.00    +0.000 A 
ATOM     13  C   UNL     1       1.301  14.425  18.815  0.00  0.00    +0.000 A 
ATOM     14  C   UNL     1      -0.027  14.473  18.988  0.00  0.00    +0.000 A 
ATOM     15  C   UNL     1      -0.903  13.515  19.073  0.00  0.00    +0.000 A 
ATOM     16  C   UNL     1      -0.398  12.264  18.944  0.00  0.00    +0.000 A 
ATOM     17  F   UNL     1      -1.266  11.254  19.040  0.00  0.00    +0.000 F 
ATOM     18  N   UNL     1      -0.568  15.648  19.143  0.00  0.00    +0.000 N 
ATOM     19  C   UNL     1      -1.120  16.781  19.292  0.00  0.00    +0.000 C 
ATOM     20  O   UNL     1      -2.280  17.189  19.455  0.00  0.00    +0.000 OA
ATOM     21  C   UNL     1       0.954  16.974  19.065  0.00  0.00    +0.000 C 
ATOM     22  C   UNL     1       2.105  15.668  18.778  0.00  0.00    +0.000 C 
ATOM     23  H   UNL     1      -0.421  16.725  19.152  0.00  0.00    +0.000 HD
ENDBRANCH   5  11
BRANCH   1  30
ATOM     24  C   UNL     1       3.430   1.720  17.966  0.00  0.00    +0.000 C 
ATOM     25  C   UNL     1       3.677   3.171  17.715  0.00  0.00    +0.000 A 
ATOM     26  C   UNL     1       4.564   3.601  16.727  0.00  0.00    +0.000 A 
ATOM     27  C   UNL     1       4.820   4.951  16.509  0.00  0.00    +0.000 A 
ATOM     28  C   UNL     1       5.754   5.460  15.461  0.00  0.00    +0.000 C 
ATOM     29  C   UNL     1       4.136   5.868  17.293  0.00  0.00    +0.000 A 
ATOM     30  C   UNL     1       3.256   5.483  18.290  0.00  0.00    +0.000 A 
ATOM     31  C   UNL     1       3.043   4.133  18.492  0.00  0.00    +0.000 A 
ENDBRANCH   1  30
TORSDOF 2
ENDMDL
MODEL 5
REMARK VINA RESULT:      -8.2      3.076      3.773
REMARK  Name = 
REMARK  5 active torsions:
REMARK  status: ('A' for Active; 'I' for Inactive)
REMARK    1  A    between atoms: C_1  and  C_2
REMARK    2  A    between atoms: C_4  and  C_5
REMARK    3  A    between atoms: C_7  and  N_8
REMARK    4  A    between atoms: C_12  and  C_14
REMARK    5  A    between atoms: C_27  and  C_28
REMARK                            x       y       z     vdW  Elec       q    Type
REMARK                         _______ _______ _______ _____ _____    ______ ____
ROOT
ATOM      1  N   UNL     1       2.578   6.357  19.037  0.00  0.00    +0.000 N 
ATOM      2  N   UNL     1       2.343   7.631  18.618  0.00  0.00    +0.000 NA
ATOM      3  C   UNL     1       1.655   8.246  19.591  0.00  0.00    +0.000 A 
ATOM      4  N   UNL     1       1.212   9.600  19.602  0.00  0.00    +0.000 N 
ATOM      5  C   UNL     1       1.454  10.513  18.537  0.00  0.00    +0.000 C 
ATOM      6  O   UNL     1       2.068  10.221  17.507  0.00  0.00    +0.000 OA
ATOM      7  C   UNL     1       1.485   7.328  20.638  0.00  0.00    +0.000 A 
ATOM      8  C   UNL     1       2.077   6.158  20.289  0.00  0.00    +0.000 A 
ATOM      9  C   UNL     1       2.169   4.920  21.052  0.00  0.00    +0.000 C 
ATOM     10  H   UNL     1       0.731   9.929  20.443  0.00  0.00    +0.000 HD
ENDROOT
BRANCH   5  11
ATOM     11  C   UNL     1       0.932  11.929  18.712  0.00  0.00    +0.000 A 
ATOM     12  C   UNL     1       1.763  13.050  18.626  0.00  0.00    +0.000 A 
ATOM     13  C   UNL     1       1.273  14.325  18.804  0.00  0.00    +0.000 A 
ATOM     14  C   UNL     1      -0.049  14.366  19.024  0.00  0.00    +0.000 A 
ATOM     15  C   UNL     1      -0.915  13.404  19.144  0.00  0.00    +0.000 A 
ATOM     16  C   UNL     1      -0.409  12.155  19.003  0.00  0.00    +0.000 A 
ATOM     17  F   UNL     1      -1.267  11.141  19.136  0.00  0.00    +0.000 F 
ATOM     18  N   UNL     1      -0.590  15.539  19.193  0.00  0.00    +0.000 N 
ATOM     19  C   UNL     1      -1.142  16.670  19.357  0.00  0.00    +0.000 C 
ATOM     20  O   UNL     1      -2.298  17.072  19.559  0.00  0.00    +0.000 OA
ATOM     21  C   UNL     1       0.922  16.873  19.055  0.00  0.00    +0.000 C 
ATOM     22  C   UNL     1       2.068  15.571  18.733  0.00  0.00    +0.000 C 
ATOM     23  H   UNL     1      -0.448  16.616  19.192  0.00  0.00    +0.000 HD
ENDBRANCH   5  11
BRANCH   1  30
ATOM     24  C   UNL     1       5.715   5.263  15.386  0.00  0.00    +0.000 C 
ATOM     25  C   UNL     1       4.802   4.822  16.482  0.00  0.00    +0.000 A 
ATOM     26  C   UNL     1       4.594   3.471  16.761  0.00  0.00    +0.000 A 
ATOM     27  C   UNL     1       3.722   3.055  17.761  0.00  0.00    +0.000 A 
ATOM     28  C   UNL     1       3.471   1.623  18.101  0.00  0.00    +0.000 C 
ATOM     29  C   UNL     1       3.080   4.037  18.501  0.00  0.00    +0.000 A 
ATOM     30  C   UNL     1       3.251   5.388  18.250  0.00  0.00    +0.000 A 
ATOM     31  C   UNL     1       4.109   5.762  17.235  0.00  0.00    +0.000 A 
ENDBRANCH   1  30
TORSDOF 2
ENDMDL
MODEL 6
REMARK VINA RESULT:      -8.1      1.579      2.551
REMARK  Name = 
REMARK  5 active torsions:
REMARK  status: ('A' for Active; 'I' for Inactive)
REMARK    1  A    between atoms: C_1  and  C_2
REMARK    2  A    between atoms: C_4  and  C_5
REMARK    3  A    between atoms: C_7  and  N_8
REMARK    4  A    between atoms: C_12  and  C_14
REMARK    5  A    between atoms: C_27  and  C_28
REMARK                            x       y       z     vdW  Elec       q    Type
REMARK                         _______ _______ _______ _____ _____    ______ ____
ROOT
ATOM      1  N   UNL     1       3.391   5.894  19.327  0.00  0.00    +0.000 N 
ATOM      2  N   UNL     1       2.797   7.118  19.259  0.00  0.00    +0.000 NA
ATOM      3  C   UNL     1       1.713   7.074  20.046  0.00  0.00    +0.000 A 
ATOM      4  N   UNL     1       0.799   8.136  20.305  0.00  0.00    +0.000 N 
ATOM      5  C   UNL     1       0.926   9.436  19.737  0.00  0.00    +0.000 C 
ATOM      6  O   UNL     1       1.835   9.765  18.970  0.00  0.00    +0.000 OA
ATOM      7  C   UNL     1       1.657   5.797  20.624  0.00  0.00    +0.000 A 
ATOM      8  C   UNL     1       2.716   5.074  20.180  0.00  0.00    +0.000 A 
ATOM      9  C   UNL     1       3.085   3.703  20.508  0.00  0.00    +0.000 C 
ATOM     10  H   UNL     1       0.041   7.951  20.966  0.00  0.00    +0.000 HD
ENDROOT
BRANCH   5  11
ATOM     11  C   UNL     1      -0.122  10.463  20.129  0.00  0.00    +0.000 A 
ATOM     12  C   UNL     1      -0.213  10.985  21.422  0.00  0.00    +0.000 A 
ATOM     13  C   UNL     1      -1.180  11.904  21.763  0.00  0.00    +0.000 A 
ATOM     14  C   UNL     1      -1.971  12.254  20.738  0.00  0.00    +0.000 A 
ATOM     15  C   UNL     1      -1.999  11.830  19.509  0.00  0.00    +0.000 A 
ATOM     16  C   UNL     1      -1.063  10.899  19.203  0.00  0.00    +0.000 A 
ATOM     17  F   UNL     1      -1.071  10.429  17.953  0.00  0.00    +0.000 F 
ATOM     18  N   UNL     1      -2.907  13.128  20.978  0.00  0.00    +0.000 N 
ATOM     19  C   UNL     1      -3.824  13.981  21.184  0.00  0.00    +0.000 C 
ATOM     20  O   UNL     1      -4.698  14.529  20.495  0.00  0.00    +0.000 OA
ATOM     21  C   UNL     1      -2.748  13.588  22.939  0.00  0.00    +0.000 C 
ATOM     22  C   UNL     1      -1.358  12.513  23.100  0.00  0.00    +0.000 C 
ATOM     23  H   UNL     1      -3.357  13.807  21.697  0.00  0.00    +0.000 HD
ENDBRANCH   5  11
BRANCH   1  30
ATOM     24  C   UNL     1       8.291   5.338  19.105  0.00  0.00    +0.000 C 
ATOM     25  C   UNL     1       6.948   5.243  18.459  0.00  0.00    +0.000 A 
ATOM     26  C   UNL     1       6.800   4.813  17.140  0.00  0.00    +0.000 A 
ATOM     27  C   UNL     1       5.554   4.751  16.525  0.00  0.00    +0.000 A 
ATOM     28  C   UNL     1       5.345   4.292  15.119  0.00  0.00    +0.000 C 
ATOM     29  C   UNL     1       4.448   5.106  17.281  0.00  0.00    +0.000 A 
ATOM     30  C   UNL     1       4.552   5.547  18.589  0.00  0.00    +0.000 A 
ATOM     31  C   UNL     1       5.808   5.616  19.160  0.00  0.00    +0.000 A 
ENDBRANCH   1  30
TORSDOF 2
ENDMDL
MODEL 7
REMARK VINA RESULT:      -8.1      2.562     10.332
REMARK  Name = 
REMARK  5 active torsions:
REMARK  status: ('A' for Active; 'I' for Inactive)
REMARK    1  A    between atoms: C_1  and  C_2
REMARK    2  A    between atoms: C_4  and  C_5
REMARK    3  A    between atoms: C_7  and  N_8
REMARK    4  A    between atoms: C_12  and  C_14
REMARK    5  A    between atoms: C_27  and  C_28
REMARK                            x       y       z     vdW  Elec       q    Type
REMARK                         _______ _______ _______ _____ _____    ______ ____
ROOT
ATOM      1  N   UNL     1      -1.091  12.315  21.596  0.00  0.00    +0.000 N 
ATOM      2  N   UNL     1      -0.529  11.074  21.603  0.00  0.00    +0.000 NA
ATOM      3  C   UNL     1      -0.049  10.852  20.372  0.00  0.00    +0.000 A 
ATOM      4  N   UNL     1       0.648   9.694  19.920  0.00  0.00    +0.000 N 
ATOM      5  C   UNL     1       0.935   8.576  20.755  0.00  0.00    +0.000 C 
ATOM      6  O   UNL     1       0.610   8.505  21.943  0.00  0.00    +0.000 OA
ATOM      7  C   UNL     1      -0.306  11.995  19.601  0.00  0.00    +0.000 A 
ATOM      8  C   UNL     1      -0.944  12.907  20.378  0.00  0.00    +0.000 A 
ATOM      9  C   UNL     1      -1.406  14.243  20.024  0.00  0.00    +0.000 C 
ATOM     10  H   UNL     1       0.986   9.697  18.955  0.00  0.00    +0.000 HD
ENDROOT
BRANCH   5  11
ATOM     11  C   UNL     1       1.703   7.427  20.125  0.00  0.00    +0.000 A 
ATOM     12  C   UNL     1       1.754   6.154  20.702  0.00  0.00    +0.000 A 
ATOM     13  C   UNL     1       2.469   5.130  20.124  0.00  0.00    +0.000 A 
ATOM     14  C   UNL     1       3.058   5.471  18.969  0.00  0.00    +0.000 A 
ATOM     15  C   UNL     1       3.100   6.612  18.348  0.00  0.00    +0.000 A 
ATOM     16  C   UNL     1       2.422   7.619  18.951  0.00  0.00    +0.000 A 
ATOM     17  F   UNL     1       2.456   8.810  18.349  0.00  0.00    +0.000 F 
ATOM     18  N   UNL     1       3.746   4.551  18.355  0.00  0.00    +0.000 N 
ATOM     19  C   UNL     1       4.420   3.672  17.735  0.00  0.00    +0.000 C 
ATOM     20  O   UNL     1       5.063   3.631  16.675  0.00  0.00    +0.000 OA
ATOM     21  C   UNL     1       3.625   2.900  19.514  0.00  0.00    +0.000 C 
ATOM     22  C   UNL     1       2.583   3.752  20.655  0.00  0.00    +0.000 C 
ATOM     23  H   UNL     1       4.056   3.510  18.329  0.00  0.00    +0.000 HD
ENDBRANCH   5  11
BRANCH   1  30
ATOM     24  C   UNL     1      -1.167  15.633  25.250  0.00  0.00    +0.000 C 
ATOM     25  C   UNL     1      -1.818  14.514  24.506  0.00  0.00    +0.000 A 
ATOM     26  C   UNL     1      -3.063  14.011  24.884  0.00  0.00    +0.000 A 
ATOM     27  C   UNL     1      -3.660  12.950  24.212  0.00  0.00    +0.000 A 
ATOM     28  C   UNL     1      -4.992  12.382  24.575  0.00  0.00    +0.000 C 
ATOM     29  C   UNL     1      -2.984  12.420  23.123  0.00  0.00    +0.000 A 
ATOM     30  C   UNL     1      -1.743  12.883  22.721  0.00  0.00    +0.000 A 
ATOM     31  C   UNL     1      -1.172  13.924  23.426  0.00  0.00    +0.000 A 
ENDBRANCH   1  30
TORSDOF 2
ENDMDL
MODEL 8
REMARK VINA RESULT:      -8.1      2.568     10.329
REMARK  Name = 
REMARK  5 active torsions:
REMARK  status: ('A' for Active; 'I' for Inactive)
REMARK    1  A    between atoms: C_1  and  C_2
REMARK    2  A    between atoms: C_4  and  C_5
REMARK    3  A    between atoms: C_7  and  N_8
REMARK    4  A    between atoms: C_12  and  C_14
REMARK    5  A    between atoms: C_27  and  C_28
REMARK                            x       y       z     vdW  Elec       q    Type
REMARK                         _______ _______ _______ _____ _____    ______ ____
ROOT
ATOM      1  N   UNL     1      -1.786  12.029  21.190  0.00  0.00    +0.000 N 
ATOM      2  N   UNL     1      -0.809  11.083  21.122  0.00  0.00    +0.000 NA
ATOM      3  C   UNL     1      -0.772  10.644  19.856  0.00  0.00    +0.000 A 
ATOM      4  N   UNL     1       0.115   9.670  19.313  0.00  0.00    +0.000 N 
ATOM      5  C   UNL     1       1.119   9.010  20.078  0.00  0.00    +0.000 C 
ATOM      6  O   UNL     1       1.316   9.218  21.279  0.00  0.00    +0.000 OA
ATOM      7  C   UNL     1      -1.737  11.356  19.130  0.00  0.00    +0.000 A 
ATOM      8  C   UNL     1      -2.355  12.227  19.968  0.00  0.00    +0.000 A 
ATOM      9  C   UNL     1      -3.415  13.181  19.671  0.00  0.00    +0.000 C 
ATOM     10  H   UNL     1       0.040   9.474  18.313  0.00  0.00    +0.000 HD
ENDROOT
BRANCH   5  11
ATOM     11  C   UNL     1       1.996   8.010  19.345  0.00  0.00    +0.000 A 
ATOM     12  C   UNL     1       2.302   6.752  19.874  0.00  0.00    +0.000 A 
ATOM     13  C   UNL     1       3.112   5.866  19.201  0.00  0.00    +0.000 A 
ATOM     14  C   UNL     1       3.528   6.317  18.009  0.00  0.00    +0.000 A 
ATOM     15  C   UNL     1       3.330   7.461  17.423  0.00  0.00    +0.000 A 
ATOM     16  C   UNL     1       2.561   8.335  18.117  0.00  0.00    +0.000 A 
ATOM     17  F   UNL     1       2.349   9.527  17.553  0.00  0.00    +0.000 F 
ATOM     18  N   UNL     1       4.292   5.530  17.306  0.00  0.00    +0.000 N 
ATOM     19  C   UNL     1       5.035   4.782  16.599  0.00  0.00    +0.000 C 
ATOM     20  O   UNL     1       5.573   4.863  15.485  0.00  0.00    +0.000 OA
ATOM     21  C   UNL     1       4.543   3.862  18.417  0.00  0.00    +0.000 C 
ATOM     22  C   UNL     1       3.493   4.516  19.674  0.00  0.00    +0.000 C 
ATOM     23  H   UNL     1       4.759   4.553  17.218  0.00  0.00    +0.000 HD
ENDBRANCH   5  11
BRANCH   1  30
ATOM     24  C   UNL     1      -0.976  15.621  24.478  0.00  0.00    +0.000 C 
ATOM     25  C   UNL     1      -1.788  14.461  24.004  0.00  0.00    +0.000 A 
ATOM     26  C   UNL     1      -2.905  14.013  24.709  0.00  0.00    +0.000 A 
ATOM     27  C   UNL     1      -3.646  12.914  24.288  0.00  0.00    +0.000 A 
ATOM     28  C   UNL     1      -4.851  12.402  25.005  0.00  0.00    +0.000 C 
ATOM     29  C   UNL     1      -3.254  12.289  23.114  0.00  0.00    +0.000 A 
ATOM     30  C   UNL     1      -2.146  12.696  22.389  0.00  0.00    +0.000 A 
ATOM     31  C   UNL     1      -1.422  13.777  22.851  0.00  0.00    +0.000 A 
ENDBRANCH   1  30
TORSDOF 2
ENDMDL
MODEL 9
REMARK VINA RESULT:      -8.0      2.588     10.240
REMARK  Name = 
REMARK  5 active torsions:
REMARK  status: ('A' for Active; 'I' for Inactive)
REMARK    1  A    between atoms: C_1  and  C_2
REMARK    2  A    between atoms: C_4  and  C_5
REMARK    3  A    between atoms: C_7  and  N_8
REMARK    4  A    between atoms: C_12  and  C_14
REMARK    5  A    between atoms: C_27  and  C_28
REMARK                            x       y       z     vdW  Elec       q    Type
REMARK                         _______ _______ _______ _____ _____    ______ ____
ROOT
ATOM      1  N   UNL     1      -0.982  12.460  21.490  0.00  0.00    +0.000 N 
ATOM      2  N   UNL     1      -0.459  11.203  21.501  0.00  0.00    +0.000 NA
ATOM      3  C   UNL     1       0.067  10.984  20.287  0.00  0.00    +0.000 A 
ATOM      4  N   UNL     1       0.746   9.812  19.846  0.00  0.00    +0.000 N 
ATOM      5  C   UNL     1       0.964   8.674  20.674  0.00  0.00    +0.000 C 
ATOM      6  O   UNL     1       0.588   8.595  21.847  0.00  0.00    +0.000 OA
ATOM      7  C   UNL     1      -0.124  12.146  19.525  0.00  0.00    +0.000 A 
ATOM      8  C   UNL     1      -0.766  13.065  20.289  0.00  0.00    +0.000 A 
ATOM      9  C   UNL     1      -1.172  14.420  19.937  0.00  0.00    +0.000 C 
ATOM     10  H   UNL     1       1.125   9.819  18.896  0.00  0.00    +0.000 HD
ENDROOT
BRANCH   5  11
ATOM     11  C   UNL     1       1.723   7.511  20.059  0.00  0.00    +0.000 A 
ATOM     12  C   UNL     1       1.773   6.248  20.656  0.00  0.00    +0.000 A 
ATOM     13  C   UNL     1       2.480   5.211  20.091  0.00  0.00    +0.000 A 
ATOM     14  C   UNL     1       3.062   5.530  18.926  0.00  0.00    +0.000 A 
ATOM     15  C   UNL     1       3.104   6.661  18.285  0.00  0.00    +0.000 A 
ATOM     16  C   UNL     1       2.434   7.680  18.876  0.00  0.00    +0.000 A 
ATOM     17  F   UNL     1       2.468   8.861  18.253  0.00  0.00    +0.000 F 
ATOM     18  N   UNL     1       3.742   4.597  18.323  0.00  0.00    +0.000 N 
ATOM     19  C   UNL     1       4.408   3.705  17.713  0.00  0.00    +0.000 C 
ATOM     20  O   UNL     1       5.043   3.643  16.650  0.00  0.00    +0.000 OA
ATOM     21  C   UNL     1       3.623   2.967  19.511  0.00  0.00    +0.000 C 
ATOM     22  C   UNL     1       2.594   3.843  20.644  0.00  0.00    +0.000 C 
ATOM     23  H   UNL     1       4.048   3.554  18.313  0.00  0.00    +0.000 HD
ENDBRANCH   5  11
BRANCH   1  30
ATOM     24  C   UNL     1      -4.876  12.532  24.523  0.00  0.00    +0.000 C 
ATOM     25  C   UNL     1      -3.548  13.075  24.111  0.00  0.00    +0.000 A 
ATOM     26  C   UNL     1      -2.948  14.134  24.793  0.00  0.00    +0.000 A 
ATOM     27  C   UNL     1      -1.724  14.662  24.396  0.00  0.00    +0.000 A 
ATOM     28  C   UNL     1      -1.040  15.789  25.096  0.00  0.00    +0.000 C 
ATOM     29  C   UNL     1      -1.097  14.077  23.306  0.00  0.00    +0.000 A 
ATOM     30  C   UNL     1      -1.663  13.032  22.595  0.00  0.00    +0.000 A 
ATOM     31  C   UNL     1      -2.889  12.548  23.007  0.00  0.00    +0.000 A 
ENDBRANCH   1  30
TORSDOF 2
ENDMDL
