MODEL 1
REMARK VINA RESULT:      -9.9      0.000      0.000
REMARK  Name = 
REMARK  5 active torsions:
REMARK  status: ('A' for Active; 'I' for Inactive)
REMARK    1  A    between atoms: C_1  and  N_2
REMARK    2  A    between atoms: C_6  and  N_7
REMARK    3  A    between atoms: N_7  and  S_8
REMARK    4  A    between atoms: S_8  and  C_11
REMARK    5  A    between atoms: C_15  and  C_16
REMARK                            x       y       z     vdW  Elec       q    Type
REMARK                         _______ _______ _______ _____ _____    ______ ____
ROOT
ATOM      1  N   UNL     1       4.087   3.920  19.911  0.00  0.00    +0.000 N 
ATOM      2  H   UNL     1       4.431   3.266  20.610  0.00  0.00    +0.000 HD
ENDROOT
BRANCH   1   8
ATOM      3  C   UNL     1       6.338   3.702  12.840  0.00  0.00    +0.000 C 
ATOM      4  N   UNL     1       6.409   4.199  14.200  0.00  0.00    +0.000 N 
ATOM      5  C   UNL     1       5.349   3.822  15.120  0.00  0.00    +0.000 C 
ATOM      6  C   UNL     1       5.546   4.306  16.524  0.00  0.00    +0.000 A 
ATOM      7  C   UNL     1       4.724   3.874  17.572  0.00  0.00    +0.000 A 
ATOM      8  C   UNL     1       4.918   4.371  18.863  0.00  0.00    +0.000 A 
ATOM      9  C   UNL     1       5.899   5.323  19.116  0.00  0.00    +0.000 A 
ATOM     10  C   UNL     1       6.722   5.756  18.075  0.00  0.00    +0.000 A 
ATOM     11  C   UNL     1       6.543   5.239  16.789  0.00  0.00    +0.000 A 
ATOM     12  N   UNL     1       7.373   5.654  15.755  0.00  0.00    +0.000 N 
ATOM     13  C   UNL     1       7.347   5.164  14.483  0.00  0.00    +0.000 C 
ATOM     14  O   UNL     1       8.160   5.582  13.659  0.00  0.00    +0.000 OA
ATOM     15  H   UNL     1       8.101   6.334  15.924  0.00  0.00    +0.000 HD
ENDBRANCH   1   8
BRANCH   1  16
ATOM     16  S   UNL     1       2.442   4.216  19.885  0.00  0.00    +0.000 S 
ATOM     17  O   UNL     1       1.927   3.482  18.743  0.00  0.00    +0.000 OA
ATOM     18  O   UNL     1       1.894   4.008  21.208  0.00  0.00    +0.000 OA
BRANCH  16  19
ATOM     19  C   UNL     1       2.323   5.947  19.491  0.00  0.00    +0.000 A 
ATOM     20  C   UNL     1       2.606   6.366  18.188  0.00  0.00    +0.000 A 
ATOM     21  C   UNL     1       2.415   7.701  17.843  0.00  0.00    +0.000 A 
ATOM     22  C   UNL     1       1.909   8.601  18.785  0.00  0.00    +0.000 A 
ATOM     23  C   UNL     1       1.555   8.191  20.086  0.00  0.00    +0.000 A 
ATOM     24  C   UNL     1       1.804   6.847  20.431  0.00  0.00    +0.000 A 
BRANCH  23  25
ATOM     25  C   UNL     1       0.837   9.103  21.012  0.00  0.00    +0.000 A 
ATOM     26  C   UNL     1       0.119  10.211  20.517  0.00  0.00    +0.000 A 
ATOM     27  C   UNL     1      -0.663  11.014  21.352  0.00  0.00    +0.000 A 
ATOM     28  C   UNL     1      -0.748  10.726  22.709  0.00  0.00    +0.000 A 
ATOM     29  C   UNL     1      -0.029   9.655  23.232  0.00  0.00    +0.000 A 
ATOM     30  C   UNL     1       0.762   8.860  22.394  0.00  0.00    +0.000 A 
ENDBRANCH  23  25
ENDBRANCH  16  19
ENDBRANCH   1  16
TORSDOF 4
ENDMDL
MODEL 2
REMARK VINA RESULT:      -9.6      3.092      8.634
REMARK  Name = 
REMARK  5 active torsions:
REMARK  status: ('A' for Active; 'I' for Inactive)
REMARK    1  A    between atoms: C_1  and  N_2
REMARK    2  A    between atoms: C_6  and  N_7
REMARK    3  A    between atoms: N_7  and  S_8
REMARK    4  A    between atoms: S_8  and  C_11
REMARK    5  A    between atoms: C_15  and  C_16
REMARK                            x       y       z     vdW  Elec       q    Type
REMARK                         _______ _______ _______ _____ _____    ______ ____
ROOT
ATOM      1  N   UNL     1       2.933   6.173  19.920  0.00  0.00    +0.000 N 
ATOM      2  H   UNL     1       3.396   6.119  20.824  0.00  0.00    +0.000 HD
ENDROOT
BRANCH   1   8
ATOM      3  C   UNL     1      -1.554  12.006  20.897  0.00  0.00    +0.000 C 
ATOM      4  N   UNL     1      -0.627  11.210  20.117  0.00  0.00    +0.000 N 
ATOM      5  C   UNL     1       0.068  10.122  20.785  0.00  0.00    +0.000 C 
ATOM      6  C   UNL     1       0.938   9.299  19.886  0.00  0.00    +0.000 A 
ATOM      7  C   UNL     1       1.525   8.105  20.324  0.00  0.00    +0.000 A 
ATOM      8  C   UNL     1       2.356   7.379  19.468  0.00  0.00    +0.000 A 
ATOM      9  C   UNL     1       2.641   7.849  18.190  0.00  0.00    +0.000 A 
ATOM     10  C   UNL     1       2.058   9.038  17.748  0.00  0.00    +0.000 A 
ATOM     11  C   UNL     1       1.206   9.749  18.598  0.00  0.00    +0.000 A 
ATOM     12  N   UNL     1       0.609  10.923  18.154  0.00  0.00    +0.000 N 
ATOM     13  C   UNL     1      -0.297  11.658  18.859  0.00  0.00    +0.000 C 
ATOM     14  O   UNL     1      -0.788  12.663  18.345  0.00  0.00    +0.000 OA
ATOM     15  H   UNL     1       0.794  11.271  17.224  0.00  0.00    +0.000 HD
ENDBRANCH   1   8
BRANCH   1  16
ATOM     16  S   UNL     1       3.128   4.877  18.882  0.00  0.00    +0.000 S 
ATOM     17  O   UNL     1       3.196   3.700  19.729  0.00  0.00    +0.000 OA
ATOM     18  O   UNL     1       2.157   4.967  17.813  0.00  0.00    +0.000 OA
BRANCH  16  19
ATOM     19  C   UNL     1       4.751   5.119  18.193  0.00  0.00    +0.000 A 
ATOM     20  C   UNL     1       5.831   5.315  19.057  0.00  0.00    +0.000 A 
ATOM     21  C   UNL     1       7.118   5.399  18.533  0.00  0.00    +0.000 A 
ATOM     22  C   UNL     1       7.324   5.253  17.158  0.00  0.00    +0.000 A 
ATOM     23  C   UNL     1       6.259   4.993  16.273  0.00  0.00    +0.000 A 
ATOM     24  C   UNL     1       4.959   4.961  16.817  0.00  0.00    +0.000 A 
BRANCH  23  25
ATOM     25  C   UNL     1       6.508   4.643  14.852  0.00  0.00    +0.000 A 
ATOM     26  C   UNL     1       5.654   3.753  14.169  0.00  0.00    +0.000 A 
ATOM     27  C   UNL     1       5.795   3.500  12.802  0.00  0.00    +0.000 A 
ATOM     28  C   UNL     1       6.797   4.135  12.079  0.00  0.00    +0.000 A 
ATOM     29  C   UNL     1       7.673   5.000  12.730  0.00  0.00    +0.000 A 
ATOM     30  C   UNL     1       7.536   5.242  14.102  0.00  0.00    +0.000 A 
ENDBRANCH  23  25
ENDBRANCH  16  19
ENDBRANCH   1  16
TORSDOF 4
ENDMDL
MODEL 3
REMARK VINA RESULT:      -9.5      2.800      8.410
REMARK  Name = 
REMARK  5 active torsions:
REMARK  status: ('A' for Active; 'I' for Inactive)
REMARK    1  A    between atoms: C_1  and  N_2
REMARK    2  A    between atoms: C_6  and  N_7
REMARK    3  A    between atoms: N_7  and  S_8
REMARK    4  A    between atoms: S_8  and  C_11
REMARK    5  A    between atoms: C_15  and  C_16
REMARK                            x       y       z     vdW  Elec       q    Type
REMARK                         _______ _______ _______ _____ _____    ______ ____
ROOT
ATOM      1  N   UNL     1       3.120   5.306  19.941  0.00  0.00    +0.000 N 
ATOM      2  H   UNL     1       3.428   5.175  20.902  0.00  0.00    +0.000 HD
ENDROOT
BRANCH   1   8
ATOM      3  C   UNL     1      -0.860  11.502  20.880  0.00  0.00    +0.000 C 
ATOM      4  N   UNL     1       0.010  10.633  20.111  0.00  0.00    +0.000 N 
ATOM      5  C   UNL     1       0.593   9.484  20.784  0.00  0.00    +0.000 C 
ATOM      6  C   UNL     1       1.407   8.595  19.895  0.00  0.00    +0.000 A 
ATOM      7  C   UNL     1       1.878   7.351  20.334  0.00  0.00    +0.000 A 
ATOM      8  C   UNL     1       2.660   6.561  19.488  0.00  0.00    +0.000 A 
ATOM      9  C   UNL     1       3.011   7.013  18.220  0.00  0.00    +0.000 A 
ATOM     10  C   UNL     1       2.543   8.251  17.778  0.00  0.00    +0.000 A 
ATOM     11  C   UNL     1       1.739   9.028  18.616  0.00  0.00    +0.000 A 
ATOM     12  N   UNL     1       1.256  10.253  18.171  0.00  0.00    +0.000 N 
ATOM     13  C   UNL     1       0.403  11.060  18.864  0.00  0.00    +0.000 C 
ATOM     14  O   UNL     1       0.012  12.107  18.350  0.00  0.00    +0.000 OA
ATOM     15  H   UNL     1       1.490  10.590  17.248  0.00  0.00    +0.000 HD
ENDBRANCH   1   8
BRANCH   1  16
ATOM     16  S   UNL     1       3.443   4.073  18.860  0.00  0.00    +0.000 S 
ATOM     17  O   UNL     1       3.764   2.912  19.670  0.00  0.00    +0.000 OA
ATOM     18  O   UNL     1       2.392   4.018  17.866  0.00  0.00    +0.000 OA
BRANCH  16  19
ATOM     19  C   UNL     1       4.949   4.586  18.061  0.00  0.00    +0.000 A 
ATOM     20  C   UNL     1       6.069   4.869  18.846  0.00  0.00    +0.000 A 
ATOM     21  C   UNL     1       7.280   5.168  18.227  0.00  0.00    +0.000 A 
ATOM     22  C   UNL     1       7.375   5.148  16.832  0.00  0.00    +0.000 A 
ATOM     23  C   UNL     1       6.276   4.804  16.019  0.00  0.00    +0.000 A 
ATOM     24  C   UNL     1       5.048   4.554  16.664  0.00  0.00    +0.000 A 
BRANCH  23  25
ATOM     25  C   UNL     1       6.437   4.592  14.558  0.00  0.00    +0.000 A 
ATOM     26  C   UNL     1       7.479   5.224  13.850  0.00  0.00    +0.000 A 
ATOM     27  C   UNL     1       7.725   4.949  12.502  0.00  0.00    +0.000 A 
ATOM     28  C   UNL     1       6.932   4.029  11.827  0.00  0.00    +0.000 A 
ATOM     29  C   UNL     1       5.879   3.408  12.492  0.00  0.00    +0.000 A 
ATOM     30  C   UNL     1       5.628   3.695  13.839  0.00  0.00    +0.000 A 
ENDBRANCH  23  25
ENDBRANCH  16  19
ENDBRANCH   1  16
TORSDOF 4
ENDMDL
MODEL 4
REMARK VINA RESULT:      -9.3      2.632      8.478
REMARK  Name = 
REMARK  5 active torsions:
REMARK  status: ('A' for Active; 'I' for Inactive)
REMARK    1  A    between atoms: C_1  and  N_2
REMARK    2  A    between atoms: C_6  and  N_7
REMARK    3  A    between atoms: N_7  and  S_8
REMARK    4  A    between atoms: S_8  and  C_11
REMARK    5  A    between atoms: C_15  and  C_16
REMARK                            x       y       z     vdW  Elec       q    Type
REMARK                         _______ _______ _______ _____ _____    ______ ____
ROOT
ATOM      1  N   UNL     1       2.861   4.738  19.836  0.00  0.00    +0.000 N 
ATOM      2  H   UNL     1       3.116   4.425  20.770  0.00  0.00    +0.000 HD
ENDROOT
BRANCH   1   8
ATOM      3  C   UNL     1      -0.366  11.050  22.038  0.00  0.00    +0.000 C 
ATOM      4  N   UNL     1       0.304  10.220  21.057  0.00  0.00    +0.000 N 
ATOM      5  C   UNL     1       0.869   8.957  21.503  0.00  0.00    +0.000 C 
ATOM      6  C   UNL     1       1.465   8.125  20.410  0.00  0.00    +0.000 A 
ATOM      7  C   UNL     1       1.877   6.806  20.634  0.00  0.00    +0.000 A 
ATOM      8  C   UNL     1       2.458   6.069  19.598  0.00  0.00    +0.000 A 
ATOM      9  C   UNL     1       2.666   6.646  18.350  0.00  0.00    +0.000 A 
ATOM     10  C   UNL     1       2.256   7.959  18.121  0.00  0.00    +0.000 A 
ATOM     11  C   UNL     1       1.652   8.686  19.151  0.00  0.00    +0.000 A 
ATOM     12  N   UNL     1       1.226   9.988  18.921  0.00  0.00    +0.000 N 
ATOM     13  C   UNL     1       0.556  10.765  19.819  0.00  0.00    +0.000 C 
ATOM     14  O   UNL     1       0.193  11.893  19.488  0.00  0.00    +0.000 OA
ATOM     15  H   UNL     1       1.356  10.417  18.016  0.00  0.00    +0.000 HD
ENDBRANCH   1   8
BRANCH   1  16
ATOM     16  S   UNL     1       3.204   3.708  18.565  0.00  0.00    +0.000 S 
ATOM     17  O   UNL     1       3.474   2.415  19.166  0.00  0.00    +0.000 OA
ATOM     18  O   UNL     1       2.191   3.855  17.541  0.00  0.00    +0.000 OA
BRANCH  16  19
ATOM     19  C   UNL     1       4.748   4.319  17.922  0.00  0.00    +0.000 A 
ATOM     20  C   UNL     1       5.764   4.665  18.818  0.00  0.00    +0.000 A 
ATOM     21  C   UNL     1       7.009   5.042  18.324  0.00  0.00    +0.000 A 
ATOM     22  C   UNL     1       7.246   5.039  16.946  0.00  0.00    +0.000 A 
ATOM     23  C   UNL     1       6.258   4.634  16.026  0.00  0.00    +0.000 A 
ATOM     24  C   UNL     1       4.989   4.303  16.543  0.00  0.00    +0.000 A 
BRANCH  23  25
ATOM     25  C   UNL     1       6.578   4.443  14.589  0.00  0.00    +0.000 A 
ATOM     26  C   UNL     1       5.842   3.533  13.802  0.00  0.00    +0.000 A 
ATOM     27  C   UNL     1       6.042   3.421  12.424  0.00  0.00    +0.000 A 
ATOM     28  C   UNL     1       6.987   4.222  11.794  0.00  0.00    +0.000 A 
ATOM     29  C   UNL     1       7.748   5.111  12.548  0.00  0.00    +0.000 A 
ATOM     30  C   UNL     1       7.553   5.212  13.930  0.00  0.00    +0.000 A 
ENDBRANCH  23  25
ENDBRANCH  16  19
ENDBRANCH   1  16
TORSDOF 4
ENDMDL
MODEL 5
REMARK VINA RESULT:      -9.3      3.211      8.128
REMARK  Name = 
REMARK  5 active torsions:
REMARK  status: ('A' for Active; 'I' for Inactive)
REMARK    1  A    between atoms: C_1  and  N_2
REMARK    2  A    between atoms: C_6  and  N_7
REMARK    3  A    between atoms: N_7  and  S_8
REMARK    4  A    between atoms: S_8  and  C_11
REMARK    5  A    between atoms: C_15  and  C_16
REMARK                            x       y       z     vdW  Elec       q    Type
REMARK                         _______ _______ _______ _____ _____    ______ ____
ROOT
ATOM      1  N   UNL     1       2.783   6.203  20.471  0.00  0.00    +0.000 N 
ATOM      2  H   UNL     1       3.779   6.185  20.677  0.00  0.00    +0.000 HD
ENDROOT
BRANCH   1   8
ATOM      3  C   UNL     1      -1.581  12.200  20.785  0.00  0.00    +0.000 C 
ATOM      4  N   UNL     1      -0.719  11.270  20.084  0.00  0.00    +0.000 N 
ATOM      5  C   UNL     1       0.015  10.293  20.872  0.00  0.00    +0.000 C 
ATOM      6  C   UNL     1       0.812   9.318  20.062  0.00  0.00    +0.000 A 
ATOM      7  C   UNL     1       1.420   8.201  20.648  0.00  0.00    +0.000 A 
ATOM      8  C   UNL     1       2.183   7.329  19.867  0.00  0.00    +0.000 A 
ATOM      9  C   UNL     1       2.377   7.577  18.513  0.00  0.00    +0.000 A 
ATOM     10  C   UNL     1       1.772   8.687  17.923  0.00  0.00    +0.000 A 
ATOM     11  C   UNL     1       0.989   9.545  18.701  0.00  0.00    +0.000 A 
ATOM     12  N   UNL     1       0.370  10.641  18.113  0.00  0.00    +0.000 N 
ATOM     13  C   UNL     1      -0.478  11.499  18.749  0.00  0.00    +0.000 C 
ATOM     14  O   UNL     1      -0.999  12.414  18.113  0.00  0.00    +0.000 OA
ATOM     15  H   UNL     1       0.488  10.827  17.127  0.00  0.00    +0.000 HD
ENDBRANCH   1   8
BRANCH   1  16
ATOM     16  S   UNL     1       1.947   4.762  20.611  0.00  0.00    +0.000 S 
ATOM     17  O   UNL     1       2.367   4.183  21.874  0.00  0.00    +0.000 OA
ATOM     18  O   UNL     1       0.546   4.989  20.327  0.00  0.00    +0.000 OA
BRANCH  16  19
ATOM     19  C   UNL     1       2.627   3.744  19.318  0.00  0.00    +0.000 A 
ATOM     20  C   UNL     1       1.985   2.547  18.991  0.00  0.00    +0.000 A 
ATOM     21  C   UNL     1       2.446   1.797  17.913  0.00  0.00    +0.000 A 
ATOM     22  C   UNL     1       3.520   2.261  17.147  0.00  0.00    +0.000 A 
ATOM     23  C   UNL     1       4.144   3.496  17.417  0.00  0.00    +0.000 A 
ATOM     24  C   UNL     1       3.695   4.215  18.543  0.00  0.00    +0.000 A 
BRANCH  23  25
ATOM     25  C   UNL     1       5.146   4.072  16.485  0.00  0.00    +0.000 A 
ATOM     26  C   UNL     1       6.196   4.880  16.966  0.00  0.00    +0.000 A 
ATOM     27  C   UNL     1       7.217   5.335  16.128  0.00  0.00    +0.000 A 
ATOM     28  C   UNL     1       7.215   4.990  14.782  0.00  0.00    +0.000 A 
ATOM     29  C   UNL     1       6.178   4.216  14.272  0.00  0.00    +0.000 A 
ATOM     30  C   UNL     1       5.150   3.771  15.111  0.00  0.00    +0.000 A 
ENDBRANCH  23  25
ENDBRANCH  16  19
ENDBRANCH   1  16
TORSDOF 4
ENDMDL
MODEL 6
REMARK VINA RESULT:      -9.1      3.693      5.876
REMARK  Name = 
REMARK  5 active torsions:
REMARK  status: ('A' for Active; 'I' for Inactive)
REMARK    1  A    between atoms: C_1  and  N_2
REMARK    2  A    between atoms: C_6  and  N_7
REMARK    3  A    between atoms: N_7  and  S_8
REMARK    4  A    between atoms: S_8  and  C_11
REMARK    5  A    between atoms: C_15  and  C_16
REMARK                            x       y       z     vdW  Elec       q    Type
REMARK                         _______ _______ _______ _____ _____    ______ ____
ROOT
ATOM      1  N   UNL     1       1.667   8.653  21.809  0.00  0.00    +0.000 N 
ATOM      2  H   UNL     1       2.428   8.821  22.462  0.00  0.00    +0.000 HD
ENDROOT
BRANCH   1   8
ATOM      3  C   UNL     1       1.944   1.719  19.172  0.00  0.00    +0.000 C 
ATOM      4  N   UNL     1       2.015   3.159  19.020  0.00  0.00    +0.000 N 
ATOM      5  C   UNL     1       1.621   3.984  20.150  0.00  0.00    +0.000 C 
ATOM      6  C   UNL     1       1.808   5.454  19.937  0.00  0.00    +0.000 A 
ATOM      7  C   UNL     1       1.660   6.373  20.984  0.00  0.00    +0.000 A 
ATOM      8  C   UNL     1       1.810   7.740  20.742  0.00  0.00    +0.000 A 
ATOM      9  C   UNL     1       2.071   8.207  19.459  0.00  0.00    +0.000 A 
ATOM     10  C   UNL     1       2.221   7.297  18.412  0.00  0.00    +0.000 A 
ATOM     11  C   UNL     1       2.095   5.928  18.661  0.00  0.00    +0.000 A 
ATOM     12  N   UNL     1       2.262   5.017  17.625  0.00  0.00    +0.000 N 
ATOM     13  C   UNL     1       2.241   3.661  17.760  0.00  0.00    +0.000 C 
ATOM     14  O   UNL     1       2.441   2.954  16.773  0.00  0.00    +0.000 OA
ATOM     15  H   UNL     1       2.466   5.340  16.689  0.00  0.00    +0.000 HD
ENDBRANCH   1   8
BRANCH   1  16
ATOM     16  S   UNL     1       0.167   9.274  22.207  0.00  0.00    +0.000 S 
ATOM     17  O   UNL     1      -0.779   8.196  21.980  0.00  0.00    +0.000 OA
ATOM     18  O   UNL     1       0.245   9.934  23.492  0.00  0.00    +0.000 OA
BRANCH  16  19
ATOM     19  C   UNL     1      -0.134  10.504  20.957  0.00  0.00    +0.000 A 
ATOM     20  C   UNL     1       0.740  11.590  20.851  0.00  0.00    +0.000 A 
ATOM     21  C   UNL     1       0.576  12.500  19.812  0.00  0.00    +0.000 A 
ATOM     22  C   UNL     1      -0.434  12.305  18.864  0.00  0.00    +0.000 A 
ATOM     23  C   UNL     1      -1.289  11.186  18.912  0.00  0.00    +0.000 A 
ATOM     24  C   UNL     1      -1.138  10.302  20.000  0.00  0.00    +0.000 A 
BRANCH  23  25
ATOM     25  C   UNL     1      -2.222  10.882  17.798  0.00  0.00    +0.000 A 
ATOM     26  C   UNL     1      -3.439  11.581  17.668  0.00  0.00    +0.000 A 
ATOM     27  C   UNL     1      -4.278  11.400  16.565  0.00  0.00    +0.000 A 
ATOM     28  C   UNL     1      -3.917  10.513  15.558  0.00  0.00    +0.000 A 
ATOM     29  C   UNL     1      -2.734   9.788  15.671  0.00  0.00    +0.000 A 
ATOM     30  C   UNL     1      -1.902   9.963  16.783  0.00  0.00    +0.000 A 
ENDBRANCH  23  25
ENDBRANCH  16  19
ENDBRANCH   1  16
TORSDOF 4
ENDMDL
MODEL 7
REMARK VINA RESULT:      -9.1      3.554      7.390
REMARK  Name = 
REMARK  5 active torsions:
REMARK  status: ('A' for Active; 'I' for Inactive)
REMARK    1  A    between atoms: C_1  and  N_2
REMARK    2  A    between atoms: C_6  and  N_7
REMARK    3  A    between atoms: N_7  and  S_8
REMARK    4  A    between atoms: S_8  and  C_11
REMARK    5  A    between atoms: C_15  and  C_16
REMARK                            x       y       z     vdW  Elec       q    Type
REMARK                         _______ _______ _______ _____ _____    ______ ____
ROOT
ATOM      1  N   UNL     1       4.321   4.932  16.527  0.00  0.00    +0.000 N 
ATOM      2  H   UNL     1       4.148   3.969  16.248  0.00  0.00    +0.000 HD
ENDROOT
BRANCH   1   8
ATOM      3  C   UNL     1       0.776  10.548  19.844  0.00  0.00    +0.000 C 
ATOM      4  N   UNL     1       1.352   9.218  19.829  0.00  0.00    +0.000 N 
ATOM      5  C   UNL     1       1.785   8.677  18.551  0.00  0.00    +0.000 C 
ATOM      6  C   UNL     1       2.446   7.336  18.638  0.00  0.00    +0.000 A 
ATOM      7  C   UNL     1       3.089   6.761  17.535  0.00  0.00    +0.000 A 
ATOM      8  C   UNL     1       3.668   5.494  17.645  0.00  0.00    +0.000 A 
ATOM      9  C   UNL     1       3.581   4.777  18.833  0.00  0.00    +0.000 A 
ATOM     10  C   UNL     1       2.942   5.345  19.935  0.00  0.00    +0.000 A 
ATOM     11  C   UNL     1       2.386   6.623  19.831  0.00  0.00    +0.000 A 
ATOM     12  N   UNL     1       1.765   7.199  20.933  0.00  0.00    +0.000 N 
ATOM     13  C   UNL     1       1.259   8.464  20.975  0.00  0.00    +0.000 C 
ATOM     14  O   UNL     1       0.765   8.880  22.023  0.00  0.00    +0.000 OA
ATOM     15  H   UNL     1       1.706   6.697  21.807  0.00  0.00    +0.000 HD
ENDBRANCH   1   8
BRANCH   1  16
ATOM     16  S   UNL     1       5.599   5.723  15.797  0.00  0.00    +0.000 S 
ATOM     17  O   UNL     1       6.328   4.703  15.064  0.00  0.00    +0.000 OA
ATOM     18  O   UNL     1       5.112   6.911  15.129  0.00  0.00    +0.000 OA
BRANCH  16  19
ATOM     19  C   UNL     1       6.629   6.224  17.159  0.00  0.00    +0.000 A 
ATOM     20  C   UNL     1       7.185   5.242  17.984  0.00  0.00    +0.000 A 
ATOM     21  C   UNL     1       8.075   5.617  18.986  0.00  0.00    +0.000 A 
ATOM     22  C   UNL     1       8.433   6.960  19.138  0.00  0.00    +0.000 A 
ATOM     23  C   UNL     1       7.935   7.961  18.280  0.00  0.00    +0.000 A 
ATOM     24  C   UNL     1       6.997   7.568  17.303  0.00  0.00    +0.000 A 
BRANCH  23  25
ATOM     25  C   UNL     1       8.471   9.345  18.320  0.00  0.00    +0.000 A 
ATOM     26  C   UNL     1       7.948  10.344  17.473  0.00  0.00    +0.000 A 
ATOM     27  C   UNL     1       8.350  11.678  17.574  0.00  0.00    +0.000 A 
ATOM     28  C   UNL     1       9.287  12.050  18.530  0.00  0.00    +0.000 A 
ATOM     29  C   UNL     1       9.840  11.082  19.364  0.00  0.00    +0.000 A 
ATOM     30  C   UNL     1       9.445   9.744  19.252  0.00  0.00    +0.000 A 
ENDBRANCH  23  25
ENDBRANCH  16  19
ENDBRANCH   1  16
TORSDOF 4
ENDMDL
MODEL 8
REMARK VINA RESULT:      -8.8      3.354      7.572
REMARK  Name = 
REMARK  5 active torsions:
REMARK  status: ('A' for Active; 'I' for Inactive)
REMARK    1  A    between atoms: C_1  and  N_2
REMARK    2  A    between atoms: C_6  and  N_7
REMARK    3  A    between atoms: N_7  and  S_8
REMARK    4  A    between atoms: S_8  and  C_11
REMARK    5  A    between atoms: C_15  and  C_16
REMARK                            x       y       z     vdW  Elec       q    Type
REMARK                         _______ _______ _______ _____ _____    ______ ____
ROOT
ATOM      1  N   UNL     1       2.144   5.949  21.330  0.00  0.00    +0.000 N 
ATOM      2  H   UNL     1       2.777   6.016  22.124  0.00  0.00    +0.000 HD
ENDROOT
BRANCH   1   8
ATOM      3  C   UNL     1      -1.745  12.236  20.658  0.00  0.00    +0.000 C 
ATOM      4  N   UNL     1      -0.826  11.231  20.162  0.00  0.00    +0.000 N 
ATOM      5  C   UNL     1      -0.343  10.228  21.098  0.00  0.00    +0.000 C 
ATOM      6  C   UNL     1       0.531   9.179  20.483  0.00  0.00    +0.000 A 
ATOM      7  C   UNL     1       0.923   8.039  21.196  0.00  0.00    +0.000 A 
ATOM      8  C   UNL     1       1.765   7.097  20.601  0.00  0.00    +0.000 A 
ATOM      9  C   UNL     1       2.252   7.295  19.314  0.00  0.00    +0.000 A 
ATOM     10  C   UNL     1       1.864   8.428  18.598  0.00  0.00    +0.000 A 
ATOM     11  C   UNL     1       1.001   9.357  19.186  0.00  0.00    +0.000 A 
ATOM     12  N   UNL     1       0.598  10.477  18.469  0.00  0.00    +0.000 N 
ATOM     13  C   UNL     1      -0.298  11.407  18.905  0.00  0.00    +0.000 C 
ATOM     14  O   UNL     1      -0.609  12.339  18.163  0.00  0.00    +0.000 OA
ATOM     15  H   UNL     1       0.931  10.629  17.528  0.00  0.00    +0.000 HD
ENDBRANCH   1   8
BRANCH   1  16
ATOM     16  S   UNL     1       1.801   4.418  20.752  0.00  0.00    +0.000 S 
ATOM     17  O   UNL     1       2.167   3.503  21.818  0.00  0.00    +0.000 OA
ATOM     18  O   UNL     1       0.469   4.405  20.187  0.00  0.00    +0.000 OA
BRANCH  16  19
ATOM     19  C   UNL     1       2.975   4.183  19.435  0.00  0.00    +0.000 A 
ATOM     20  C   UNL     1       2.631   3.359  18.360  0.00  0.00    +0.000 A 
ATOM     21  C   UNL     1       3.497   3.253  17.276  0.00  0.00    +0.000 A 
ATOM     22  C   UNL     1       4.683   3.994  17.253  0.00  0.00    +0.000 A 
ATOM     23  C   UNL     1       5.023   4.879  18.296  0.00  0.00    +0.000 A 
ATOM     24  C   UNL     1       4.157   4.935  19.406  0.00  0.00    +0.000 A 
BRANCH  23  25
ATOM     25  C   UNL     1       6.177   5.806  18.172  0.00  0.00    +0.000 A 
ATOM     26  C   UNL     1       6.145   6.877  17.256  0.00  0.00    +0.000 A 
ATOM     27  C   UNL     1       7.164   7.832  17.203  0.00  0.00    +0.000 A 
ATOM     28  C   UNL     1       8.245   7.740  18.071  0.00  0.00    +0.000 A 
ATOM     29  C   UNL     1       8.318   6.679  18.969  0.00  0.00    +0.000 A 
ATOM     30  C   UNL     1       7.302   5.717  19.010  0.00  0.00    +0.000 A 
ENDBRANCH  23  25
ENDBRANCH  16  19
ENDBRANCH   1  16
TORSDOF 4
ENDMDL
MODEL 9
REMARK VINA RESULT:      -8.7      2.622      7.947
REMARK  Name = 
REMARK  5 active torsions:
REMARK  status: ('A' for Active; 'I' for Inactive)
REMARK    1  A    between atoms: C_1  and  N_2
REMARK    2  A    between atoms: C_6  and  N_7
REMARK    3  A    between atoms: N_7  and  S_8
REMARK    4  A    between atoms: S_8  and  C_11
REMARK    5  A    between atoms: C_15  and  C_16
REMARK                            x       y       z     vdW  Elec       q    Type
REMARK                         _______ _______ _______ _____ _____    ______ ____
ROOT
ATOM      1  N   UNL     1       2.782   3.565  19.754  0.00  0.00    +0.000 N 
ATOM      2  H   UNL     1       2.312   3.156  20.558  0.00  0.00    +0.000 HD
ENDROOT
BRANCH   1   8
ATOM      3  C   UNL     1       0.688  10.523  21.272  0.00  0.00    +0.000 C 
ATOM      4  N   UNL     1       1.111   9.474  20.366  0.00  0.00    +0.000 N 
ATOM      5  C   UNL     1       1.570   8.220  20.941  0.00  0.00    +0.000 C 
ATOM      6  C   UNL     1       1.906   7.164  19.934  0.00  0.00    +0.000 A 
ATOM      7  C   UNL     1       2.178   5.845  20.317  0.00  0.00    +0.000 A 
ATOM      8  C   UNL     1       2.519   4.892  19.353  0.00  0.00    +0.000 A 
ATOM      9  C   UNL     1       2.627   5.248  18.014  0.00  0.00    +0.000 A 
ATOM     10  C   UNL     1       2.356   6.561  17.626  0.00  0.00    +0.000 A 
ATOM     11  C   UNL     1       1.991   7.506  18.589  0.00  0.00    +0.000 A 
ATOM     12  N   UNL     1       1.702   8.810  18.204  0.00  0.00    +0.000 N 
ATOM     13  C   UNL     1       1.260   9.795  19.037  0.00  0.00    +0.000 C 
ATOM     14  O   UNL     1       0.998  10.904  18.573  0.00  0.00    +0.000 OA
ATOM     15  H   UNL     1       1.761   9.081  17.233  0.00  0.00    +0.000 HD
ENDBRANCH   1   8
BRANCH   1  16
ATOM     16  S   UNL     1       4.067   2.715  19.105  0.00  0.00    +0.000 S 
ATOM     17  O   UNL     1       4.855   2.265  20.238  0.00  0.00    +0.000 OA
ATOM     18  O   UNL     1       3.575   1.774  18.122  0.00  0.00    +0.000 OA
BRANCH  16  19
ATOM     19  C   UNL     1       5.024   3.960  18.265  0.00  0.00    +0.000 A 
ATOM     20  C   UNL     1       5.758   4.876  19.023  0.00  0.00    +0.000 A 
ATOM     21  C   UNL     1       6.591   5.784  18.377  0.00  0.00    +0.000 A 
ATOM     22  C   UNL     1       6.715   5.752  16.985  0.00  0.00    +0.000 A 
ATOM     23  C   UNL     1       6.035   4.797  16.202  0.00  0.00    +0.000 A 
ATOM     24  C   UNL     1       5.158   3.919  16.871  0.00  0.00    +0.000 A 
BRANCH  23  25
ATOM     25  C   UNL     1       6.325   4.642  14.755  0.00  0.00    +0.000 A 
ATOM     26  C   UNL     1       7.417   5.309  14.164  0.00  0.00    +0.000 A 
ATOM     27  C   UNL     1       7.783   5.087  12.833  0.00  0.00    +0.000 A 
ATOM     28  C   UNL     1       7.064   4.186  12.058  0.00  0.00    +0.000 A 
ATOM     29  C   UNL     1       5.964   3.531  12.605  0.00  0.00    +0.000 A 
ATOM     30  C   UNL     1       5.593   3.765  13.935  0.00  0.00    +0.000 A 
ENDBRANCH  23  25
ENDBRANCH  16  19
ENDBRANCH   1  16
TORSDOF 4
ENDMDL
