MODEL 1
REMARK VINA RESULT:      -9.1      0.000      0.000
REMARK  Name = 
REMARK  9 active torsions:
REMARK  status: ('A' for Active; 'I' for Inactive)
REMARK    1  A    between atoms: C_1  and  C_2
REMARK    2  A    between atoms: C_5  and  C_6
REMARK    3  A    between atoms: C_7  and  N_8
REMARK    4  A    between atoms: C_9  and  C_11
REMARK    5  A    between atoms: C_11  and  S_12
REMARK    6  A    between atoms: C_11  and  C_24
REMARK    7  A    between atoms: S_12  and  C_13
REMARK    8  A    between atoms: C_16  and  C_17
REMARK    9  A    between atoms: C_21  and  C_22
REMARK                            x       y       z     vdW  Elec       q    Type
REMARK                         _______ _______ _______ _____ _____    ______ ____
ROOT
ATOM      1  C   UNL     1       3.145   6.207  17.980  0.00  0.00    +0.000 C 
ENDROOT
BRANCH   1   2
ATOM      2  C   UNL     1       2.266   5.177  18.682  0.00  0.00    +0.000 A 
ATOM      3  C   UNL     1       1.627   4.169  17.940  0.00  0.00    +0.000 A 
ATOM      4  C   UNL     1       0.926   3.146  18.586  0.00  0.00    +0.000 A 
ATOM      5  C   UNL     1       0.854   3.115  19.977  0.00  0.00    +0.000 A 
ATOM      6  C   UNL     1       1.457   4.121  20.726  0.00  0.00    +0.000 A 
ATOM      7  C   UNL     1       2.147   5.148  20.083  0.00  0.00    +0.000 A 
ENDBRANCH   1   2
BRANCH   1   9
ATOM      8  N   UNL     1       2.001   7.943  19.299  0.00  0.00    +0.000 N 
ATOM      9  C   UNL     1       2.581   7.647  18.063  0.00  0.00    +0.000 C 
ATOM     10  O   UNL     1       2.585   8.409  17.099  0.00  0.00    +0.000 OA
ATOM     11  H   UNL     1       1.592   7.142  19.772  0.00  0.00    +0.000 HD
BRANCH   8  18
ATOM     12  C   UNL     1       1.759  12.738  18.251  0.00  0.00    +0.000 C 
ATOM     13  C   UNL     1       1.268  11.571  19.055  0.00  0.00    +0.000 A 
ATOM     14  C   UNL     1       0.333  11.751  20.072  0.00  0.00    +0.000 A 
ATOM     15  C   UNL     1      -0.096  10.662  20.830  0.00  0.00    +0.000 A 
ATOM     16  C   UNL     1       0.407   9.366  20.604  0.00  0.00    +0.000 A 
ATOM     17  C   UNL     1      -0.177   8.248  21.422  0.00  0.00    +0.000 C 
ATOM     18  C   UNL     1       1.388   9.185  19.611  0.00  0.00    +0.000 A 
ATOM     19  C   UNL     1       1.773  10.282  18.820  0.00  0.00    +0.000 A 
ENDBRANCH   8  18
ENDBRANCH   1   9
BRANCH   1  20
ATOM     20  S   UNL     1       4.837   6.131  18.715  0.00  0.00    +0.000 S 
BRANCH  20  21
ATOM     21  C   UNL     1       5.793   5.882  17.304  0.00  0.00    +0.000 A 
ATOM     22  N   UNL     1       7.071   6.183  17.206  0.00  0.00    +0.000 NA
ATOM     23  N   UNL     1       7.471   5.760  15.959  0.00  0.00    +0.000 NA
ATOM     24  C   UNL     1       6.410   5.231  15.374  0.00  0.00    +0.000 A 
ATOM     25  O   UNL     1       5.296   5.312  16.168  0.00  0.00    +0.000 OA
BRANCH  24  26
ATOM     26  C   UNL     1       6.418   4.587  14.042  0.00  0.00    +0.000 A 
ATOM     27  C   UNL     1       5.564   3.562  13.567  0.00  0.00    +0.000 A 
ATOM     28  C   UNL     1       5.984   3.285  12.287  0.00  0.00    +0.000 A 
ATOM     29  O   UNL     1       7.038   4.077  11.949  0.00  0.00    +0.000 OA
ATOM     30  C   UNL     1       7.304   4.871  13.028  0.00  0.00    +0.000 A 
ATOM     31  C   UNL     1       8.447   5.796  12.894  0.00  0.00    +0.000 C 
ENDBRANCH  24  26
ENDBRANCH  20  21
ENDBRANCH   1  20
TORSDOF 6
ENDMDL
MODEL 2
REMARK VINA RESULT:      -9.0      2.153      8.445
REMARK  Name = 
REMARK  9 active torsions:
REMARK  status: ('A' for Active; 'I' for Inactive)
REMARK    1  A    between atoms: C_1  and  C_2
REMARK    2  A    between atoms: C_5  and  C_6
REMARK    3  A    between atoms: C_7  and  N_8
REMARK    4  A    between atoms: C_9  and  C_11
REMARK    5  A    between atoms: C_11  and  S_12
REMARK    6  A    between atoms: C_11  and  C_24
REMARK    7  A    between atoms: S_12  and  C_13
REMARK    8  A    between atoms: C_16  and  C_17
REMARK    9  A    between atoms: C_21  and  C_22
REMARK                            x       y       z     vdW  Elec       q    Type
REMARK                         _______ _______ _______ _____ _____    ______ ____
ROOT
ATOM      1  C   UNL     1       3.308   5.875  19.441  0.00  0.00    +0.000 C 
ENDROOT
BRANCH   1   2
ATOM      2  C   UNL     1       2.323   4.746  19.727  0.00  0.00    +0.000 A 
ATOM      3  C   UNL     1       1.627   4.130  18.673  0.00  0.00    +0.000 A 
ATOM      4  C   UNL     1       0.822   3.012  18.909  0.00  0.00    +0.000 A 
ATOM      5  C   UNL     1       0.701   2.494  20.196  0.00  0.00    +0.000 A 
ATOM      6  C   UNL     1       1.361   3.109  21.257  0.00  0.00    +0.000 A 
ATOM      7  C   UNL     1       2.156   4.230  21.025  0.00  0.00    +0.000 A 
ENDBRANCH   1   2
BRANCH   1   9
ATOM      8  N   UNL     1       4.494   5.862  17.283  0.00  0.00    +0.000 N 
ATOM      9  C   UNL     1       4.531   5.420  18.608  0.00  0.00    +0.000 C 
ATOM     10  O   UNL     1       5.397   4.678  19.066  0.00  0.00    +0.000 OA
ATOM     11  H   UNL     1       3.556   5.976  16.906  0.00  0.00    +0.000 HD
BRANCH   8  18
ATOM     12  C   UNL     1       5.481   3.478  13.101  0.00  0.00    +0.000 C 
ATOM     13  C   UNL     1       5.946   4.370  14.213  0.00  0.00    +0.000 A 
ATOM     14  C   UNL     1       7.276   4.778  14.289  0.00  0.00    +0.000 A 
ATOM     15  C   UNL     1       7.702   5.587  15.342  0.00  0.00    +0.000 A 
ATOM     16  C   UNL     1       6.816   5.999  16.357  0.00  0.00    +0.000 A 
ATOM     17  C   UNL     1       7.354   6.932  17.405  0.00  0.00    +0.000 C 
ATOM     18  C   UNL     1       5.482   5.550  16.313  0.00  0.00    +0.000 A 
ATOM     19  C   UNL     1       5.054   4.778  15.218  0.00  0.00    +0.000 A 
ENDBRANCH   8  18
ENDBRANCH   1   9
BRANCH   1  20
ATOM     20  S   UNL     1       2.406   7.235  18.576  0.00  0.00    +0.000 S 
BRANCH  20  21
ATOM     21  C   UNL     1       1.746   8.091  19.918  0.00  0.00    +0.000 A 
ATOM     22  N   UNL     1       1.831   7.693  21.170  0.00  0.00    +0.000 NA
ATOM     23  N   UNL     1       1.251   8.686  21.928  0.00  0.00    +0.000 NA
ATOM     24  C   UNL     1       0.847   9.624  21.088  0.00  0.00    +0.000 A 
ATOM     25  O   UNL     1       1.102   9.286  19.785  0.00  0.00    +0.000 OA
BRANCH  24  26
ATOM     26  C   UNL     1       0.233  10.907  21.494  0.00  0.00    +0.000 A 
ATOM     27  C   UNL     1      -0.829  11.113  22.408  0.00  0.00    +0.000 A 
ATOM     28  C   UNL     1      -1.053  12.469  22.426  0.00  0.00    +0.000 A 
ATOM     29  O   UNL     1      -0.195  13.106  21.583  0.00  0.00    +0.000 OA
ATOM     30  C   UNL     1       0.590  12.146  21.011  0.00  0.00    +0.000 A 
ATOM     31  C   UNL     1       1.583  12.614  20.023  0.00  0.00    +0.000 C 
ENDBRANCH  24  26
ENDBRANCH  20  21
ENDBRANCH   1  20
TORSDOF 6
ENDMDL
MODEL 3
REMARK VINA RESULT:      -8.9      4.026      6.680
REMARK  Name = 
REMARK  9 active torsions:
REMARK  status: ('A' for Active; 'I' for Inactive)
REMARK    1  A    between atoms: C_1  and  C_2
REMARK    2  A    between atoms: C_5  and  C_6
REMARK    3  A    between atoms: C_7  and  N_8
REMARK    4  A    between atoms: C_9  and  C_11
REMARK    5  A    between atoms: C_11  and  S_12
REMARK    6  A    between atoms: C_11  and  C_24
REMARK    7  A    between atoms: S_12  and  C_13
REMARK    8  A    between atoms: C_16  and  C_17
REMARK    9  A    between atoms: C_21  and  C_22
REMARK                            x       y       z     vdW  Elec       q    Type
REMARK                         _______ _______ _______ _____ _____    ______ ____
ROOT
ATOM      1  C   UNL     1       0.634  10.588  19.058  0.00  0.00    +0.000 C 
ENDROOT
BRANCH   1   2
ATOM      2  C   UNL     1      -0.840  10.688  18.682  0.00  0.00    +0.000 A 
ATOM      3  C   UNL     1      -1.678  11.605  19.339  0.00  0.00    +0.000 A 
ATOM      4  C   UNL     1      -2.996  11.796  18.914  0.00  0.00    +0.000 A 
ATOM      5  C   UNL     1      -3.495  11.077  17.831  0.00  0.00    +0.000 A 
ATOM      6  C   UNL     1      -2.688  10.144  17.185  0.00  0.00    +0.000 A 
ATOM      7  C   UNL     1      -1.376   9.945  17.614  0.00  0.00    +0.000 A 
ENDBRANCH   1   2
BRANCH   1   9
ATOM      8  N   UNL     1       1.559  12.750  18.327  0.00  0.00    +0.000 N 
ATOM      9  C   UNL     1       1.261  11.952  19.436  0.00  0.00    +0.000 C 
ATOM     10  O   UNL     1       1.532  12.251  20.597  0.00  0.00    +0.000 OA
ATOM     11  H   UNL     1       1.791  12.227  17.487  0.00  0.00    +0.000 HD
BRANCH   8  18
ATOM     12  C   UNL     1       5.765  15.279  18.088  0.00  0.00    +0.000 C 
ATOM     13  C   UNL     1       4.276  15.274  18.264  0.00  0.00    +0.000 A 
ATOM     14  C   UNL     1       3.591  16.450  18.559  0.00  0.00    +0.000 A 
ATOM     15  C   UNL     1       2.209  16.429  18.746  0.00  0.00    +0.000 A 
ATOM     16  C   UNL     1       1.475  15.230  18.659  0.00  0.00    +0.000 A 
ATOM     17  C   UNL     1      -0.019  15.325  18.800  0.00  0.00    +0.000 C 
ATOM     18  C   UNL     1       2.166  14.030  18.410  0.00  0.00    +0.000 A 
ATOM     19  C   UNL     1       3.552  14.074  18.172  0.00  0.00    +0.000 A 
ENDBRANCH   8  18
ENDBRANCH   1   9
BRANCH   1  20
ATOM     20  S   UNL     1       0.803   9.390  20.454  0.00  0.00    +0.000 S 
BRANCH  20  21
ATOM     21  C   UNL     1       1.673   8.117  19.686  0.00  0.00    +0.000 A 
ATOM     22  N   UNL     1       2.266   8.220  18.515  0.00  0.00    +0.000 NA
ATOM     23  N   UNL     1       2.904   7.020  18.301  0.00  0.00    +0.000 NA
ATOM     24  C   UNL     1       2.656   6.259  19.354  0.00  0.00    +0.000 A 
ATOM     25  O   UNL     1       1.844   6.891  20.259  0.00  0.00    +0.000 OA
BRANCH  24  26
ATOM     26  C   UNL     1       3.217   4.906  19.565  0.00  0.00    +0.000 A 
ATOM     27  C   UNL     1       4.509   4.438  19.226  0.00  0.00    +0.000 A 
ATOM     28  C   UNL     1       4.540   3.114  19.596  0.00  0.00    +0.000 A 
ATOM     29  O   UNL     1       3.349   2.744  20.143  0.00  0.00    +0.000 OA
ATOM     30  C   UNL     1       2.540   3.844  20.119  0.00  0.00    +0.000 A 
ATOM     31  C   UNL     1       1.169   3.660  20.638  0.00  0.00    +0.000 C 
ENDBRANCH  24  26
ENDBRANCH  20  21
ENDBRANCH   1  20
TORSDOF 6
ENDMDL
MODEL 4
REMARK VINA RESULT:      -8.9      3.701      6.283
REMARK  Name = 
REMARK  9 active torsions:
REMARK  status: ('A' for Active; 'I' for Inactive)
REMARK    1  A    between atoms: C_1  and  C_2
REMARK    2  A    between atoms: C_5  and  C_6
REMARK    3  A    between atoms: C_7  and  N_8
REMARK    4  A    between atoms: C_9  and  C_11
REMARK    5  A    between atoms: C_11  and  S_12
REMARK    6  A    between atoms: C_11  and  C_24
REMARK    7  A    between atoms: S_12  and  C_13
REMARK    8  A    between atoms: C_16  and  C_17
REMARK    9  A    between atoms: C_21  and  C_22
REMARK                            x       y       z     vdW  Elec       q    Type
REMARK                         _______ _______ _______ _____ _____    ______ ____
ROOT
ATOM      1  C   UNL     1       0.733  10.503  18.908  0.00  0.00    +0.000 C 
ENDROOT
BRANCH   1   2
ATOM      2  C   UNL     1      -0.740  10.577  18.521  0.00  0.00    +0.000 A 
ATOM      3  C   UNL     1      -1.592  11.499  19.151  0.00  0.00    +0.000 A 
ATOM      4  C   UNL     1      -2.910  11.665  18.715  0.00  0.00    +0.000 A 
ATOM      5  C   UNL     1      -3.394  10.915  17.645  0.00  0.00    +0.000 A 
ATOM      6  C   UNL     1      -2.573   9.977  17.027  0.00  0.00    +0.000 A 
ATOM      7  C   UNL     1      -1.262   9.803  17.468  0.00  0.00    +0.000 A 
ENDBRANCH   1   2
BRANCH   1   9
ATOM      8  N   UNL     1       1.638  12.695  18.245  0.00  0.00    +0.000 N 
ATOM      9  C   UNL     1       1.322  11.871  19.329  0.00  0.00    +0.000 C 
ATOM     10  O   UNL     1       1.552  12.153  20.503  0.00  0.00    +0.000 OA
ATOM     11  H   UNL     1       1.906  12.192  17.403  0.00  0.00    +0.000 HD
BRANCH   8  18
ATOM     12  C   UNL     1       5.790  15.318  18.088  0.00  0.00    +0.000 C 
ATOM     13  C   UNL     1       4.301  15.276  18.264  0.00  0.00    +0.000 A 
ATOM     14  C   UNL     1       3.592  16.427  18.597  0.00  0.00    +0.000 A 
ATOM     15  C   UNL     1       2.211  16.371  18.784  0.00  0.00    +0.000 A 
ATOM     16  C   UNL     1       1.502  15.160  18.658  0.00  0.00    +0.000 A 
ATOM     17  C   UNL     1       0.007  15.219  18.802  0.00  0.00    +0.000 C 
ATOM     18  C   UNL     1       2.219  13.983  18.370  0.00  0.00    +0.000 A 
ATOM     19  C   UNL     1       3.603  14.064  18.133  0.00  0.00    +0.000 A 
ENDBRANCH   8  18
ENDBRANCH   1   9
BRANCH   1  20
ATOM     20  S   UNL     1       0.919   9.271  20.271  0.00  0.00    +0.000 S 
BRANCH  20  21
ATOM     21  C   UNL     1       1.833   8.044  19.478  0.00  0.00    +0.000 A 
ATOM     22  N   UNL     1       2.351   8.162  18.273  0.00  0.00    +0.000 NA
ATOM     23  N   UNL     1       3.060   7.005  18.046  0.00  0.00    +0.000 NA
ATOM     24  C   UNL     1       2.926   6.253  19.125  0.00  0.00    +0.000 A 
ATOM     25  O   UNL     1       2.122   6.846  20.063  0.00  0.00    +0.000 OA
BRANCH  24  26
ATOM     26  C   UNL     1       3.592   4.948  19.328  0.00  0.00    +0.000 A 
ATOM     27  C   UNL     1       2.996   3.714  19.686  0.00  0.00    +0.000 A 
ATOM     28  C   UNL     1       4.028   2.810  19.779  0.00  0.00    +0.000 A 
ATOM     29  O   UNL     1       5.216   3.412  19.498  0.00  0.00    +0.000 OA
ATOM     30  C   UNL     1       4.946   4.722  19.225  0.00  0.00    +0.000 A 
ATOM     31  C   UNL     1       6.108   5.582  18.924  0.00  0.00    +0.000 C 
ENDBRANCH  24  26
ENDBRANCH  20  21
ENDBRANCH   1  20
TORSDOF 6
ENDMDL
MODEL 5
REMARK VINA RESULT:      -8.9      1.397      2.237
REMARK  Name = 
REMARK  9 active torsions:
REMARK  status: ('A' for Active; 'I' for Inactive)
REMARK    1  A    between atoms: C_1  and  C_2
REMARK    2  A    between atoms: C_5  and  C_6
REMARK    3  A    between atoms: C_7  and  N_8
REMARK    4  A    between atoms: C_9  and  C_11
REMARK    5  A    between atoms: C_11  and  S_12
REMARK    6  A    between atoms: C_11  and  C_24
REMARK    7  A    between atoms: S_12  and  C_13
REMARK    8  A    between atoms: C_16  and  C_17
REMARK    9  A    between atoms: C_21  and  C_22
REMARK                            x       y       z     vdW  Elec       q    Type
REMARK                         _______ _______ _______ _____ _____    ______ ____
ROOT
ATOM      1  C   UNL     1       3.665   5.116  18.515  0.00  0.00    +0.000 C 
ENDROOT
BRANCH   1   2
ATOM      2  C   UNL     1       3.359   4.001  19.509  0.00  0.00    +0.000 A 
ATOM      3  C   UNL     1       4.316   3.008  19.776  0.00  0.00    +0.000 A 
ATOM      4  C   UNL     1       4.096   2.058  20.779  0.00  0.00    +0.000 A 
ATOM      5  C   UNL     1       2.922   2.088  21.527  0.00  0.00    +0.000 A 
ATOM      6  C   UNL     1       1.950   3.047  21.258  0.00  0.00    +0.000 A 
ATOM      7  C   UNL     1       2.163   3.988  20.251  0.00  0.00    +0.000 A 
ENDBRANCH   1   2
BRANCH   1   9
ATOM      8  N   UNL     1       2.693   7.097  19.609  0.00  0.00    +0.000 N 
ATOM      9  C   UNL     1       2.598   6.238  18.510  0.00  0.00    +0.000 C 
ATOM     10  O   UNL     1       1.717   6.302  17.655  0.00  0.00    +0.000 OA
ATOM     11  H   UNL     1       3.058   6.659  20.451  0.00  0.00    +0.000 HD
BRANCH   8  18
ATOM     12  C   UNL     1      -0.404   9.200  22.792  0.00  0.00    +0.000 C 
ATOM     13  C   UNL     1       0.286   9.226  21.461  0.00  0.00    +0.000 A 
ATOM     14  C   UNL     1      -0.004  10.220  20.530  0.00  0.00    +0.000 A 
ATOM     15  C   UNL     1       0.625  10.219  19.285  0.00  0.00    +0.000 A 
ATOM     16  C   UNL     1       1.550   9.218  18.930  0.00  0.00    +0.000 A 
ATOM     17  C   UNL     1       2.230   9.349  17.595  0.00  0.00    +0.000 C 
ATOM     18  C   UNL     1       1.810   8.182  19.847  0.00  0.00    +0.000 A 
ATOM     19  C   UNL     1       1.209   8.224  21.118  0.00  0.00    +0.000 A 
ENDBRANCH   8  18
ENDBRANCH   1   9
BRANCH   1  20
ATOM     20  S   UNL     1       5.331   5.809  18.907  0.00  0.00    +0.000 S 
BRANCH  20  21
ATOM     21  C   UNL     1       6.217   5.336  17.506  0.00  0.00    +0.000 A 
ATOM     22  N   UNL     1       7.495   5.019  17.505  0.00  0.00    +0.000 NA
ATOM     23  N   UNL     1       7.791   4.630  16.218  0.00  0.00    +0.000 NA
ATOM     24  C   UNL     1       6.676   4.738  15.517  0.00  0.00    +0.000 A 
ATOM     25  O   UNL     1       5.642   5.220  16.275  0.00  0.00    +0.000 OA
BRANCH  24  26
ATOM     26  C   UNL     1       6.535   4.349  14.096  0.00  0.00    +0.000 A 
ATOM     27  C   UNL     1       5.598   3.451  13.529  0.00  0.00    +0.000 A 
ATOM     28  C   UNL     1       5.887   3.403  12.186  0.00  0.00    +0.000 A 
ATOM     29  O   UNL     1       6.940   4.215  11.895  0.00  0.00    +0.000 OA
ATOM     30  C   UNL     1       7.337   4.791  13.068  0.00  0.00    +0.000 A 
ATOM     31  C   UNL     1       8.502   5.695  12.993  0.00  0.00    +0.000 C 
ENDBRANCH  24  26
ENDBRANCH  20  21
ENDBRANCH   1  20
TORSDOF 6
ENDMDL
MODEL 6
REMARK VINA RESULT:      -8.8      2.089      8.581
REMARK  Name = 
REMARK  9 active torsions:
REMARK  status: ('A' for Active; 'I' for Inactive)
REMARK    1  A    between atoms: C_1  and  C_2
REMARK    2  A    between atoms: C_5  and  C_6
REMARK    3  A    between atoms: C_7  and  N_8
REMARK    4  A    between atoms: C_9  and  C_11
REMARK    5  A    between atoms: C_11  and  S_12
REMARK    6  A    between atoms: C_11  and  C_24
REMARK    7  A    between atoms: S_12  and  C_13
REMARK    8  A    between atoms: C_16  and  C_17
REMARK    9  A    between atoms: C_21  and  C_22
REMARK                            x       y       z     vdW  Elec       q    Type
REMARK                         _______ _______ _______ _____ _____    ______ ____
ROOT
ATOM      1  C   UNL     1       3.375   5.739  19.225  0.00  0.00    +0.000 C 
ENDROOT
BRANCH   1   2
ATOM      2  C   UNL     1       2.453   4.575  19.572  0.00  0.00    +0.000 A 
ATOM      3  C   UNL     1       2.304   4.164  20.908  0.00  0.00    +0.000 A 
ATOM      4  C   UNL     1       1.366   3.186  21.252  0.00  0.00    +0.000 A 
ATOM      5  C   UNL     1       0.565   2.607  20.270  0.00  0.00    +0.000 A 
ATOM      6  C   UNL     1       0.718   2.981  18.938  0.00  0.00    +0.000 A 
ATOM      7  C   UNL     1       1.661   3.949  18.593  0.00  0.00    +0.000 A 
ENDBRANCH   1   2
BRANCH   1   9
ATOM      8  N   UNL     1       4.551   5.723  17.061  0.00  0.00    +0.000 N 
ATOM      9  C   UNL     1       4.610   5.311  18.396  0.00  0.00    +0.000 C 
ATOM     10  O   UNL     1       5.505   4.611  18.865  0.00  0.00    +0.000 OA
ATOM     11  H   UNL     1       3.608   5.794  16.687  0.00  0.00    +0.000 HD
BRANCH   8  18
ATOM     12  C   UNL     1       5.570   3.396  12.855  0.00  0.00    +0.000 C 
ATOM     13  C   UNL     1       6.025   4.276  13.981  0.00  0.00    +0.000 A 
ATOM     14  C   UNL     1       7.353   4.688  14.070  0.00  0.00    +0.000 A 
ATOM     15  C   UNL     1       7.771   5.484  15.136  0.00  0.00    +0.000 A 
ATOM     16  C   UNL     1       6.878   5.880  16.151  0.00  0.00    +0.000 A 
ATOM     17  C   UNL     1       7.407   6.801  17.214  0.00  0.00    +0.000 C 
ATOM     18  C   UNL     1       5.546   5.427  16.094  0.00  0.00    +0.000 A 
ATOM     19  C   UNL     1       5.126   4.668  14.986  0.00  0.00    +0.000 A 
ENDBRANCH   8  18
ENDBRANCH   1   9
BRANCH   1  20
ATOM     20  S   UNL     1       2.394   7.011  18.315  0.00  0.00    +0.000 S 
BRANCH  20  21
ATOM     21  C   UNL     1       1.784   7.949  19.626  0.00  0.00    +0.000 A 
ATOM     22  N   UNL     1       1.764   7.551  20.881  0.00  0.00    +0.000 NA
ATOM     23  N   UNL     1       1.277   8.611  21.611  0.00  0.00    +0.000 NA
ATOM     24  C   UNL     1       1.027   9.586  20.755  0.00  0.00    +0.000 A 
ATOM     25  O   UNL     1       1.296   9.212  19.464  0.00  0.00    +0.000 OA
BRANCH  24  26
ATOM     26  C   UNL     1       0.556  10.937  21.132  0.00  0.00    +0.000 A 
ATOM     27  C   UNL     1       0.915  12.177  20.550  0.00  0.00    +0.000 A 
ATOM     28  C   UNL     1       0.238  13.138  21.263  0.00  0.00    +0.000 A 
ATOM     29  O   UNL     1      -0.514  12.565  22.243  0.00  0.00    +0.000 OA
ATOM     30  C   UNL     1      -0.314  11.216  22.162  0.00  0.00    +0.000 A 
ATOM     31  C   UNL     1      -1.013  10.389  23.166  0.00  0.00    +0.000 C 
ENDBRANCH  24  26
ENDBRANCH  20  21
ENDBRANCH   1  20
TORSDOF 6
ENDMDL
MODEL 7
REMARK VINA RESULT:      -8.8      4.400      6.944
REMARK  Name = 
REMARK  9 active torsions:
REMARK  status: ('A' for Active; 'I' for Inactive)
REMARK    1  A    between atoms: C_1  and  C_2
REMARK    2  A    between atoms: C_5  and  C_6
REMARK    3  A    between atoms: C_7  and  N_8
REMARK    4  A    between atoms: C_9  and  C_11
REMARK    5  A    between atoms: C_11  and  S_12
REMARK    6  A    between atoms: C_11  and  C_24
REMARK    7  A    between atoms: S_12  and  C_13
REMARK    8  A    between atoms: C_16  and  C_17
REMARK    9  A    between atoms: C_21  and  C_22
REMARK                            x       y       z     vdW  Elec       q    Type
REMARK                         _______ _______ _______ _____ _____    ______ ____
ROOT
ATOM      1  C   UNL     1       0.733  10.650  19.378  0.00  0.00    +0.000 C 
ENDROOT
BRANCH   1   2
ATOM      2  C   UNL     1      -0.712  10.728  18.896  0.00  0.00    +0.000 A 
ATOM      3  C   UNL     1      -1.610  11.628  19.493  0.00  0.00    +0.000 A 
ATOM      4  C   UNL     1      -2.897  11.799  18.974  0.00  0.00    +0.000 A 
ATOM      5  C   UNL     1      -3.304  11.076  17.855  0.00  0.00    +0.000 A 
ATOM      6  C   UNL     1      -2.437  10.159  17.268  0.00  0.00    +0.000 A 
ATOM      7  C   UNL     1      -1.157   9.980  17.790  0.00  0.00    +0.000 A 
ENDBRANCH   1   2
BRANCH   1   9
ATOM      8  N   UNL     1       1.601  12.768  18.469  0.00  0.00    +0.000 N 
ATOM      9  C   UNL     1       1.363  12.040  19.638  0.00  0.00    +0.000 C 
ATOM     10  O   UNL     1       1.685  12.414  20.764  0.00  0.00    +0.000 OA
ATOM     11  H   UNL     1       1.799  12.195  17.653  0.00  0.00    +0.000 HD
BRANCH   8  18
ATOM     12  C   UNL     1       5.785  15.298  17.979  0.00  0.00    +0.000 C 
ATOM     13  C   UNL     1       4.298  15.297  18.172  0.00  0.00    +0.000 A 
ATOM     14  C   UNL     1       3.607  16.489  18.380  0.00  0.00    +0.000 A 
ATOM     15  C   UNL     1       2.228  16.473  18.585  0.00  0.00    +0.000 A 
ATOM     16  C   UNL     1       1.502  15.266  18.603  0.00  0.00    +0.000 A 
ATOM     17  C   UNL     1       0.009  15.362  18.753  0.00  0.00    +0.000 C 
ATOM     18  C   UNL     1       2.200  14.054  18.442  0.00  0.00    +0.000 A 
ATOM     19  C   UNL     1       3.583  14.089  18.185  0.00  0.00    +0.000 A 
ENDBRANCH   8  18
ENDBRANCH   1   9
BRANCH   1  20
ATOM     20  S   UNL     1       0.786   9.619  20.909  0.00  0.00    +0.000 S 
BRANCH  20  21
ATOM     21  C   UNL     1       1.413   8.141  20.282  0.00  0.00    +0.000 A 
ATOM     22  N   UNL     1       2.221   8.054  19.247  0.00  0.00    +0.000 NA
ATOM     23  N   UNL     1       2.544   6.722  19.124  0.00  0.00    +0.000 NA
ATOM     24  C   UNL     1       1.910   6.081  20.091  0.00  0.00    +0.000 A 
ATOM     25  O   UNL     1       1.140   6.928  20.844  0.00  0.00    +0.000 OA
BRANCH  24  26
ATOM     26  C   UNL     1       2.040   4.633  20.367  0.00  0.00    +0.000 A 
ATOM     27  C   UNL     1       2.301   4.005  21.608  0.00  0.00    +0.000 A 
ATOM     28  C   UNL     1       2.355   2.656  21.344  0.00  0.00    +0.000 A 
ATOM     29  O   UNL     1       2.141   2.420  20.021  0.00  0.00    +0.000 OA
ATOM     30  C   UNL     1       1.952   3.634  19.424  0.00  0.00    +0.000 A 
ATOM     31  C   UNL     1       1.735   3.619  17.963  0.00  0.00    +0.000 C 
ENDBRANCH  24  26
ENDBRANCH  20  21
ENDBRANCH   1  20
TORSDOF 6
ENDMDL
MODEL 8
REMARK VINA RESULT:      -8.8      3.122      6.194
REMARK  Name = 
REMARK  9 active torsions:
REMARK  status: ('A' for Active; 'I' for Inactive)
REMARK    1  A    between atoms: C_1  and  C_2
REMARK    2  A    between atoms: C_5  and  C_6
REMARK    3  A    between atoms: C_7  and  N_8
REMARK    4  A    between atoms: C_9  and  C_11
REMARK    5  A    between atoms: C_11  and  S_12
REMARK    6  A    between atoms: C_11  and  C_24
REMARK    7  A    between atoms: S_12  and  C_13
REMARK    8  A    between atoms: C_16  and  C_17
REMARK    9  A    between atoms: C_21  and  C_22
REMARK                            x       y       z     vdW  Elec       q    Type
REMARK                         _______ _______ _______ _____ _____    ______ ____
ROOT
ATOM      1  C   UNL     1       0.591  10.471  19.265  0.00  0.00    +0.000 C 
ENDROOT
BRANCH   1   2
ATOM      2  C   UNL     1      -0.825  10.585  18.708  0.00  0.00    +0.000 A 
ATOM      3  C   UNL     1      -1.730  11.507  19.261  0.00  0.00    +0.000 A 
ATOM      4  C   UNL     1      -2.984  11.711  18.677  0.00  0.00    +0.000 A 
ATOM      5  C   UNL     1      -3.350  11.001  17.536  0.00  0.00    +0.000 A 
ATOM      6  C   UNL     1      -2.477  10.064  16.991  0.00  0.00    +0.000 A 
ATOM      7  C   UNL     1      -1.230   9.851  17.578  0.00  0.00    +0.000 A 
ENDBRANCH   1   2
BRANCH   1   9
ATOM      8  N   UNL     1       1.469  12.613  18.427  0.00  0.00    +0.000 N 
ATOM      9  C   UNL     1       1.237  11.844  19.570  0.00  0.00    +0.000 C 
ATOM     10  O   UNL     1       1.576  12.171  20.706  0.00  0.00    +0.000 OA
ATOM     11  H   UNL     1       1.652  12.070  17.587  0.00  0.00    +0.000 HD
BRANCH   8  18
ATOM     12  C   UNL     1       5.685  15.113  18.075  0.00  0.00    +0.000 C 
ATOM     13  C   UNL     1       4.195  15.122  18.241  0.00  0.00    +0.000 A 
ATOM     14  C   UNL     1       3.511  16.315  18.464  0.00  0.00    +0.000 A 
ATOM     15  C   UNL     1       2.128  16.308  18.643  0.00  0.00    +0.000 A 
ATOM     16  C   UNL     1       1.391  15.108  18.618  0.00  0.00    +0.000 A 
ATOM     17  C   UNL     1      -0.103  15.215  18.743  0.00  0.00    +0.000 C 
ATOM     18  C   UNL     1       2.081  13.894  18.442  0.00  0.00    +0.000 A 
ATOM     19  C   UNL     1       3.468  13.921  18.211  0.00  0.00    +0.000 A 
ENDBRANCH   8  18
ENDBRANCH   1   9
BRANCH   1  20
ATOM     20  S   UNL     1       0.539   9.426  20.786  0.00  0.00    +0.000 S 
BRANCH  20  21
ATOM     21  C   UNL     1       1.452   8.059  20.272  0.00  0.00    +0.000 A 
ATOM     22  N   UNL     1       1.420   6.879  20.855  0.00  0.00    +0.000 NA
ATOM     23  N   UNL     1       2.222   6.055  20.099  0.00  0.00    +0.000 NA
ATOM     24  C   UNL     1       2.695   6.786  19.104  0.00  0.00    +0.000 A 
ATOM     25  O   UNL     1       2.269   8.086  19.179  0.00  0.00    +0.000 OA
BRANCH  24  26
ATOM     26  C   UNL     1       3.546   6.268  18.010  0.00  0.00    +0.000 A 
ATOM     27  C   UNL     1       4.513   6.972  17.253  0.00  0.00    +0.000 A 
ATOM     28  C   UNL     1       5.012   6.068  16.345  0.00  0.00    +0.000 A 
ATOM     29  O   UNL     1       4.413   4.856  16.499  0.00  0.00    +0.000 OA
ATOM     30  C   UNL     1       3.513   4.983  17.518  0.00  0.00    +0.000 A 
ATOM     31  C   UNL     1       2.713   3.783  17.839  0.00  0.00    +0.000 C 
ENDBRANCH  24  26
ENDBRANCH  20  21
ENDBRANCH   1  20
TORSDOF 6
ENDMDL
MODEL 9
REMARK VINA RESULT:      -8.8      1.032      2.046
REMARK  Name = 
REMARK  9 active torsions:
REMARK  status: ('A' for Active; 'I' for Inactive)
REMARK    1  A    between atoms: C_1  and  C_2
REMARK    2  A    between atoms: C_5  and  C_6
REMARK    3  A    between atoms: C_7  and  N_8
REMARK    4  A    between atoms: C_9  and  C_11
REMARK    5  A    between atoms: C_11  and  S_12
REMARK    6  A    between atoms: C_11  and  C_24
REMARK    7  A    between atoms: S_12  and  C_13
REMARK    8  A    between atoms: C_16  and  C_17
REMARK    9  A    between atoms: C_21  and  C_22
REMARK                            x       y       z     vdW  Elec       q    Type
REMARK                         _______ _______ _______ _____ _____    ______ ____
ROOT
ATOM      1  C   UNL     1       3.186   5.575  17.941  0.00  0.00    +0.000 C 
ENDROOT
BRANCH   1   2
ATOM      2  C   UNL     1       2.712   4.253  18.537  0.00  0.00    +0.000 A 
ATOM      3  C   UNL     1       1.521   4.199  19.280  0.00  0.00    +0.000 A 
ATOM      4  C   UNL     1       1.012   2.973  19.720  0.00  0.00    +0.000 A 
ATOM      5  C   UNL     1       1.682   1.788  19.424  0.00  0.00    +0.000 A 
ATOM      6  C   UNL     1       2.878   1.826  18.713  0.00  0.00    +0.000 A 
ATOM      7  C   UNL     1       3.393   3.048  18.283  0.00  0.00    +0.000 A 
ENDBRANCH   1   2
BRANCH   1   9
ATOM      8  N   UNL     1       2.474   7.439  19.383  0.00  0.00    +0.000 N 
ATOM      9  C   UNL     1       2.207   6.745  18.199  0.00  0.00    +0.000 C 
ATOM     10  O   UNL     1       1.249   6.975  17.463  0.00  0.00    +0.000 OA
ATOM     11  H   UNL     1       2.891   6.871  20.115  0.00  0.00    +0.000 HD
BRANCH   8  18
ATOM     12  C   UNL     1      -0.332   9.158  23.032  0.00  0.00    +0.000 C 
ATOM     13  C   UNL     1       0.321   9.376  21.700  0.00  0.00    +0.000 A 
ATOM     14  C   UNL     1       0.097  10.549  20.982  0.00  0.00    +0.000 A 
ATOM     15  C   UNL     1       0.688  10.729  19.732  0.00  0.00    +0.000 A 
ATOM     16  C   UNL     1       1.509   9.738  19.158  0.00  0.00    +0.000 A 
ATOM     17  C   UNL     1       2.161  10.061  17.842  0.00  0.00    +0.000 C 
ATOM     18  C   UNL     1       1.700   8.531  19.855  0.00  0.00    +0.000 A 
ATOM     19  C   UNL     1       1.139   8.383  21.138  0.00  0.00    +0.000 A 
ENDBRANCH   8  18
ENDBRANCH   1   9
BRANCH   1  20
ATOM     20  S   UNL     1       4.855   5.963  18.628  0.00  0.00    +0.000 S 
BRANCH  20  21
ATOM     21  C   UNL     1       5.839   5.753  17.230  0.00  0.00    +0.000 A 
ATOM     22  N   UNL     1       7.119   6.057  17.166  0.00  0.00    +0.000 NA
ATOM     23  N   UNL     1       7.543   5.668  15.916  0.00  0.00    +0.000 NA
ATOM     24  C   UNL     1       6.495   5.156  15.295  0.00  0.00    +0.000 A 
ATOM     25  O   UNL     1       5.366   5.214  16.069  0.00  0.00    +0.000 OA
BRANCH  24  26
ATOM     26  C   UNL     1       6.530   4.548  13.947  0.00  0.00    +0.000 A 
ATOM     27  C   UNL     1       5.719   3.502  13.443  0.00  0.00    +0.000 A 
ATOM     28  C   UNL     1       6.150   3.278  12.157  0.00  0.00    +0.000 A 
ATOM     29  O   UNL     1       7.171   4.121  11.841  0.00  0.00    +0.000 OA
ATOM     30  C   UNL     1       7.403   4.896  12.941  0.00  0.00    +0.000 A 
ATOM     31  C   UNL     1       8.506   5.872  12.834  0.00  0.00    +0.000 C 
ENDBRANCH  24  26
ENDBRANCH  20  21
ENDBRANCH   1  20
TORSDOF 6
ENDMDL
