MODEL 1
REMARK VINA RESULT:      -8.9      0.000      0.000
REMARK  Name = 
REMARK  7 active torsions:
REMARK  status: ('A' for Active; 'I' for Inactive)
REMARK    1  A    between atoms: C_1  and  N_2
REMARK    2  A    between atoms: C_6  and  C_7
REMARK    3  A    between atoms: C_7  and  O_8
REMARK    4  A    between atoms: C_7  and  C_9
REMARK    5  A    between atoms: C_9  and  C_10
REMARK    6  A    between atoms: C_14  and  N_15
REMARK    7  A    between atoms: C_20  and  C_21
REMARK                            x       y       z     vdW  Elec       q    Type
REMARK                         _______ _______ _______ _____ _____    ______ ____
ROOT
ATOM      1  C   UNL     1       2.283   5.620  18.980  0.00  0.00    +0.000 A 
ATOM      2  C   UNL     1       2.094   6.470  17.870  0.00  0.00    +0.000 A 
ATOM      3  C   UNL     1       2.094   7.855  17.988  0.00  0.00    +0.000 A 
ATOM      4  C   UNL     1       2.100   8.430  19.248  0.00  0.00    +0.000 A 
ATOM      5  C   UNL     1       1.920   7.604  20.365  0.00  0.00    +0.000 A 
ATOM      6  C   UNL     1       2.184   6.237  20.240  0.00  0.00    +0.000 A 
ENDROOT
BRANCH   5   7
ATOM      7  N   UNL     1       1.015   8.014  21.440  0.00  0.00    +0.000 N 
ATOM      8  C   UNL     1      -0.365   8.177  20.905  0.00  0.00    +0.000 C 
ATOM      9  C   UNL     1      -0.326   9.594  20.418  0.00  0.00    +0.000 A 
ATOM     10  C   UNL     1      -0.710  10.096  19.186  0.00  0.00    +0.000 A 
ATOM     11  C   UNL     1      -0.129  11.297  18.758  0.00  0.00    +0.000 A 
ATOM     12  C   UNL     1       0.803  11.997  19.567  0.00  0.00    +0.000 A 
ATOM     13  C   UNL     1       1.125  11.506  20.843  0.00  0.00    +0.000 A 
ATOM     14  C   UNL     1       0.582  10.291  21.221  0.00  0.00    +0.000 A 
ATOM     15  C   UNL     1       1.320   9.277  22.023  0.00  0.00    +0.000 C 
ATOM     16  O   UNL     1       2.183   9.548  22.830  0.00  0.00    +0.000 OA
BRANCH  12  17
ATOM     17  C   UNL     1       1.579  13.173  19.021  0.00  0.00    +0.000 C 
ATOM     18  F   UNL     1       0.807  14.264  18.760  0.00  0.00    +0.000 F 
ATOM     19  F   UNL     1       2.559  13.592  19.865  0.00  0.00    +0.000 F 
ATOM     20  F   UNL     1       2.198  12.872  17.843  0.00  0.00    +0.000 F 
ENDBRANCH  12  17
ENDBRANCH   5   7
BRANCH   1  21
ATOM     21  C   UNL     1       2.544   4.028  18.793  0.00  0.00    +0.000 C 
ATOM     22  C   UNL     1       2.589   3.136  20.094  0.00  0.00    +0.000 C 
ATOM     23  C   UNL     1       1.125   2.753  19.863  0.00  0.00    +0.000 C 
ATOM     24  C   UNL     1       1.272   3.191  18.397  0.00  0.00    +0.000 C 
BRANCH  21  25
ATOM     25  C   UNL     1       3.842   3.775  17.964  0.00  0.00    +0.000 C 
BRANCH  25  31
ATOM     26  C   UNL     1       5.439   6.127  16.421  0.00  0.00    +0.000 C 
ATOM     27  N   UNL     1       5.710   5.556  17.714  0.00  0.00    +0.000 N 
ATOM     28  C   UNL     1       6.737   5.954  18.521  0.00  0.00    +0.000 A 
ATOM     29  N   UNL     1       6.761   5.212  19.600  0.00  0.00    +0.000 NA
ATOM     30  N   UNL     1       5.713   4.333  19.520  0.00  0.00    +0.000 NA
ATOM     31  C   UNL     1       5.064   4.539  18.384  0.00  0.00    +0.000 A 
ENDBRANCH  25  31
BRANCH  25  32
ATOM     32  O   UNL     1       4.129   2.370  17.951  0.00  0.00    +0.000 OA
ATOM     33  H   UNL     1       3.395   1.931  17.484  0.00  0.00    +0.000 HD
ENDBRANCH  25  32
ENDBRANCH  21  25
ENDBRANCH   1  21
TORSDOF 6
ENDMDL
MODEL 2
REMARK VINA RESULT:      -8.1      0.810      1.090
REMARK  Name = 
REMARK  7 active torsions:
REMARK  status: ('A' for Active; 'I' for Inactive)
REMARK    1  A    between atoms: C_1  and  N_2
REMARK    2  A    between atoms: C_6  and  C_7
REMARK    3  A    between atoms: C_7  and  O_8
REMARK    4  A    between atoms: C_7  and  C_9
REMARK    5  A    between atoms: C_9  and  C_10
REMARK    6  A    between atoms: C_14  and  N_15
REMARK    7  A    between atoms: C_20  and  C_21
REMARK                            x       y       z     vdW  Elec       q    Type
REMARK                         _______ _______ _______ _____ _____    ______ ____
ROOT
ATOM      1  C   UNL     1       2.211   5.400  19.235  0.00  0.00    +0.000 A 
ATOM      2  C   UNL     1       2.138   6.226  18.093  0.00  0.00    +0.000 A 
ATOM      3  C   UNL     1       2.222   7.611  18.174  0.00  0.00    +0.000 A 
ATOM      4  C   UNL     1       2.197   8.223  19.416  0.00  0.00    +0.000 A 
ATOM      5  C   UNL     1       1.903   7.444  20.543  0.00  0.00    +0.000 A 
ATOM      6  C   UNL     1       2.084   6.060  20.470  0.00  0.00    +0.000 A 
ENDROOT
BRANCH   5   7
ATOM      7  N   UNL     1       0.969   7.944  21.553  0.00  0.00    +0.000 N 
ATOM      8  C   UNL     1      -0.381   8.124  20.951  0.00  0.00    +0.000 C 
ATOM      9  C   UNL     1      -0.269   9.509  20.390  0.00  0.00    +0.000 A 
ATOM     10  C   UNL     1      -0.583   9.955  19.118  0.00  0.00    +0.000 A 
ATOM     11  C   UNL     1       0.059  11.110  18.651  0.00  0.00    +0.000 A 
ATOM     12  C   UNL     1       0.981  11.822  19.461  0.00  0.00    +0.000 A 
ATOM     13  C   UNL     1       1.231  11.391  20.775  0.00  0.00    +0.000 A 
ATOM     14  C   UNL     1       0.629  10.219  21.194  0.00  0.00    +0.000 A 
ATOM     15  C   UNL     1       1.296   9.226  22.081  0.00  0.00    +0.000 C 
ATOM     16  O   UNL     1       2.133   9.511  22.909  0.00  0.00    +0.000 OA
BRANCH  12  17
ATOM     17  C   UNL     1       1.821  12.939  18.888  0.00  0.00    +0.000 C 
ATOM     18  F   UNL     1       2.546  12.573  17.796  0.00  0.00    +0.000 F 
ATOM     19  F   UNL     1       1.079  14.013  18.511  0.00  0.00    +0.000 F 
ATOM     20  F   UNL     1       2.731  13.407  19.791  0.00  0.00    +0.000 F 
ENDBRANCH  12  17
ENDBRANCH   5   7
BRANCH   1  21
ATOM     21  C   UNL     1       2.377   3.789  19.105  0.00  0.00    +0.000 C 
ATOM     22  C   UNL     1       1.468   2.884  20.023  0.00  0.00    +0.000 C 
ATOM     23  C   UNL     1       0.491   2.708  18.858  0.00  0.00    +0.000 C 
ATOM     24  C   UNL     1       1.610   3.140  17.895  0.00  0.00    +0.000 C 
BRANCH  21  25
ATOM     25  C   UNL     1       3.867   3.371  19.302  0.00  0.00    +0.000 C 
BRANCH  25  31
ATOM     26  C   UNL     1       4.868   4.088  16.311  0.00  0.00    +0.000 C 
ATOM     27  N   UNL     1       5.294   4.659  17.561  0.00  0.00    +0.000 N 
ATOM     28  C   UNL     1       6.231   5.647  17.666  0.00  0.00    +0.000 A 
ATOM     29  N   UNL     1       6.447   5.914  18.930  0.00  0.00    +0.000 NA
ATOM     30  N   UNL     1       5.615   5.116  19.670  0.00  0.00    +0.000 NA
ATOM     31  C   UNL     1       4.905   4.357  18.849  0.00  0.00    +0.000 A 
ENDBRANCH  25  31
BRANCH  25  32
ATOM     32  O   UNL     1       4.087   3.035  20.679  0.00  0.00    +0.000 OA
ATOM     33  H   UNL     1       5.021   2.773  20.765  0.00  0.00    +0.000 HD
ENDBRANCH  25  32
ENDBRANCH  21  25
ENDBRANCH   1  21
TORSDOF 6
ENDMDL
MODEL 3
REMARK VINA RESULT:      -7.9      1.162      1.598
REMARK  Name = 
REMARK  7 active torsions:
REMARK  status: ('A' for Active; 'I' for Inactive)
REMARK    1  A    between atoms: C_1  and  N_2
REMARK    2  A    between atoms: C_6  and  C_7
REMARK    3  A    between atoms: C_7  and  O_8
REMARK    4  A    between atoms: C_7  and  C_9
REMARK    5  A    between atoms: C_9  and  C_10
REMARK    6  A    between atoms: C_14  and  N_15
REMARK    7  A    between atoms: C_20  and  C_21
REMARK                            x       y       z     vdW  Elec       q    Type
REMARK                         _______ _______ _______ _____ _____    ______ ____
ROOT
ATOM      1  C   UNL     1       2.280   6.506  19.030  0.00  0.00    +0.000 A 
ATOM      2  C   UNL     1       2.364   7.125  17.765  0.00  0.00    +0.000 A 
ATOM      3  C   UNL     1       2.297   8.505  17.610  0.00  0.00    +0.000 A 
ATOM      4  C   UNL     1       1.959   9.296  18.695  0.00  0.00    +0.000 A 
ATOM      5  C   UNL     1       1.516   8.673  19.870  0.00  0.00    +0.000 A 
ATOM      6  C   UNL     1       1.840   7.330  20.081  0.00  0.00    +0.000 A 
ENDROOT
BRANCH   5   7
ATOM      7  N   UNL     1       0.352   9.200  20.583  0.00  0.00    +0.000 N 
ATOM      8  C   UNL     1      -0.559   9.888  19.627  0.00  0.00    +0.000 C 
ATOM      9  C   UNL     1       0.030  11.266  19.600  0.00  0.00    +0.000 A 
ATOM     10  C   UNL     1       0.371  12.040  18.504  0.00  0.00    +0.000 A 
ATOM     11  C   UNL     1       1.349  13.028  18.679  0.00  0.00    +0.000 A 
ATOM     12  C   UNL     1       1.956  13.254  19.941  0.00  0.00    +0.000 A 
ATOM     13  C   UNL     1       1.544  12.504  21.056  0.00  0.00    +0.000 A 
ATOM     14  C   UNL     1       0.618  11.498  20.848  0.00  0.00    +0.000 A 
ATOM     15  C   UNL     1       0.653  10.191  21.560  0.00  0.00    +0.000 C 
ATOM     16  O   UNL     1       1.099  10.039  22.677  0.00  0.00    +0.000 OA
BRANCH  12  17
ATOM     17  C   UNL     1       3.148  14.171  20.080  0.00  0.00    +0.000 C 
ATOM     18  F   UNL     1       3.941  13.879  21.147  0.00  0.00    +0.000 F 
ATOM     19  F   UNL     1       3.956  14.150  18.988  0.00  0.00    +0.000 F 
ATOM     20  F   UNL     1       2.773  15.473  20.248  0.00  0.00    +0.000 F 
ENDBRANCH  12  17
ENDBRANCH   5   7
BRANCH   1  21
ATOM     21  C   UNL     1       2.622   4.930  19.225  0.00  0.00    +0.000 C 
ATOM     22  C   UNL     1       2.934   4.424  20.687  0.00  0.00    +0.000 C 
ATOM     23  C   UNL     1       1.483   3.953  20.817  0.00  0.00    +0.000 C 
ATOM     24  C   UNL     1       1.368   3.982  19.284  0.00  0.00    +0.000 C 
BRANCH  21  25
ATOM     25  C   UNL     1       3.789   4.498  18.283  0.00  0.00    +0.000 C 
BRANCH  25  31
ATOM     26  C   UNL     1       5.706   6.529  16.651  0.00  0.00    +0.000 C 
ATOM     27  N   UNL     1       5.940   5.901  17.923  0.00  0.00    +0.000 N 
ATOM     28  C   UNL     1       7.069   6.091  18.668  0.00  0.00    +0.000 A 
ATOM     29  N   UNL     1       7.017   5.344  19.743  0.00  0.00    +0.000 NA
ATOM     30  N   UNL     1       5.821   4.677  19.725  0.00  0.00    +0.000 NA
ATOM     31  C   UNL     1       5.156   5.015  18.630  0.00  0.00    +0.000 A 
ENDBRANCH  25  31
BRANCH  25  32
ATOM     32  O   UNL     1       3.821   3.067  18.194  0.00  0.00    +0.000 OA
ATOM     33  H   UNL     1       4.664   2.824  17.771  0.00  0.00    +0.000 HD
ENDBRANCH  25  32
ENDBRANCH  21  25
ENDBRANCH   1  21
TORSDOF 6
ENDMDL
MODEL 4
REMARK VINA RESULT:      -7.8      4.388      7.549
REMARK  Name = 
REMARK  7 active torsions:
REMARK  status: ('A' for Active; 'I' for Inactive)
REMARK    1  A    between atoms: C_1  and  N_2
REMARK    2  A    between atoms: C_6  and  C_7
REMARK    3  A    between atoms: C_7  and  O_8
REMARK    4  A    between atoms: C_7  and  C_9
REMARK    5  A    between atoms: C_9  and  C_10
REMARK    6  A    between atoms: C_14  and  N_15
REMARK    7  A    between atoms: C_20  and  C_21
REMARK                            x       y       z     vdW  Elec       q    Type
REMARK                         _______ _______ _______ _____ _____    ______ ____
ROOT
ATOM      1  C   UNL     1       3.402   5.355  18.829  0.00  0.00    +0.000 A 
ATOM      2  C   UNL     1       3.312   4.172  18.065  0.00  0.00    +0.000 A 
ATOM      3  C   UNL     1       4.341   3.239  18.021  0.00  0.00    +0.000 A 
ATOM      4  C   UNL     1       5.563   3.547  18.593  0.00  0.00    +0.000 A 
ATOM      5  C   UNL     1       5.788   4.857  19.037  0.00  0.00    +0.000 A 
ATOM      6  C   UNL     1       4.685   5.672  19.308  0.00  0.00    +0.000 A 
ENDROOT
BRANCH   5   7
ATOM      7  N   UNL     1       7.056   5.523  18.738  0.00  0.00    +0.000 N 
ATOM      8  C   UNL     1       6.796   6.860  18.136  0.00  0.00    +0.000 C 
ATOM      9  C   UNL     1       6.657   6.505  16.686  0.00  0.00    +0.000 A 
ATOM     10  C   UNL     1       5.653   6.861  15.801  0.00  0.00    +0.000 A 
ATOM     11  C   UNL     1       5.437   6.035  14.689  0.00  0.00    +0.000 A 
ATOM     12  C   UNL     1       6.234   4.885  14.457  0.00  0.00    +0.000 A 
ATOM     13  C   UNL     1       7.292   4.582  15.330  0.00  0.00    +0.000 A 
ATOM     14  C   UNL     1       7.452   5.380  16.449  0.00  0.00    +0.000 A 
ATOM     15  C   UNL     1       7.867   4.853  17.778  0.00  0.00    +0.000 C 
ATOM     16  O   UNL     1       8.571   3.879  17.932  0.00  0.00    +0.000 OA
BRANCH  12  17
ATOM     17  C   UNL     1       5.869   3.888  13.381  0.00  0.00    +0.000 C 
ATOM     18  F   UNL     1       4.589   4.011  12.935  0.00  0.00    +0.000 F 
ATOM     19  F   UNL     1       6.666   3.984  12.285  0.00  0.00    +0.000 F 
ATOM     20  F   UNL     1       5.982   2.601  13.820  0.00  0.00    +0.000 F 
ENDBRANCH  12  17
ENDBRANCH   5   7
BRANCH   1  21
ATOM     21  C   UNL     1       2.105   6.300  19.083  0.00  0.00    +0.000 C 
ATOM     22  C   UNL     1       2.344   7.854  19.207  0.00  0.00    +0.000 C 
ATOM     23  C   UNL     1       1.964   8.015  17.733  0.00  0.00    +0.000 C 
ATOM     24  C   UNL     1       1.273   6.643  17.792  0.00  0.00    +0.000 C 
BRANCH  21  25
ATOM     25  C   UNL     1       1.302   5.813  20.330  0.00  0.00    +0.000 C 
BRANCH  25  31
ATOM     26  C   UNL     1       0.333   2.944  19.192  0.00  0.00    +0.000 C 
ATOM     27  N   UNL     1       1.202   3.221  20.304  0.00  0.00    +0.000 N 
ATOM     28  C   UNL     1       1.779   2.255  21.077  0.00  0.00    +0.000 A 
ATOM     29  N   UNL     1       2.465   2.816  22.042  0.00  0.00    +0.000 NA
ATOM     30  N   UNL     1       2.368   4.173  21.883  0.00  0.00    +0.000 NA
ATOM     31  C   UNL     1       1.612   4.430  20.827  0.00  0.00    +0.000 A 
ENDBRANCH  25  31
BRANCH  25  32
ATOM     32  O   UNL     1       1.464   6.758  21.396  0.00  0.00    +0.000 OA
ATOM     33  H   UNL     1       0.820   6.523  22.088  0.00  0.00    +0.000 HD
ENDBRANCH  25  32
ENDBRANCH  21  25
ENDBRANCH   1  21
TORSDOF 6
ENDMDL
MODEL 5
REMARK VINA RESULT:      -7.8      0.724      1.215
REMARK  Name = 
REMARK  7 active torsions:
REMARK  status: ('A' for Active; 'I' for Inactive)
REMARK    1  A    between atoms: C_1  and  N_2
REMARK    2  A    between atoms: C_6  and  C_7
REMARK    3  A    between atoms: C_7  and  O_8
REMARK    4  A    between atoms: C_7  and  C_9
REMARK    5  A    between atoms: C_9  and  C_10
REMARK    6  A    between atoms: C_14  and  N_15
REMARK    7  A    between atoms: C_20  and  C_21
REMARK                            x       y       z     vdW  Elec       q    Type
REMARK                         _______ _______ _______ _____ _____    ______ ____
ROOT
ATOM      1  C   UNL     1       2.340   5.872  18.690  0.00  0.00    +0.000 A 
ATOM      2  C   UNL     1       2.089   6.783  17.642  0.00  0.00    +0.000 A 
ATOM      3  C   UNL     1       2.046   8.157  17.850  0.00  0.00    +0.000 A 
ATOM      4  C   UNL     1       2.070   8.651  19.144  0.00  0.00    +0.000 A 
ATOM      5  C   UNL     1       1.951   7.749  20.210  0.00  0.00    +0.000 A 
ATOM      6  C   UNL     1       2.258   6.404  19.989  0.00  0.00    +0.000 A 
ENDROOT
BRANCH   5   7
ATOM      7  N   UNL     1       1.066   8.058  21.333  0.00  0.00    +0.000 N 
ATOM      8  C   UNL     1      -0.337   8.187  20.852  0.00  0.00    +0.000 C 
ATOM      9  C   UNL     1      -0.376   9.629  20.444  0.00  0.00    +0.000 A 
ATOM     10  C   UNL     1      -0.822  10.181  19.255  0.00  0.00    +0.000 A 
ATOM     11  C   UNL     1      -0.308  11.429  18.878  0.00  0.00    +0.000 A 
ATOM     12  C   UNL     1       0.618  12.125  19.696  0.00  0.00    +0.000 A 
ATOM     13  C   UNL     1       1.004  11.579  20.932  0.00  0.00    +0.000 A 
ATOM     14  C   UNL     1       0.527  10.321  21.257  0.00  0.00    +0.000 A 
ATOM     15  C   UNL     1       1.335   9.299  21.978  0.00  0.00    +0.000 C 
ATOM     16  O   UNL     1       2.212   9.564  22.772  0.00  0.00    +0.000 OA
BRANCH  12  17
ATOM     17  C   UNL     1       1.324  13.363  19.195  0.00  0.00    +0.000 C 
ATOM     18  F   UNL     1       0.535  14.472  19.177  0.00  0.00    +0.000 F 
ATOM     19  F   UNL     1       2.415  13.683  19.939  0.00  0.00    +0.000 F 
ATOM     20  F   UNL     1       1.771  13.211  17.915  0.00  0.00    +0.000 F 
ENDBRANCH  12  17
ENDBRANCH   5   7
BRANCH   1  21
ATOM     21  C   UNL     1       2.648   4.305  18.393  0.00  0.00    +0.000 C 
ATOM     22  C   UNL     1       3.039   3.391  19.618  0.00  0.00    +0.000 C 
ATOM     23  C   UNL     1       1.587   2.915  19.708  0.00  0.00    +0.000 C 
ATOM     24  C   UNL     1       1.373   3.393  18.262  0.00  0.00    +0.000 C 
BRANCH  21  25
ATOM     25  C   UNL     1       3.738   4.157  17.286  0.00  0.00    +0.000 C 
BRANCH  25  31
ATOM     26  C   UNL     1       5.940   5.135  19.444  0.00  0.00    +0.000 C 
ATOM     27  N   UNL     1       5.693   5.642  18.121  0.00  0.00    +0.000 N 
ATOM     28  C   UNL     1       6.400   6.664  17.554  0.00  0.00    +0.000 A 
ATOM     29  N   UNL     1       5.907   6.936  16.372  0.00  0.00    +0.000 NA
ATOM     30  N   UNL     1       4.881   6.058  16.139  0.00  0.00    +0.000 NA
ATOM     31  C   UNL     1       4.749   5.264  17.190  0.00  0.00    +0.000 A 
ENDBRANCH  25  31
BRANCH  25  32
ATOM     32  O   UNL     1       4.409   2.900  17.447  0.00  0.00    +0.000 OA
ATOM     33  H   UNL     1       4.053   2.485  18.254  0.00  0.00    +0.000 HD
ENDBRANCH  25  32
ENDBRANCH  21  25
ENDBRANCH   1  21
TORSDOF 6
ENDMDL
MODEL 6
REMARK VINA RESULT:      -7.8      4.157      7.546
REMARK  Name = 
REMARK  7 active torsions:
REMARK  status: ('A' for Active; 'I' for Inactive)
REMARK    1  A    between atoms: C_1  and  N_2
REMARK    2  A    between atoms: C_6  and  C_7
REMARK    3  A    between atoms: C_7  and  O_8
REMARK    4  A    between atoms: C_7  and  C_9
REMARK    5  A    between atoms: C_9  and  C_10
REMARK    6  A    between atoms: C_14  and  N_15
REMARK    7  A    between atoms: C_20  and  C_21
REMARK                            x       y       z     vdW  Elec       q    Type
REMARK                         _______ _______ _______ _____ _____    ______ ____
ROOT
ATOM      1  C   UNL     1       3.337   4.462  19.293  0.00  0.00    +0.000 A 
ATOM      2  C   UNL     1       3.042   3.821  18.071  0.00  0.00    +0.000 A 
ATOM      3  C   UNL     1       4.022   3.205  17.302  0.00  0.00    +0.000 A 
ATOM      4  C   UNL     1       5.355   3.371  17.639  0.00  0.00    +0.000 A 
ATOM      5  C   UNL     1       5.687   4.301  18.633  0.00  0.00    +0.000 A 
ATOM      6  C   UNL     1       4.701   4.692  19.544  0.00  0.00    +0.000 A 
ENDROOT
BRANCH   5   7
ATOM      7  N   UNL     1       6.813   5.214  18.433  0.00  0.00    +0.000 N 
ATOM      8  C   UNL     1       6.319   6.525  17.929  0.00  0.00    +0.000 C 
ATOM      9  C   UNL     1       6.279   6.274  16.452  0.00  0.00    +0.000 A 
ATOM     10  C   UNL     1       5.245   6.511  15.562  0.00  0.00    +0.000 A 
ATOM     11  C   UNL     1       5.211   5.756  14.382  0.00  0.00    +0.000 A 
ATOM     12  C   UNL     1       6.215   4.797  14.088  0.00  0.00    +0.000 A 
ATOM     13  C   UNL     1       7.293   4.624  14.972  0.00  0.00    +0.000 A 
ATOM     14  C   UNL     1       7.276   5.340  16.156  0.00  0.00    +0.000 A 
ATOM     15  C   UNL     1       7.755   4.790  17.454  0.00  0.00    +0.000 C 
ATOM     16  O   UNL     1       8.627   3.953  17.556  0.00  0.00    +0.000 OA
BRANCH  12  17
ATOM     17  C   UNL     1       6.066   3.844  12.925  0.00  0.00    +0.000 C 
ATOM     18  F   UNL     1       6.857   4.152  11.861  0.00  0.00    +0.000 F 
ATOM     19  F   UNL     1       6.357   2.560  13.259  0.00  0.00    +0.000 F 
ATOM     20  F   UNL     1       4.790   3.829  12.440  0.00  0.00    +0.000 F 
ENDBRANCH  12  17
ENDBRANCH   5   7
BRANCH   1  21
ATOM     21  C   UNL     1       2.159   4.941  20.304  0.00  0.00    +0.000 C 
ATOM     22  C   UNL     1       0.672   4.578  19.920  0.00  0.00    +0.000 C 
ATOM     23  C   UNL     1       0.745   3.364  20.849  0.00  0.00    +0.000 C 
ATOM     24  C   UNL     1       1.944   4.015  21.557  0.00  0.00    +0.000 C 
BRANCH  21  25
ATOM     25  C   UNL     1       2.250   6.477  20.569  0.00  0.00    +0.000 C 
BRANCH  25  31
ATOM     26  C   UNL     1       0.895   9.396  20.242  0.00  0.00    +0.000 C 
ATOM     27  N   UNL     1       1.610   8.623  19.261  0.00  0.00    +0.000 N 
ATOM     28  C   UNL     1       1.836   9.041  17.981  0.00  0.00    +0.000 A 
ATOM     29  N   UNL     1       2.458   8.100  17.316  0.00  0.00    +0.000 NA
ATOM     30  N   UNL     1       2.677   7.059  18.178  0.00  0.00    +0.000 NA
ATOM     31  C   UNL     1       2.175   7.370  19.364  0.00  0.00    +0.000 A 
ENDBRANCH  25  31
BRANCH  25  32
ATOM     32  O   UNL     1       1.240   6.854  21.514  0.00  0.00    +0.000 OA
ATOM     33  H   UNL     1       1.504   7.714  21.889  0.00  0.00    +0.000 HD
ENDBRANCH  25  32
ENDBRANCH  21  25
ENDBRANCH   1  21
TORSDOF 6
ENDMDL
MODEL 7
REMARK VINA RESULT:      -7.7      6.077      9.893
REMARK  Name = 
REMARK  7 active torsions:
REMARK  status: ('A' for Active; 'I' for Inactive)
REMARK    1  A    between atoms: C_1  and  N_2
REMARK    2  A    between atoms: C_6  and  C_7
REMARK    3  A    between atoms: C_7  and  O_8
REMARK    4  A    between atoms: C_7  and  C_9
REMARK    5  A    between atoms: C_9  and  C_10
REMARK    6  A    between atoms: C_14  and  N_15
REMARK    7  A    between atoms: C_20  and  C_21
REMARK                            x       y       z     vdW  Elec       q    Type
REMARK                         _______ _______ _______ _____ _____    ______ ____
ROOT
ATOM      1  C   UNL     1      -4.685  11.948  18.119  0.00  0.00    +0.000 A 
ATOM      2  C   UNL     1      -4.630  11.498  16.782  0.00  0.00    +0.000 A 
ATOM      3  C   UNL     1      -3.466  10.985  16.221  0.00  0.00    +0.000 A 
ATOM      4  C   UNL     1      -2.275  11.076  16.922  0.00  0.00    +0.000 A 
ATOM      5  C   UNL     1      -2.241  11.845  18.093  0.00  0.00    +0.000 A 
ATOM      6  C   UNL     1      -3.442  12.116  18.754  0.00  0.00    +0.000 A 
ENDROOT
BRANCH   5   7
ATOM      7  N   UNL     1      -1.123  12.758  18.335  0.00  0.00    +0.000 N 
ATOM      8  C   UNL     1       0.161  12.092  17.985  0.00  0.00    +0.000 C 
ATOM      9  C   UNL     1       0.482  11.383  19.266  0.00  0.00    +0.000 A 
ATOM     10  C   UNL     1       0.835  10.057  19.456  0.00  0.00    +0.000 A 
ATOM     11  C   UNL     1       0.587   9.487  20.712  0.00  0.00    +0.000 A 
ATOM     12  C   UNL     1       0.020  10.244  21.769  0.00  0.00    +0.000 A 
ATOM     13  C   UNL     1      -0.265  11.607  21.575  0.00  0.00    +0.000 A 
ATOM     14  C   UNL     1      -0.064  12.133  20.311  0.00  0.00    +0.000 A 
ATOM     15  C   UNL     1      -0.960  13.149  19.695  0.00  0.00    +0.000 C 
ATOM     16  O   UNL     1      -1.591  13.970  20.326  0.00  0.00    +0.000 OA
BRANCH  12  17
ATOM     17  C   UNL     1      -0.435   9.579  23.047  0.00  0.00    +0.000 C 
ATOM     18  F   UNL     1      -1.393  10.278  23.716  0.00  0.00    +0.000 F 
ATOM     19  F   UNL     1      -0.943   8.336  22.840  0.00  0.00    +0.000 F 
ATOM     20  F   UNL     1       0.591   9.425  23.934  0.00  0.00    +0.000 F 
ENDBRANCH  12  17
ENDBRANCH   5   7
BRANCH   1  21
ATOM     21  C   UNL     1      -6.100  12.294  18.837  0.00  0.00    +0.000 C 
ATOM     22  C   UNL     1      -6.402  13.807  19.168  0.00  0.00    +0.000 C 
ATOM     23  C   UNL     1      -7.223  13.909  17.880  0.00  0.00    +0.000 C 
ATOM     24  C   UNL     1      -7.334  12.376  17.865  0.00  0.00    +0.000 C 
BRANCH  21  25
ATOM     25  C   UNL     1      -6.281  11.449  20.137  0.00  0.00    +0.000 C 
BRANCH  25  31
ATOM     26  C   UNL     1      -4.403  12.851  22.366  0.00  0.00    +0.000 C 
ATOM     27  N   UNL     1      -5.840  12.812  22.299  0.00  0.00    +0.000 N 
ATOM     28  C   UNL     1      -6.661  13.401  23.217  0.00  0.00    +0.000 A 
ATOM     29  N   UNL     1      -7.909  13.143  22.919  0.00  0.00    +0.000 NA
ATOM     30  N   UNL     1      -7.915  12.401  21.767  0.00  0.00    +0.000 NA
ATOM     31  C   UNL     1      -6.665  12.203  21.378  0.00  0.00    +0.000 A 
ENDBRANCH  25  31
BRANCH  25  32
ATOM     32  O   UNL     1      -7.229  10.402  19.893  0.00  0.00    +0.000 OA
ATOM     33  H   UNL     1      -8.048  10.824  19.576  0.00  0.00    +0.000 HD
ENDBRANCH  25  32
ENDBRANCH  21  25
ENDBRANCH   1  21
TORSDOF 6
ENDMDL
MODEL 8
REMARK VINA RESULT:      -7.7      1.137      1.588
REMARK  Name = 
REMARK  7 active torsions:
REMARK  status: ('A' for Active; 'I' for Inactive)
REMARK    1  A    between atoms: C_1  and  N_2
REMARK    2  A    between atoms: C_6  and  C_7
REMARK    3  A    between atoms: C_7  and  O_8
REMARK    4  A    between atoms: C_7  and  C_9
REMARK    5  A    between atoms: C_9  and  C_10
REMARK    6  A    between atoms: C_14  and  N_15
REMARK    7  A    between atoms: C_20  and  C_21
REMARK                            x       y       z     vdW  Elec       q    Type
REMARK                         _______ _______ _______ _____ _____    ______ ____
ROOT
ATOM      1  C   UNL     1       2.469   5.864  18.865  0.00  0.00    +0.000 A 
ATOM      2  C   UNL     1       2.203   6.704  17.763  0.00  0.00    +0.000 A 
ATOM      3  C   UNL     1       2.064   8.080  17.897  0.00  0.00    +0.000 A 
ATOM      4  C   UNL     1       2.004   8.638  19.164  0.00  0.00    +0.000 A 
ATOM      5  C   UNL     1       1.900   7.784  20.270  0.00  0.00    +0.000 A 
ATOM      6  C   UNL     1       2.301   6.453  20.131  0.00  0.00    +0.000 A 
ENDROOT
BRANCH   5   7
ATOM      7  N   UNL     1       0.952   8.090  21.342  0.00  0.00    +0.000 N 
ATOM      8  C   UNL     1      -0.419   8.232  20.781  0.00  0.00    +0.000 C 
ATOM      9  C   UNL     1      -0.425   9.678  20.385  0.00  0.00    +0.000 A 
ATOM     10  C   UNL     1      -0.797  10.243  19.177  0.00  0.00    +0.000 A 
ATOM     11  C   UNL     1      -0.254  11.491  18.842  0.00  0.00    +0.000 A 
ATOM     12  C   UNL     1       0.627  12.173  19.720  0.00  0.00    +0.000 A 
ATOM     13  C   UNL     1       0.936  11.614  20.971  0.00  0.00    +0.000 A 
ATOM     14  C   UNL     1       0.433  10.357  21.256  0.00  0.00    +0.000 A 
ATOM     15  C   UNL     1       1.191   9.323  22.013  0.00  0.00    +0.000 C 
ATOM     16  O   UNL     1       2.021   9.574  22.860  0.00  0.00    +0.000 OA
BRANCH  12  17
ATOM     17  C   UNL     1       1.369  13.411  19.272  0.00  0.00    +0.000 C 
ATOM     18  F   UNL     1       2.134  13.219  18.164  0.00  0.00    +0.000 F 
ATOM     19  F   UNL     1       0.536  14.447  18.987  0.00  0.00    +0.000 F 
ATOM     20  F   UNL     1       2.224  13.868  20.233  0.00  0.00    +0.000 F 
ENDBRANCH  12  17
ENDBRANCH   5   7
BRANCH   1  21
ATOM     21  C   UNL     1       2.888   4.308  18.662  0.00  0.00    +0.000 C 
ATOM     22  C   UNL     1       2.397   3.270  19.743  0.00  0.00    +0.000 C 
ATOM     23  C   UNL     1       1.224   2.898  18.832  0.00  0.00    +0.000 C 
ATOM     24  C   UNL     1       1.991   3.508  17.647  0.00  0.00    +0.000 C 
BRANCH  21  25
ATOM     25  C   UNL     1       4.434   4.170  18.497  0.00  0.00    +0.000 C 
BRANCH  25  31
ATOM     26  C   UNL     1       5.674   6.900  17.283  0.00  0.00    +0.000 C 
ATOM     27  N   UNL     1       5.534   5.617  16.647  0.00  0.00    +0.000 N 
ATOM     28  C   UNL     1       5.935   5.354  15.368  0.00  0.00    +0.000 A 
ATOM     29  N   UNL     1       5.623   4.122  15.055  0.00  0.00    +0.000 NA
ATOM     30  N   UNL     1       5.039   3.550  16.155  0.00  0.00    +0.000 NA
ATOM     31  C   UNL     1       4.989   4.446  17.129  0.00  0.00    +0.000 A 
ENDBRANCH  25  31
BRANCH  25  32
ATOM     32  O   UNL     1       5.089   5.004  19.462  0.00  0.00    +0.000 OA
ATOM     33  H   UNL     1       4.404   5.561  19.873  0.00  0.00    +0.000 HD
ENDBRANCH  25  32
ENDBRANCH  21  25
ENDBRANCH   1  21
TORSDOF 6
ENDMDL
MODEL 9
REMARK VINA RESULT:      -7.6      1.171      1.584
REMARK  Name = 
REMARK  7 active torsions:
REMARK  status: ('A' for Active; 'I' for Inactive)
REMARK    1  A    between atoms: C_1  and  N_2
REMARK    2  A    between atoms: C_6  and  C_7
REMARK    3  A    between atoms: C_7  and  O_8
REMARK    4  A    between atoms: C_7  and  C_9
REMARK    5  A    between atoms: C_9  and  C_10
REMARK    6  A    between atoms: C_14  and  N_15
REMARK    7  A    between atoms: C_20  and  C_21
REMARK                            x       y       z     vdW  Elec       q    Type
REMARK                         _______ _______ _______ _____ _____    ______ ____
ROOT
ATOM      1  C   UNL     1       2.550   5.886  18.966  0.00  0.00    +0.000 A 
ATOM      2  C   UNL     1       2.284   6.676  17.827  0.00  0.00    +0.000 A 
ATOM      3  C   UNL     1       2.089   8.049  17.906  0.00  0.00    +0.000 A 
ATOM      4  C   UNL     1       1.972   8.649  19.149  0.00  0.00    +0.000 A 
ATOM      5  C   UNL     1       1.869   7.832  20.283  0.00  0.00    +0.000 A 
ATOM      6  C   UNL     1       2.324   6.513  20.204  0.00  0.00    +0.000 A 
ENDROOT
BRANCH   5   7
ATOM      7  N   UNL     1       0.880   8.138  21.317  0.00  0.00    +0.000 N 
ATOM      8  C   UNL     1      -0.458   8.340  20.695  0.00  0.00    +0.000 C 
ATOM      9  C   UNL     1      -0.399   9.795  20.341  0.00  0.00    +0.000 A 
ATOM     10  C   UNL     1      -0.695  10.405  19.134  0.00  0.00    +0.000 A 
ATOM     11  C   UNL     1      -0.099  11.643  18.862  0.00  0.00    +0.000 A 
ATOM     12  C   UNL     1       0.760  12.273  19.800  0.00  0.00    +0.000 A 
ATOM     13  C   UNL     1       0.990  11.670  21.048  0.00  0.00    +0.000 A 
ATOM     14  C   UNL     1       0.435  10.422  21.272  0.00  0.00    +0.000 A 
ATOM     15  C   UNL     1       1.123   9.344  22.034  0.00  0.00    +0.000 C 
ATOM     16  O   UNL     1       1.919   9.545  22.926  0.00  0.00    +0.000 OA
BRANCH  12  17
ATOM     17  C   UNL     1       1.560  13.498  19.424  0.00  0.00    +0.000 C 
ATOM     18  F   UNL     1       1.428  14.528  20.304  0.00  0.00    +0.000 F 
ATOM     19  F   UNL     1       2.891  13.246  19.328  0.00  0.00    +0.000 F 
ATOM     20  F   UNL     1       1.182  14.001  18.213  0.00  0.00    +0.000 F 
ENDBRANCH  12  17
ENDBRANCH   5   7
BRANCH   1  21
ATOM     21  C   UNL     1       3.034   4.342  18.831  0.00  0.00    +0.000 C 
ATOM     22  C   UNL     1       2.513   3.314  19.909  0.00  0.00    +0.000 C 
ATOM     23  C   UNL     1       1.412   2.878  18.939  0.00  0.00    +0.000 C 
ATOM     24  C   UNL     1       2.229   3.484  17.786  0.00  0.00    +0.000 C 
BRANCH  21  25
ATOM     25  C   UNL     1       4.591   4.255  18.764  0.00  0.00    +0.000 C 
BRANCH  25  31
ATOM     26  C   UNL     1       7.691   4.638  17.923  0.00  0.00    +0.000 C 
ATOM     27  N   UNL     1       6.541   4.496  17.071  0.00  0.00    +0.000 N 
ATOM     28  C   UNL     1       6.600   4.497  15.706  0.00  0.00    +0.000 A 
ATOM     29  N   UNL     1       5.390   4.409  15.214  0.00  0.00    +0.000 NA
ATOM     30  N   UNL     1       4.521   4.314  16.268  0.00  0.00    +0.000 NA
ATOM     31  C   UNL     1       5.209   4.357  17.398  0.00  0.00    +0.000 A 
ENDBRANCH  25  31
BRANCH  25  32
ATOM     32  O   UNL     1       5.158   5.249  19.627  0.00  0.00    +0.000 OA
ATOM     33  H   UNL     1       6.022   5.497  19.251  0.00  0.00    +0.000 HD
ENDBRANCH  25  32
ENDBRANCH  21  25
ENDBRANCH   1  21
TORSDOF 6
ENDMDL
