MODEL 1
REMARK VINA RESULT:      -8.6      0.000      0.000
REMARK  Name = 
REMARK  5 active torsions:
REMARK  status: ('A' for Active; 'I' for Inactive)
REMARK    1  A    between atoms: C_8  and  S_9
REMARK    2  A    between atoms: S_9  and  N_12
REMARK    3  A    between atoms: N_12  and  C_13
REMARK    4  A    between atoms: N_17  and  C_18
REMARK    5  A    between atoms: C_18  and  C_19
REMARK                            x       y       z     vdW  Elec       q    Type
REMARK                         _______ _______ _______ _____ _____    ______ ____
ROOT
ATOM      1  S   UNL     1       2.759   6.650  18.478  0.00  0.00    +0.000 S 
ATOM      2  O   UNL     1       1.670   5.902  17.894  0.00  0.00    +0.000 OA
ATOM      3  O   UNL     1       3.878   7.089  17.673  0.00  0.00    +0.000 OA
ENDROOT
BRANCH   1  11
ATOM      4  O   UNL     1      -2.007  12.146  21.036  0.00  0.00    +0.000 OA
ATOM      5  C   UNL     1      -1.065  11.452  21.428  0.00  0.00    +0.000 C 
ATOM      6  C   UNL     1      -1.165  10.701  22.737  0.00  0.00    +0.000 C 
ATOM      7  C   UNL     1      -0.522   9.333  22.843  0.00  0.00    +0.000 C 
ATOM      8  C   UNL     1       0.976   9.387  22.596  0.00  0.00    +0.000 C 
ATOM      9  C   UNL     1       1.222   9.346  21.115  0.00  0.00    +0.000 A 
ATOM     10  C   UNL     1       1.845   8.215  20.555  0.00  0.00    +0.000 A 
ATOM     11  C   UNL     1       2.036   8.127  19.174  0.00  0.00    +0.000 A 
ATOM     12  C   UNL     1       1.655   9.178  18.340  0.00  0.00    +0.000 A 
ATOM     13  C   UNL     1       1.076  10.318  18.899  0.00  0.00    +0.000 A 
ATOM     14  C   UNL     1       0.817  10.389  20.276  0.00  0.00    +0.000 A 
ATOM     15  N   UNL     1       0.099  11.521  20.714  0.00  0.00    +0.000 N 
ATOM     16  H   UNL     1      -0.030  12.226  19.995  0.00  0.00    +0.000 HD
ENDBRANCH   1  11
BRANCH   1  17
ATOM     17  N   UNL     1       3.261   5.826  19.818  0.00  0.00    +0.000 N 
ATOM     18  H   UNL     1       3.384   6.466  20.591  0.00  0.00    +0.000 HD
BRANCH  17  19
ATOM     19  C   UNL     1       2.631   4.629  20.126  0.00  0.00    +0.000 A 
ATOM     20  C   UNL     1       1.411   4.525  20.753  0.00  0.00    +0.000 A 
ATOM     21  C   UNL     1       1.181   3.142  20.865  0.00  0.00    +0.000 A 
ATOM     22  N   UNL     1       2.198   2.420  20.394  0.00  0.00    +0.000 NA
ATOM     23  N   UNL     1       3.077   3.343  19.934  0.00  0.00    +0.000 N 
BRANCH  23  24
ATOM     24  C   UNL     1       4.417   2.914  19.570  0.00  0.00    +0.000 C 
BRANCH  24  25
ATOM     25  C   UNL     1       4.988   3.679  18.411  0.00  0.00    +0.000 A 
ATOM     26  C   UNL     1       4.474   3.532  17.122  0.00  0.00    +0.000 A 
ATOM     27  C   UNL     1       5.119   4.160  16.061  0.00  0.00    +0.000 A 
ATOM     28  C   UNL     1       6.262   4.911  16.308  0.00  0.00    +0.000 A 
ATOM     29  C   UNL     1       6.702   5.017  17.615  0.00  0.00    +0.000 A 
ATOM     30  N   UNL     1       6.094   4.426  18.671  0.00  0.00    +0.000 NA
ENDBRANCH  24  25
ENDBRANCH  23  24
ENDBRANCH  17  19
ENDBRANCH   1  17
TORSDOF 5
ENDMDL
MODEL 2
REMARK VINA RESULT:      -8.3      2.421      3.734
REMARK  Name = 
REMARK  5 active torsions:
REMARK  status: ('A' for Active; 'I' for Inactive)
REMARK    1  A    between atoms: C_8  and  S_9
REMARK    2  A    between atoms: S_9  and  N_12
REMARK    3  A    between atoms: N_12  and  C_13
REMARK    4  A    between atoms: N_17  and  C_18
REMARK    5  A    between atoms: C_18  and  C_19
REMARK                            x       y       z     vdW  Elec       q    Type
REMARK                         _______ _______ _______ _____ _____    ______ ____
ROOT
ATOM      1  S   UNL     1       3.308   5.613  18.146  0.00  0.00    +0.000 S 
ATOM      2  O   UNL     1       4.202   5.252  19.223  0.00  0.00    +0.000 OA
ATOM      3  O   UNL     1       2.222   4.741  17.755  0.00  0.00    +0.000 OA
ENDROOT
BRANCH   1  11
ATOM      4  O   UNL     1      -1.549  11.403  19.682  0.00  0.00    +0.000 OA
ATOM      5  C   UNL     1      -0.659  10.743  20.226  0.00  0.00    +0.000 C 
ATOM      6  C   UNL     1      -0.890  10.136  21.592  0.00  0.00    +0.000 C 
ATOM      7  C   UNL     1      -0.288   8.779  21.896  0.00  0.00    +0.000 C 
ATOM      8  C   UNL     1       1.227   8.790  21.781  0.00  0.00    +0.000 C 
ATOM      9  C   UNL     1       1.602   8.590  20.340  0.00  0.00    +0.000 A 
ATOM     10  C   UNL     1       2.247   7.399  19.958  0.00  0.00    +0.000 A 
ATOM     11  C   UNL     1       2.557   7.164  18.617  0.00  0.00    +0.000 A 
ATOM     12  C   UNL     1       2.274   8.126  17.647  0.00  0.00    +0.000 A 
ATOM     13  C   UNL     1       1.671   9.324  18.031  0.00  0.00    +0.000 A 
ATOM     14  C   UNL     1       1.294   9.543  19.364  0.00  0.00    +0.000 A 
ATOM     15  N   UNL     1       0.564  10.723  19.617  0.00  0.00    +0.000 N 
ATOM     16  H   UNL     1       0.514  11.350  18.819  0.00  0.00    +0.000 HD
ENDBRANCH   1  11
BRANCH   1  17
ATOM     17  N   UNL     1       4.241   6.040  16.853  0.00  0.00    +0.000 N 
ATOM     18  H   UNL     1       3.724   6.661  16.245  0.00  0.00    +0.000 HD
BRANCH  17  19
ATOM     19  C   UNL     1       5.563   6.393  17.085  0.00  0.00    +0.000 A 
ATOM     20  C   UNL     1       5.982   7.645  17.470  0.00  0.00    +0.000 A 
ATOM     21  C   UNL     1       7.381   7.539  17.573  0.00  0.00    +0.000 A 
ATOM     22  N   UNL     1       7.824   6.329  17.231  0.00  0.00    +0.000 NA
ATOM     23  N   UNL     1       6.698   5.632  16.943  0.00  0.00    +0.000 N 
BRANCH  23  24
ATOM     24  C   UNL     1       6.822   4.336  16.295  0.00  0.00    +0.000 C 
BRANCH  24  25
ATOM     25  C   UNL     1       6.839   4.426  14.796  0.00  0.00    +0.000 A 
ATOM     26  C   UNL     1       6.027   3.605  14.012  0.00  0.00    +0.000 A 
ATOM     27  C   UNL     1       6.173   3.632  12.629  0.00  0.00    +0.000 A 
ATOM     28  C   UNL     1       7.126   4.468  12.062  0.00  0.00    +0.000 A 
ATOM     29  C   UNL     1       7.884   5.260  12.905  0.00  0.00    +0.000 A 
ATOM     30  N   UNL     1       7.763   5.263  14.254  0.00  0.00    +0.000 NA
ENDBRANCH  24  25
ENDBRANCH  23  24
ENDBRANCH  17  19
ENDBRANCH   1  17
TORSDOF 5
ENDMDL
MODEL 3
REMARK VINA RESULT:      -8.3      1.894      2.499
REMARK  Name = 
REMARK  5 active torsions:
REMARK  status: ('A' for Active; 'I' for Inactive)
REMARK    1  A    between atoms: C_8  and  S_9
REMARK    2  A    between atoms: S_9  and  N_12
REMARK    3  A    between atoms: N_12  and  C_13
REMARK    4  A    between atoms: N_17  and  C_18
REMARK    5  A    between atoms: C_18  and  C_19
REMARK                            x       y       z     vdW  Elec       q    Type
REMARK                         _______ _______ _______ _____ _____    ______ ____
ROOT
ATOM      1  S   UNL     1       2.620   5.819  19.771  0.00  0.00    +0.000 S 
ATOM      2  O   UNL     1       4.062   5.859  19.862  0.00  0.00    +0.000 OA
ATOM      3  O   UNL     1       1.815   5.391  20.894  0.00  0.00    +0.000 OA
ENDROOT
BRANCH   1  11
ATOM      4  O   UNL     1      -1.301  12.133  17.713  0.00  0.00    +0.000 OA
ATOM      5  C   UNL     1      -0.632  11.698  18.655  0.00  0.00    +0.000 C 
ATOM      6  C   UNL     1      -1.166  11.780  20.068  0.00  0.00    +0.000 C 
ATOM      7  C   UNL     1      -0.866  10.645  21.027  0.00  0.00    +0.000 C 
ATOM      8  C   UNL     1       0.627  10.457  21.237  0.00  0.00    +0.000 C 
ATOM      9  C   UNL     1       1.168   9.607  20.122  0.00  0.00    +0.000 A 
ATOM     10  C   UNL     1       1.640   8.314  20.413  0.00  0.00    +0.000 A 
ATOM     11  C   UNL     1       2.096   7.483  19.388  0.00  0.00    +0.000 A 
ATOM     12  C   UNL     1       2.134   7.942  18.071  0.00  0.00    +0.000 A 
ATOM     13  C   UNL     1       1.705   9.239  17.788  0.00  0.00    +0.000 A 
ATOM     14  C   UNL     1       1.181  10.058  18.798  0.00  0.00    +0.000 A 
ATOM     15  N   UNL     1       0.644  11.293  18.380  0.00  0.00    +0.000 N 
ATOM     16  H   UNL     1       0.823  11.506  17.403  0.00  0.00    +0.000 HD
ENDBRANCH   1  11
BRANCH   1  17
ATOM     17  N   UNL     1       2.235   4.992  18.396  0.00  0.00    +0.000 N 
ATOM     18  H   UNL     1       2.285   5.610  17.597  0.00  0.00    +0.000 HD
BRANCH  17  19
ATOM     19  C   UNL     1       2.784   3.731  18.213  0.00  0.00    +0.000 A 
ATOM     20  C   UNL     1       2.569   2.656  19.045  0.00  0.00    +0.000 A 
ATOM     21  C   UNL     1       3.324   1.611  18.483  0.00  0.00    +0.000 A 
ATOM     22  N   UNL     1       4.007   2.001  17.407  0.00  0.00    +0.000 NA
ATOM     23  N   UNL     1       3.660   3.301  17.246  0.00  0.00    +0.000 N 
BRANCH  23  24
ATOM     24  C   UNL     1       4.412   4.116  16.306  0.00  0.00    +0.000 C 
BRANCH  24  25
ATOM     25  C   UNL     1       5.423   5.006  16.971  0.00  0.00    +0.000 A 
ATOM     26  C   UNL     1       5.423   6.385  16.761  0.00  0.00    +0.000 A 
ATOM     27  C   UNL     1       6.457   7.150  17.293  0.00  0.00    +0.000 A 
ATOM     28  C   UNL     1       7.466   6.522  18.012  0.00  0.00    +0.000 A 
ATOM     29  C   UNL     1       7.388   5.152  18.187  0.00  0.00    +0.000 A 
ATOM     30  N   UNL     1       6.393   4.380  17.689  0.00  0.00    +0.000 NA
ENDBRANCH  24  25
ENDBRANCH  23  24
ENDBRANCH  17  19
ENDBRANCH   1  17
TORSDOF 5
ENDMDL
MODEL 4
REMARK VINA RESULT:      -8.2      0.964      1.921
REMARK  Name = 
REMARK  5 active torsions:
REMARK  status: ('A' for Active; 'I' for Inactive)
REMARK    1  A    between atoms: C_8  and  S_9
REMARK    2  A    between atoms: S_9  and  N_12
REMARK    3  A    between atoms: N_12  and  C_13
REMARK    4  A    between atoms: N_17  and  C_18
REMARK    5  A    between atoms: C_18  and  C_19
REMARK                            x       y       z     vdW  Elec       q    Type
REMARK                         _______ _______ _______ _____ _____    ______ ____
ROOT
ATOM      1  S   UNL     1       2.869   6.671  18.705  0.00  0.00    +0.000 S 
ATOM      2  O   UNL     1       1.980   5.876  17.890  0.00  0.00    +0.000 OA
ATOM      3  O   UNL     1       4.019   7.332  18.126  0.00  0.00    +0.000 OA
ENDROOT
BRANCH   1  11
ATOM      4  O   UNL     1       0.247  13.000  22.247  0.00  0.00    +0.000 OA
ATOM      5  C   UNL     1       0.126  12.393  21.178  0.00  0.00    +0.000 C 
ATOM      6  C   UNL     1       0.252  13.133  19.865  0.00  0.00    +0.000 C 
ATOM      7  C   UNL     1       0.910  12.431  18.694  0.00  0.00    +0.000 C 
ATOM      8  C   UNL     1       0.170  11.164  18.301  0.00  0.00    +0.000 C 
ATOM      9  C   UNL     1       0.634  10.041  19.185  0.00  0.00    +0.000 A 
ATOM     10  C   UNL     1       1.376   8.987  18.622  0.00  0.00    +0.000 A 
ATOM     11  C   UNL     1       1.867   7.959  19.430  0.00  0.00    +0.000 A 
ATOM     12  C   UNL     1       1.587   7.941  20.797  0.00  0.00    +0.000 A 
ATOM     13  C   UNL     1       0.816   8.964  21.349  0.00  0.00    +0.000 A 
ATOM     14  C   UNL     1       0.376  10.037  20.560  0.00  0.00    +0.000 A 
ATOM     15  N   UNL     1      -0.270  11.087  21.244  0.00  0.00    +0.000 N 
ATOM     16  H   UNL     1      -0.464  10.880  22.219  0.00  0.00    +0.000 HD
ENDBRANCH   1  11
BRANCH   1  17
ATOM     17  N   UNL     1       3.288   5.757  20.014  0.00  0.00    +0.000 N 
ATOM     18  H   UNL     1       3.345   6.341  20.838  0.00  0.00    +0.000 HD
BRANCH  17  19
ATOM     19  C   UNL     1       2.658   4.534  20.189  0.00  0.00    +0.000 A 
ATOM     20  C   UNL     1       1.426   4.366  20.778  0.00  0.00    +0.000 A 
ATOM     21  C   UNL     1       1.201   2.977  20.748  0.00  0.00    +0.000 A 
ATOM     22  N   UNL     1       2.230   2.308  20.228  0.00  0.00    +0.000 NA
ATOM     23  N   UNL     1       3.113   3.275  19.880  0.00  0.00    +0.000 N 
BRANCH  23  24
ATOM     24  C   UNL     1       4.463   2.888  19.503  0.00  0.00    +0.000 C 
BRANCH  24  25
ATOM     25  C   UNL     1       5.020   3.710  18.376  0.00  0.00    +0.000 A 
ATOM     26  C   UNL     1       4.507   3.608  17.082  0.00  0.00    +0.000 A 
ATOM     27  C   UNL     1       5.141   4.290  16.048  0.00  0.00    +0.000 A 
ATOM     28  C   UNL     1       6.271   5.049  16.326  0.00  0.00    +0.000 A 
ATOM     29  C   UNL     1       6.711   5.109  17.637  0.00  0.00    +0.000 A 
ATOM     30  N   UNL     1       6.114   4.464  18.667  0.00  0.00    +0.000 NA
ENDBRANCH  24  25
ENDBRANCH  23  24
ENDBRANCH  17  19
ENDBRANCH   1  17
TORSDOF 5
ENDMDL
MODEL 5
REMARK VINA RESULT:      -8.1      2.536      4.282
REMARK  Name = 
REMARK  5 active torsions:
REMARK  status: ('A' for Active; 'I' for Inactive)
REMARK    1  A    between atoms: C_8  and  S_9
REMARK    2  A    between atoms: S_9  and  N_12
REMARK    3  A    between atoms: N_12  and  C_13
REMARK    4  A    between atoms: N_17  and  C_18
REMARK    5  A    between atoms: C_18  and  C_19
REMARK                            x       y       z     vdW  Elec       q    Type
REMARK                         _______ _______ _______ _____ _____    ______ ____
ROOT
ATOM      1  S   UNL     1       3.664   5.441  18.644  0.00  0.00    +0.000 S 
ATOM      2  O   UNL     1       4.762   5.378  19.581  0.00  0.00    +0.000 OA
ATOM      3  O   UNL     1       2.782   4.310  18.453  0.00  0.00    +0.000 OA
ENDROOT
BRANCH   1  11
ATOM      4  O   UNL     1       0.841  11.948  21.673  0.00  0.00    +0.000 OA
ATOM      5  C   UNL     1       0.884  11.344  20.597  0.00  0.00    +0.000 C 
ATOM      6  C   UNL     1       1.303  12.067  19.336  0.00  0.00    +0.000 C 
ATOM      7  C   UNL     1       2.122  11.317  18.305  0.00  0.00    +0.000 C 
ATOM      8  C   UNL     1       1.388  10.099  17.771  0.00  0.00    +0.000 C 
ATOM      9  C   UNL     1       1.603   8.953  18.719  0.00  0.00    +0.000 A 
ATOM     10  C   UNL     1       2.367   7.849  18.298  0.00  0.00    +0.000 A 
ATOM     11  C   UNL     1       2.629   6.796  19.177  0.00  0.00    +0.000 A 
ATOM     12  C   UNL     1       2.096   6.804  20.466  0.00  0.00    +0.000 A 
ATOM     13  C   UNL     1       1.304   7.878  20.871  0.00  0.00    +0.000 A 
ATOM     14  C   UNL     1       1.091   8.973  20.020  0.00  0.00    +0.000 A 
ATOM     15  N   UNL     1       0.398  10.067  20.579  0.00  0.00    +0.000 N 
ATOM     16  H   UNL     1       0.011   9.878  21.498  0.00  0.00    +0.000 HD
ENDBRANCH   1  11
BRANCH   1  17
ATOM     17  N   UNL     1       4.269   5.990  17.210  0.00  0.00    +0.000 N 
ATOM     18  H   UNL     1       3.591   6.585  16.754  0.00  0.00    +0.000 HD
BRANCH  17  19
ATOM     19  C   UNL     1       5.580   6.444  17.182  0.00  0.00    +0.000 A 
ATOM     20  C   UNL     1       5.964   7.739  17.442  0.00  0.00    +0.000 A 
ATOM     21  C   UNL     1       7.363   7.737  17.287  0.00  0.00    +0.000 A 
ATOM     22  N   UNL     1       7.828   6.546  16.908  0.00  0.00    +0.000 NA
ATOM     23  N   UNL     1       6.726   5.759  16.856  0.00  0.00    +0.000 N 
BRANCH  23  24
ATOM     24  C   UNL     1       6.830   4.448  16.238  0.00  0.00    +0.000 C 
BRANCH  24  25
ATOM     25  C   UNL     1       6.850   4.502  14.737  0.00  0.00    +0.000 A 
ATOM     26  C   UNL     1       6.032   3.671  13.970  0.00  0.00    +0.000 A 
ATOM     27  C   UNL     1       6.181   3.665  12.587  0.00  0.00    +0.000 A 
ATOM     28  C   UNL     1       7.144   4.479  12.003  0.00  0.00    +0.000 A 
ATOM     29  C   UNL     1       7.908   5.283  12.831  0.00  0.00    +0.000 A 
ATOM     30  N   UNL     1       7.784   5.318  14.179  0.00  0.00    +0.000 NA
ENDBRANCH  24  25
ENDBRANCH  23  24
ENDBRANCH  17  19
ENDBRANCH   1  17
TORSDOF 5
ENDMDL
MODEL 6
REMARK VINA RESULT:      -7.9      0.865      1.267
REMARK  Name = 
REMARK  5 active torsions:
REMARK  status: ('A' for Active; 'I' for Inactive)
REMARK    1  A    between atoms: C_8  and  S_9
REMARK    2  A    between atoms: S_9  and  N_12
REMARK    3  A    between atoms: N_12  and  C_13
REMARK    4  A    between atoms: N_17  and  C_18
REMARK    5  A    between atoms: C_18  and  C_19
REMARK                            x       y       z     vdW  Elec       q    Type
REMARK                         _______ _______ _______ _____ _____    ______ ____
ROOT
ATOM      1  S   UNL     1       2.635   6.920  18.382  0.00  0.00    +0.000 S 
ATOM      2  O   UNL     1       1.531   6.043  18.067  0.00  0.00    +0.000 OA
ATOM      3  O   UNL     1       3.501   7.431  17.342  0.00  0.00    +0.000 OA
ENDROOT
BRANCH   1  11
ATOM      4  O   UNL     1      -2.077  12.233  21.390  0.00  0.00    +0.000 OA
ATOM      5  C   UNL     1      -1.126  11.516  21.716  0.00  0.00    +0.000 C 
ATOM      6  C   UNL     1      -1.199  10.682  22.976  0.00  0.00    +0.000 C 
ATOM      7  C   UNL     1      -0.554   9.311  22.979  0.00  0.00    +0.000 C 
ATOM      8  C   UNL     1       0.939   9.383  22.706  0.00  0.00    +0.000 C 
ATOM      9  C   UNL     1       1.154   9.438  21.220  0.00  0.00    +0.000 A 
ATOM     10  C   UNL     1       1.764   8.347  20.575  0.00  0.00    +0.000 A 
ATOM     11  C   UNL     1       1.926   8.348  19.187  0.00  0.00    +0.000 A 
ATOM     12  C   UNL     1       1.528   9.451  18.431  0.00  0.00    +0.000 A 
ATOM     13  C   UNL     1       0.961  10.551  19.075  0.00  0.00    +0.000 A 
ATOM     14  C   UNL     1       0.731  10.533  20.459  0.00  0.00    +0.000 A 
ATOM     15  N   UNL     1       0.022  11.633  20.984  0.00  0.00    +0.000 N 
ATOM     16  H   UNL     1      -0.122  12.383  20.315  0.00  0.00    +0.000 HD
ENDBRANCH   1  11
BRANCH   1  17
ATOM     17  N   UNL     1       3.498   6.210  19.597  0.00  0.00    +0.000 N 
ATOM     18  H   UNL     1       3.561   6.838  20.388  0.00  0.00    +0.000 HD
BRANCH  17  19
ATOM     19  C   UNL     1       3.229   4.884  19.905  0.00  0.00    +0.000 A 
ATOM     20  C   UNL     1       2.482   4.467  20.981  0.00  0.00    +0.000 A 
ATOM     21  C   UNL     1       2.487   3.062  20.899  0.00  0.00    +0.000 A 
ATOM     22  N   UNL     1       3.223   2.618  19.880  0.00  0.00    +0.000 NA
ATOM     23  N   UNL     1       3.665   3.745  19.272  0.00  0.00    +0.000 N 
BRANCH  23  24
ATOM     24  C   UNL     1       4.702   3.634  18.259  0.00  0.00    +0.000 C 
BRANCH  24  25
ATOM     25  C   UNL     1       5.756   4.698  18.375  0.00  0.00    +0.000 A 
ATOM     26  C   UNL     1       6.122   5.477  17.276  0.00  0.00    +0.000 A 
ATOM     27  C   UNL     1       7.193   6.357  17.399  0.00  0.00    +0.000 A 
ATOM     28  C   UNL     1       7.876   6.434  18.606  0.00  0.00    +0.000 A 
ATOM     29  C   UNL     1       7.445   5.636  19.652  0.00  0.00    +0.000 A 
ATOM     30  N   UNL     1       6.403   4.775  19.568  0.00  0.00    +0.000 NA
ENDBRANCH  24  25
ENDBRANCH  23  24
ENDBRANCH  17  19
ENDBRANCH   1  17
TORSDOF 5
ENDMDL
MODEL 7
REMARK VINA RESULT:      -7.9      0.678      1.006
REMARK  Name = 
REMARK  5 active torsions:
REMARK  status: ('A' for Active; 'I' for Inactive)
REMARK    1  A    between atoms: C_8  and  S_9
REMARK    2  A    between atoms: S_9  and  N_12
REMARK    3  A    between atoms: N_12  and  C_13
REMARK    4  A    between atoms: N_17  and  C_18
REMARK    5  A    between atoms: C_18  and  C_19
REMARK                            x       y       z     vdW  Elec       q    Type
REMARK                         _______ _______ _______ _____ _____    ______ ____
ROOT
ATOM      1  S   UNL     1       2.660   6.742  18.624  0.00  0.00    +0.000 S 
ATOM      2  O   UNL     1       1.619   6.112  17.844  0.00  0.00    +0.000 OA
ATOM      3  O   UNL     1       3.909   7.143  18.013  0.00  0.00    +0.000 OA
ENDROOT
BRANCH   1  11
ATOM      4  O   UNL     1      -2.086  12.266  21.162  0.00  0.00    +0.000 OA
ATOM      5  C   UNL     1      -1.143  11.571  21.555  0.00  0.00    +0.000 C 
ATOM      6  C   UNL     1      -1.243  10.829  22.869  0.00  0.00    +0.000 C 
ATOM      7  C   UNL     1      -0.603   9.459  22.981  0.00  0.00    +0.000 C 
ATOM      8  C   UNL     1       0.895   9.509  22.730  0.00  0.00    +0.000 C 
ATOM      9  C   UNL     1       1.137   9.457  21.248  0.00  0.00    +0.000 A 
ATOM     10  C   UNL     1       1.755   8.322  20.693  0.00  0.00    +0.000 A 
ATOM     11  C   UNL     1       1.942   8.225  19.313  0.00  0.00    +0.000 A 
ATOM     12  C   UNL     1       1.562   9.272  18.473  0.00  0.00    +0.000 A 
ATOM     13  C   UNL     1       0.987  10.416  19.027  0.00  0.00    +0.000 A 
ATOM     14  C   UNL     1       0.732  10.497  20.404  0.00  0.00    +0.000 A 
ATOM     15  N   UNL     1       0.018  11.633  20.838  0.00  0.00    +0.000 N 
ATOM     16  H   UNL     1      -0.110  12.334  20.114  0.00  0.00    +0.000 HD
ENDBRANCH   1  11
BRANCH   1  17
ATOM     17  N   UNL     1       2.910   5.805  19.960  0.00  0.00    +0.000 N 
ATOM     18  H   UNL     1       2.596   6.294  20.788  0.00  0.00    +0.000 HD
BRANCH  17  19
ATOM     19  C   UNL     1       2.570   4.462  19.893  0.00  0.00    +0.000 A 
ATOM     20  C   UNL     1       1.333   3.951  20.211  0.00  0.00    +0.000 A 
ATOM     21  C   UNL     1       1.454   2.564  20.008  0.00  0.00    +0.000 A 
ATOM     22  N   UNL     1       2.686   2.213  19.638  0.00  0.00    +0.000 NA
ATOM     23  N   UNL     1       3.358   3.386  19.561  0.00  0.00    +0.000 N 
BRANCH  23  24
ATOM     24  C   UNL     1       4.805   3.357  19.420  0.00  0.00    +0.000 C 
BRANCH  24  25
ATOM     25  C   UNL     1       5.282   3.933  18.118  0.00  0.00    +0.000 A 
ATOM     26  C   UNL     1       6.444   4.704  18.049  0.00  0.00    +0.000 A 
ATOM     27  C   UNL     1       6.773   5.325  16.848  0.00  0.00    +0.000 A 
ATOM     28  C   UNL     1       5.936   5.169  15.750  0.00  0.00    +0.000 A 
ATOM     29  C   UNL     1       4.809   4.380  15.895  0.00  0.00    +0.000 A 
ATOM     30  N   UNL     1       4.463   3.757  17.046  0.00  0.00    +0.000 NA
ENDBRANCH  24  25
ENDBRANCH  23  24
ENDBRANCH  17  19
ENDBRANCH   1  17
TORSDOF 5
ENDMDL
MODEL 8
REMARK VINA RESULT:      -7.9      1.381      2.370
REMARK  Name = 
REMARK  5 active torsions:
REMARK  status: ('A' for Active; 'I' for Inactive)
REMARK    1  A    between atoms: C_8  and  S_9
REMARK    2  A    between atoms: S_9  and  N_12
REMARK    3  A    between atoms: N_12  and  C_13
REMARK    4  A    between atoms: N_17  and  C_18
REMARK    5  A    between atoms: C_18  and  C_19
REMARK                            x       y       z     vdW  Elec       q    Type
REMARK                         _______ _______ _______ _____ _____    ______ ____
ROOT
ATOM      1  S   UNL     1       2.798   6.795  18.587  0.00  0.00    +0.000 S 
ATOM      2  O   UNL     1       1.905   5.841  17.972  0.00  0.00    +0.000 OA
ATOM      3  O   UNL     1       3.769   7.523  17.799  0.00  0.00    +0.000 OA
ENDROOT
BRANCH   1  11
ATOM      4  O   UNL     1       0.005  12.924  22.343  0.00  0.00    +0.000 OA
ATOM      5  C   UNL     1      -0.110  12.343  21.260  0.00  0.00    +0.000 C 
ATOM      6  C   UNL     1      -0.031  13.123  19.966  0.00  0.00    +0.000 C 
ATOM      7  C   UNL     1       0.635  12.478  18.767  0.00  0.00    +0.000 C 
ATOM      8  C   UNL     1      -0.066  11.196  18.349  0.00  0.00    +0.000 C 
ATOM      9  C   UNL     1       0.452  10.067  19.194  0.00  0.00    +0.000 A 
ATOM     10  C   UNL     1       1.222   9.056  18.591  0.00  0.00    +0.000 A 
ATOM     11  C   UNL     1       1.761   8.025  19.363  0.00  0.00    +0.000 A 
ATOM     12  C   UNL     1       1.503   7.959  20.732  0.00  0.00    +0.000 A 
ATOM     13  C   UNL     1       0.705   8.938  21.324  0.00  0.00    +0.000 A 
ATOM     14  C   UNL     1       0.214  10.016  20.571  0.00  0.00    +0.000 A 
ATOM     15  N   UNL     1      -0.458  11.022  21.295  0.00  0.00    +0.000 N 
ATOM     16  H   UNL     1      -0.630  10.781  22.266  0.00  0.00    +0.000 HD
ENDBRANCH   1  11
BRANCH   1  17
ATOM     17  N   UNL     1       3.503   6.048  19.880  0.00  0.00    +0.000 N 
ATOM     18  H   UNL     1       3.033   6.320  20.733  0.00  0.00    +0.000 HD
BRANCH  17  19
ATOM     19  C   UNL     1       3.813   4.700  19.770  0.00  0.00    +0.000 A 
ATOM     20  C   UNL     1       3.098   3.682  20.357  0.00  0.00    +0.000 A 
ATOM     21  C   UNL     1       3.777   2.507  19.987  0.00  0.00    +0.000 A 
ATOM     22  N   UNL     1       4.868   2.759  19.264  0.00  0.00    +0.000 NA
ATOM     23  N   UNL     1       4.874   4.107  19.130  0.00  0.00    +0.000 N 
BRANCH  23  24
ATOM     24  C   UNL     1       6.064   4.752  18.600  0.00  0.00    +0.000 C 
BRANCH  24  25
ATOM     25  C   UNL     1       6.111   4.766  17.099  0.00  0.00    +0.000 A 
ATOM     26  C   UNL     1       4.974   4.496  16.336  0.00  0.00    +0.000 A 
ATOM     27  C   UNL     1       5.096   4.390  14.954  0.00  0.00    +0.000 A 
ATOM     28  C   UNL     1       6.346   4.548  14.368  0.00  0.00    +0.000 A 
ATOM     29  C   UNL     1       7.423   4.825  15.191  0.00  0.00    +0.000 A 
ATOM     30  N   UNL     1       7.337   4.941  16.538  0.00  0.00    +0.000 NA
ENDBRANCH  24  25
ENDBRANCH  23  24
ENDBRANCH  17  19
ENDBRANCH   1  17
TORSDOF 5
ENDMDL
MODEL 9
REMARK VINA RESULT:      -7.9      1.621      3.319
REMARK  Name = 
REMARK  5 active torsions:
REMARK  status: ('A' for Active; 'I' for Inactive)
REMARK    1  A    between atoms: C_8  and  S_9
REMARK    2  A    between atoms: S_9  and  N_12
REMARK    3  A    between atoms: N_12  and  C_13
REMARK    4  A    between atoms: N_17  and  C_18
REMARK    5  A    between atoms: C_18  and  C_19
REMARK                            x       y       z     vdW  Elec       q    Type
REMARK                         _______ _______ _______ _____ _____    ______ ____
ROOT
ATOM      1  S   UNL     1       2.263   6.158  19.440  0.00  0.00    +0.000 S 
ATOM      2  O   UNL     1       1.607   5.771  20.669  0.00  0.00    +0.000 OA
ATOM      3  O   UNL     1       1.930   5.519  18.185  0.00  0.00    +0.000 OA
ENDROOT
BRANCH   1  11
ATOM      4  O   UNL     1      -0.863  13.015  17.803  0.00  0.00    +0.000 OA
ATOM      5  C   UNL     1      -0.345  12.411  18.747  0.00  0.00    +0.000 C 
ATOM      6  C   UNL     1      -1.030  12.377  20.095  0.00  0.00    +0.000 C 
ATOM      7  C   UNL     1      -0.937  11.114  20.928  0.00  0.00    +0.000 C 
ATOM      8  C   UNL     1       0.501  10.761  21.268  0.00  0.00    +0.000 C 
ATOM      9  C   UNL     1       1.095  10.000  20.117  0.00  0.00    +0.000 A 
ATOM     10  C   UNL     1       1.422   8.643  20.289  0.00  0.00    +0.000 A 
ATOM     11  C   UNL     1       1.925   7.898  19.219  0.00  0.00    +0.000 A 
ATOM     12  C   UNL     1       2.152   8.502  17.983  0.00  0.00    +0.000 A 
ATOM     13  C   UNL     1       1.867   9.858  17.823  0.00  0.00    +0.000 A 
ATOM     14  C   UNL     1       1.298  10.600  18.869  0.00  0.00    +0.000 A 
ATOM     15  N   UNL     1       0.916  11.921  18.557  0.00  0.00    +0.000 N 
ATOM     16  H   UNL     1       1.225  12.229  17.640  0.00  0.00    +0.000 HD
ENDBRANCH   1  11
BRANCH   1  17
ATOM     17  N   UNL     1       3.889   6.137  19.721  0.00  0.00    +0.000 N 
ATOM     18  H   UNL     1       4.076   5.739  20.632  0.00  0.00    +0.000 HD
BRANCH  17  19
ATOM     19  C   UNL     1       4.726   5.714  18.699  0.00  0.00    +0.000 A 
ATOM     20  C   UNL     1       5.005   6.442  17.565  0.00  0.00    +0.000 A 
ATOM     21  C   UNL     1       5.875   5.625  16.820  0.00  0.00    +0.000 A 
ATOM     22  N   UNL     1       6.093   4.448  17.408  0.00  0.00    +0.000 NA
ATOM     23  N   UNL     1       5.390   4.519  18.564  0.00  0.00    +0.000 N 
BRANCH  23  24
ATOM     24  C   UNL     1       5.204   3.307  19.345  0.00  0.00    +0.000 C 
BRANCH  24  25
ATOM     25  C   UNL     1       3.804   2.768  19.273  0.00  0.00    +0.000 A 
ATOM     26  C   UNL     1       3.243   2.367  18.059  0.00  0.00    +0.000 A 
ATOM     27  C   UNL     1       1.902   1.999  18.022  0.00  0.00    +0.000 A 
ATOM     28  C   UNL     1       1.152   2.046  19.191  0.00  0.00    +0.000 A 
ATOM     29  C   UNL     1       1.783   2.443  20.356  0.00  0.00    +0.000 A 
ATOM     30  N   UNL     1       3.087   2.801  20.428  0.00  0.00    +0.000 NA
ENDBRANCH  24  25
ENDBRANCH  23  24
ENDBRANCH  17  19
ENDBRANCH   1  17
TORSDOF 5
ENDMDL
