MODEL 1
REMARK VINA RESULT:      -8.5      0.000      0.000
REMARK  Name = 
REMARK  5 active torsions:
REMARK  status: ('A' for Active; 'I' for Inactive)
REMARK    1  A    between atoms: C_6  and  C_7
REMARK    2  A    between atoms: C_7  and  C_8
REMARK    3  A    between atoms: C_11  and  C_12
REMARK    4  A    between atoms: N_14  and  C_15
REMARK    5  A    between atoms: C_15  and  C_16
REMARK                            x       y       z     vdW  Elec       q    Type
REMARK                         _______ _______ _______ _____ _____    ______ ____
ROOT
ATOM      1  C   UNL     1       8.301   9.266  17.953  0.00  0.00    +0.000 A 
ATOM      2  N   UNL     1       8.866   8.631  18.988  0.00  0.00    +0.000 NA
ATOM      3  O   UNL     1       8.424   7.315  18.834  0.00  0.00    +0.000 OA
ATOM      4  C   UNL     1       7.624   7.284  17.721  0.00  0.00    +0.000 A 
ATOM      5  N   UNL     1       7.536   8.467  17.136  0.00  0.00    +0.000 NA
ENDROOT
BRANCH   4   6
ATOM      6  C   UNL     1       6.913   6.065  17.258  0.00  0.00    +0.000 A 
ATOM      7  C   UNL     1       5.555   5.940  17.065  0.00  0.00    +0.000 A 
ATOM      8  N   UNL     1       5.404   4.650  16.642  0.00  0.00    +0.000 N 
ATOM      9  N   UNL     1       6.591   4.016  16.577  0.00  0.00    +0.000 NA
ATOM     10  N   UNL     1       7.527   4.879  16.955  0.00  0.00    +0.000 NA
BRANCH   8  11
ATOM     11  C   UNL     1       4.197   4.007  16.158  0.00  0.00    +0.000 C 
BRANCH  11  12
ATOM     12  C   UNL     1       3.303   3.558  17.284  0.00  0.00    +0.000 A 
ATOM     13  C   UNL     1       2.251   4.373  17.733  0.00  0.00    +0.000 A 
ATOM     14  C   UNL     1       1.433   3.955  18.785  0.00  0.00    +0.000 A 
ATOM     15  C   UNL     1       1.653   2.724  19.396  0.00  0.00    +0.000 A 
ATOM     16  C   UNL     1       2.693   1.905  18.958  0.00  0.00    +0.000 A 
ATOM     17  C   UNL     1       3.515   2.321  17.910  0.00  0.00    +0.000 A 
ENDBRANCH  11  12
ENDBRANCH   8  11
ENDBRANCH   4   6
BRANCH   1  18
ATOM     18  C   UNL     1       8.325  10.745  17.819  0.00  0.00    +0.000 C 
BRANCH  18  24
ATOM     19  F   UNL     1      10.261  12.453  21.969  0.00  0.00    +0.000 F 
ATOM     20  C   UNL     1      10.430  12.089  20.692  0.00  0.00    +0.000 A 
ATOM     21  C   UNL     1      11.706  12.104  20.141  0.00  0.00    +0.000 A 
ATOM     22  C   UNL     1      11.883  11.717  18.814  0.00  0.00    +0.000 A 
ATOM     23  C   UNL     1      10.783  11.309  18.052  0.00  0.00    +0.000 A 
ATOM     24  C   UNL     1       9.494  11.275  18.611  0.00  0.00    +0.000 A 
ATOM     25  C   UNL     1       9.328  11.683  19.943  0.00  0.00    +0.000 A 
ENDBRANCH  18  24
ENDBRANCH   1  18
TORSDOF 5
ENDMDL
MODEL 2
REMARK VINA RESULT:      -8.3      5.475      8.298
REMARK  Name = 
REMARK  5 active torsions:
REMARK  status: ('A' for Active; 'I' for Inactive)
REMARK    1  A    between atoms: C_6  and  C_7
REMARK    2  A    between atoms: C_7  and  C_8
REMARK    3  A    between atoms: C_11  and  C_12
REMARK    4  A    between atoms: N_14  and  C_15
REMARK    5  A    between atoms: C_15  and  C_16
REMARK                            x       y       z     vdW  Elec       q    Type
REMARK                         _______ _______ _______ _____ _____    ______ ____
ROOT
ATOM      1  C   UNL     1       3.830   5.975  18.818  0.00  0.00    +0.000 A 
ATOM      2  N   UNL     1       4.876   5.818  19.640  0.00  0.00    +0.000 NA
ATOM      3  O   UNL     1       5.929   5.537  18.768  0.00  0.00    +0.000 OA
ATOM      4  C   UNL     1       5.415   5.543  17.498  0.00  0.00    +0.000 A 
ATOM      5  N   UNL     1       4.123   5.828  17.482  0.00  0.00    +0.000 NA
ENDROOT
BRANCH   4   6
ATOM      6  C   UNL     1       6.218   5.228  16.288  0.00  0.00    +0.000 A 
ATOM      7  C   UNL     1       5.794   5.332  14.981  0.00  0.00    +0.000 A 
ATOM      8  N   UNL     1       6.880   4.935  14.255  0.00  0.00    +0.000 N 
ATOM      9  N   UNL     1       7.911   4.607  15.058  0.00  0.00    +0.000 NA
ATOM     10  N   UNL     1       7.512   4.783  16.313  0.00  0.00    +0.000 NA
BRANCH   8  11
ATOM     11  C   UNL     1       7.052   4.976  12.814  0.00  0.00    +0.000 C 
BRANCH  11  12
ATOM     12  C   UNL     1       6.646   3.682  12.159  0.00  0.00    +0.000 A 
ATOM     13  C   UNL     1       7.616   2.784  11.683  0.00  0.00    +0.000 A 
ATOM     14  C   UNL     1       7.232   1.590  11.067  0.00  0.00    +0.000 A 
ATOM     15  C   UNL     1       5.883   1.280  10.922  0.00  0.00    +0.000 A 
ATOM     16  C   UNL     1       4.911   2.162  11.392  0.00  0.00    +0.000 A 
ATOM     17  C   UNL     1       5.290   3.357  12.005  0.00  0.00    +0.000 A 
ENDBRANCH  11  12
ENDBRANCH   8  11
ENDBRANCH   4   6
BRANCH   1  18
ATOM     18  C   UNL     1       2.436   6.088  19.317  0.00  0.00    +0.000 C 
BRANCH  18  24
ATOM     19  F   UNL     1       1.070   2.462  22.295  0.00  0.00    +0.000 F 
ATOM     20  C   UNL     1       1.200   2.931  21.047  0.00  0.00    +0.000 A 
ATOM     21  C   UNL     1       0.739   2.171  19.980  0.00  0.00    +0.000 A 
ATOM     22  C   UNL     1       0.868   2.663  18.683  0.00  0.00    +0.000 A 
ATOM     23  C   UNL     1       1.448   3.917  18.465  0.00  0.00    +0.000 A 
ATOM     24  C   UNL     1       1.899   4.697  19.544  0.00  0.00    +0.000 A 
ATOM     25  C   UNL     1       1.778   4.181  20.843  0.00  0.00    +0.000 A 
ENDBRANCH  18  24
ENDBRANCH   1  18
TORSDOF 5
ENDMDL
MODEL 3
REMARK VINA RESULT:      -8.2      2.727      9.091
REMARK  Name = 
REMARK  5 active torsions:
REMARK  status: ('A' for Active; 'I' for Inactive)
REMARK    1  A    between atoms: C_6  and  C_7
REMARK    2  A    between atoms: C_7  and  C_8
REMARK    3  A    between atoms: C_11  and  C_12
REMARK    4  A    between atoms: N_14  and  C_15
REMARK    5  A    between atoms: C_15  and  C_16
REMARK                            x       y       z     vdW  Elec       q    Type
REMARK                         _______ _______ _______ _____ _____    ______ ____
ROOT
ATOM      1  C   UNL     1       5.391   4.336  16.856  0.00  0.00    +0.000 A 
ATOM      2  N   UNL     1       6.432   3.990  16.087  0.00  0.00    +0.000 NA
ATOM      3  O   UNL     1       7.367   4.995  16.343  0.00  0.00    +0.000 OA
ATOM      4  C   UNL     1       6.795   5.861  17.239  0.00  0.00    +0.000 A 
ATOM      5  N   UNL     1       5.579   5.480  17.596  0.00  0.00    +0.000 NA
ENDROOT
BRANCH   4   6
ATOM      6  C   UNL     1       7.459   7.100  17.719  0.00  0.00    +0.000 A 
ATOM      7  C   UNL     1       7.277   8.368  17.212  0.00  0.00    +0.000 A 
ATOM      8  N   UNL     1       8.096   9.146  17.978  0.00  0.00    +0.000 N 
ATOM      9  N   UNL     1       8.744   8.408  18.901  0.00  0.00    +0.000 NA
ATOM     10  N   UNL     1       8.359   7.147  18.748  0.00  0.00    +0.000 NA
BRANCH   8  11
ATOM     11  C   UNL     1       8.205  10.593  17.981  0.00  0.00    +0.000 C 
BRANCH  11  12
ATOM     12  C   UNL     1       9.488  11.063  18.616  0.00  0.00    +0.000 A 
ATOM     13  C   UNL     1       9.563  11.286  20.001  0.00  0.00    +0.000 A 
ATOM     14  C   UNL     1      10.753  11.731  20.581  0.00  0.00    +0.000 A 
ATOM     15  C   UNL     1      11.876  11.955  19.790  0.00  0.00    +0.000 A 
ATOM     16  C   UNL     1      11.815  11.735  18.415  0.00  0.00    +0.000 A 
ATOM     17  C   UNL     1      10.627  11.294  17.831  0.00  0.00    +0.000 A 
ENDBRANCH  11  12
ENDBRANCH   8  11
ENDBRANCH   4   6
BRANCH   1  18
ATOM     18  C   UNL     1       4.071   3.664  16.756  0.00  0.00    +0.000 C 
BRANCH  18  24
ATOM     19  F   UNL     1       3.525   2.236  21.399  0.00  0.00    +0.000 F 
ATOM     20  C   UNL     1       3.161   3.053  20.402  0.00  0.00    +0.000 A 
ATOM     21  C   UNL     1       2.229   4.054  20.645  0.00  0.00    +0.000 A 
ATOM     22  C   UNL     1       1.856   4.908  19.609  0.00  0.00    +0.000 A 
ATOM     23  C   UNL     1       2.428   4.761  18.341  0.00  0.00    +0.000 A 
ATOM     24  C   UNL     1       3.385   3.762  18.096  0.00  0.00    +0.000 A 
ATOM     25  C   UNL     1       3.738   2.898  19.144  0.00  0.00    +0.000 A 
ENDBRANCH  18  24
ENDBRANCH   1  18
TORSDOF 5
ENDMDL
MODEL 4
REMARK VINA RESULT:      -8.1      5.787      7.802
REMARK  Name = 
REMARK  5 active torsions:
REMARK  status: ('A' for Active; 'I' for Inactive)
REMARK    1  A    between atoms: C_6  and  C_7
REMARK    2  A    between atoms: C_7  and  C_8
REMARK    3  A    between atoms: C_11  and  C_12
REMARK    4  A    between atoms: N_14  and  C_15
REMARK    5  A    between atoms: C_15  and  C_16
REMARK                            x       y       z     vdW  Elec       q    Type
REMARK                         _______ _______ _______ _____ _____    ______ ____
ROOT
ATOM      1  C   UNL     1       6.853   5.017  14.570  0.00  0.00    +0.000 A 
ATOM      2  N   UNL     1       7.609   4.634  15.607  0.00  0.00    +0.000 NA
ATOM      3  O   UNL     1       6.854   5.025  16.715  0.00  0.00    +0.000 OA
ATOM      4  C   UNL     1       5.714   5.618  16.238  0.00  0.00    +0.000 A 
ATOM      5  N   UNL     1       5.664   5.617  14.916  0.00  0.00    +0.000 NA
ENDROOT
BRANCH   4   6
ATOM      6  C   UNL     1       4.677   6.221  17.115  0.00  0.00    +0.000 A 
ATOM      7  C   UNL     1       3.942   5.562  18.077  0.00  0.00    +0.000 A 
ATOM      8  N   UNL     1       3.139   6.536  18.597  0.00  0.00    +0.000 N 
ATOM      9  N   UNL     1       3.361   7.722  17.997  0.00  0.00    +0.000 NA
ATOM     10  N   UNL     1       4.306   7.537  17.082  0.00  0.00    +0.000 NA
BRANCH   8  11
ATOM     11  C   UNL     1       2.252   6.443  19.741  0.00  0.00    +0.000 C 
BRANCH  11  12
ATOM     12  C   UNL     1       1.955   5.014  20.112  0.00  0.00    +0.000 A 
ATOM     13  C   UNL     1       2.437   4.470  21.315  0.00  0.00    +0.000 A 
ATOM     14  C   UNL     1       2.166   3.141  21.648  0.00  0.00    +0.000 A 
ATOM     15  C   UNL     1       1.413   2.344  20.790  0.00  0.00    +0.000 A 
ATOM     16  C   UNL     1       0.928   2.873  19.595  0.00  0.00    +0.000 A 
ATOM     17  C   UNL     1       1.200   4.199  19.257  0.00  0.00    +0.000 A 
ENDBRANCH  11  12
ENDBRANCH   8  11
ENDBRANCH   4   6
BRANCH   1  18
ATOM     18  C   UNL     1       7.349   4.989  13.171  0.00  0.00    +0.000 C 
BRANCH  18  24
ATOM     19  F   UNL     1       3.428   2.735  11.317  0.00  0.00    +0.000 F 
ATOM     20  C   UNL     1       4.752   2.745  11.526  0.00  0.00    +0.000 A 
ATOM     21  C   UNL     1       5.534   1.728  10.994  0.00  0.00    +0.000 A 
ATOM     22  C   UNL     1       6.912   1.743  11.205  0.00  0.00    +0.000 A 
ATOM     23  C   UNL     1       7.495   2.781  11.938  0.00  0.00    +0.000 A 
ATOM     24  C   UNL     1       6.709   3.822  12.462  0.00  0.00    +0.000 A 
ATOM     25  C   UNL     1       5.321   3.784  12.257  0.00  0.00    +0.000 A 
ENDBRANCH  18  24
ENDBRANCH   1  18
TORSDOF 5
ENDMDL
MODEL 5
REMARK VINA RESULT:      -8.1      5.732      8.380
REMARK  Name = 
REMARK  5 active torsions:
REMARK  status: ('A' for Active; 'I' for Inactive)
REMARK    1  A    between atoms: C_6  and  C_7
REMARK    2  A    between atoms: C_7  and  C_8
REMARK    3  A    between atoms: C_11  and  C_12
REMARK    4  A    between atoms: N_14  and  C_15
REMARK    5  A    between atoms: C_15  and  C_16
REMARK                            x       y       z     vdW  Elec       q    Type
REMARK                         _______ _______ _______ _____ _____    ______ ____
ROOT
ATOM      1  C   UNL     1       4.356   5.359  18.609  0.00  0.00    +0.000 A 
ATOM      2  N   UNL     1       4.859   4.147  18.876  0.00  0.00    +0.000 NA
ATOM      3  O   UNL     1       5.763   3.939  17.832  0.00  0.00    +0.000 OA
ATOM      4  C   UNL     1       5.712   5.047  17.026  0.00  0.00    +0.000 A 
ATOM      5  N   UNL     1       4.868   5.957  17.481  0.00  0.00    +0.000 NA
ENDROOT
BRANCH   4   6
ATOM      6  C   UNL     1       6.493   5.181  15.769  0.00  0.00    +0.000 A 
ATOM      7  C   UNL     1       6.193   4.595  14.559  0.00  0.00    +0.000 A 
ATOM      8  N   UNL     1       7.196   5.018  13.735  0.00  0.00    +0.000 N 
ATOM      9  N   UNL     1       8.062   5.815  14.392  0.00  0.00    +0.000 NA
ATOM     10  N   UNL     1       7.638   5.920  15.646  0.00  0.00    +0.000 NA
BRANCH   8  11
ATOM     11  C   UNL     1       7.316   4.820  12.303  0.00  0.00    +0.000 C 
BRANCH  11  12
ATOM     12  C   UNL     1       6.715   3.512  11.860  0.00  0.00    +0.000 A 
ATOM     13  C   UNL     1       7.537   2.438  11.479  0.00  0.00    +0.000 A 
ATOM     14  C   UNL     1       6.974   1.231  11.060  0.00  0.00    +0.000 A 
ATOM     15  C   UNL     1       5.591   1.082  11.018  0.00  0.00    +0.000 A 
ATOM     16  C   UNL     1       4.764   2.139  11.395  0.00  0.00    +0.000 A 
ATOM     17  C   UNL     1       5.324   3.348  11.811  0.00  0.00    +0.000 A 
ENDBRANCH  11  12
ENDBRANCH   8  11
ENDBRANCH   4   6
BRANCH   1  18
ATOM     18  C   UNL     1       3.194   5.918  19.346  0.00  0.00    +0.000 C 
BRANCH  18  24
ATOM     19  F   UNL     1       0.143   2.178  18.577  0.00  0.00    +0.000 F 
ATOM     20  C   UNL     1       0.871   2.904  19.435  0.00  0.00    +0.000 A 
ATOM     21  C   UNL     1       0.928   2.527  20.771  0.00  0.00    +0.000 A 
ATOM     22  C   UNL     1       1.691   3.279  21.662  0.00  0.00    +0.000 A 
ATOM     23  C   UNL     1       2.399   4.396  21.207  0.00  0.00    +0.000 A 
ATOM     24  C   UNL     1       2.357   4.770  19.854  0.00  0.00    +0.000 A 
ATOM     25  C   UNL     1       1.571   4.014  18.971  0.00  0.00    +0.000 A 
ENDBRANCH  18  24
ENDBRANCH   1  18
TORSDOF 5
ENDMDL
MODEL 6
REMARK VINA RESULT:      -8.1      1.509      1.752
REMARK  Name = 
REMARK  5 active torsions:
REMARK  status: ('A' for Active; 'I' for Inactive)
REMARK    1  A    between atoms: C_6  and  C_7
REMARK    2  A    between atoms: C_7  and  C_8
REMARK    3  A    between atoms: C_11  and  C_12
REMARK    4  A    between atoms: N_14  and  C_15
REMARK    5  A    between atoms: C_15  and  C_16
REMARK                            x       y       z     vdW  Elec       q    Type
REMARK                         _______ _______ _______ _____ _____    ______ ____
ROOT
ATOM      1  C   UNL     1       8.374   9.556  18.161  0.00  0.00    +0.000 A 
ATOM      2  N   UNL     1       8.961   8.835  19.125  0.00  0.00    +0.000 NA
ATOM      3  O   UNL     1       8.554   7.530  18.841  0.00  0.00    +0.000 OA
ATOM      4  C   UNL     1       7.750   7.590  17.732  0.00  0.00    +0.000 A 
ATOM      5  N   UNL     1       7.627   8.823  17.269  0.00  0.00    +0.000 NA
ENDROOT
BRANCH   4   6
ATOM      6  C   UNL     1       7.070   6.404  17.149  0.00  0.00    +0.000 A 
ATOM      7  C   UNL     1       6.004   5.727  17.699  0.00  0.00    +0.000 A 
ATOM      8  N   UNL     1       5.750   4.733  16.797  0.00  0.00    +0.000 N 
ATOM      9  N   UNL     1       6.604   4.791  15.756  0.00  0.00    +0.000 NA
ATOM     10  N   UNL     1       7.421   5.816  15.964  0.00  0.00    +0.000 NA
BRANCH   8  11
ATOM     11  C   UNL     1       4.643   3.795  16.793  0.00  0.00    +0.000 C 
BRANCH  11  12
ATOM     12  C   UNL     1       3.777   3.935  18.017  0.00  0.00    +0.000 A 
ATOM     13  C   UNL     1       2.806   4.948  18.096  0.00  0.00    +0.000 A 
ATOM     14  C   UNL     1       2.013   5.078  19.238  0.00  0.00    +0.000 A 
ATOM     15  C   UNL     1       2.179   4.204  20.309  0.00  0.00    +0.000 A 
ATOM     16  C   UNL     1       3.138   3.194  20.242  0.00  0.00    +0.000 A 
ATOM     17  C   UNL     1       3.934   3.062  19.103  0.00  0.00    +0.000 A 
ENDBRANCH  11  12
ENDBRANCH   8  11
ENDBRANCH   4   6
BRANCH   1  18
ATOM     18  C   UNL     1       8.357  11.041  18.177  0.00  0.00    +0.000 C 
BRANCH  18  24
ATOM     19  F   UNL     1      12.333  13.465  16.692  0.00  0.00    +0.000 F 
ATOM     20  C   UNL     1      11.709  12.766  17.649  0.00  0.00    +0.000 A 
ATOM     21  C   UNL     1      12.330  12.588  18.879  0.00  0.00    +0.000 A 
ATOM     22  C   UNL     1      11.678  11.865  19.876  0.00  0.00    +0.000 A 
ATOM     23  C   UNL     1      10.405  11.336  19.638  0.00  0.00    +0.000 A 
ATOM     24  C   UNL     1       9.767  11.530  18.401  0.00  0.00    +0.000 A 
ATOM     25  C   UNL     1      10.443  12.244  17.400  0.00  0.00    +0.000 A 
ENDBRANCH  18  24
ENDBRANCH   1  18
TORSDOF 5
ENDMDL
MODEL 7
REMARK VINA RESULT:      -7.9      5.582      7.881
REMARK  Name = 
REMARK  5 active torsions:
REMARK  status: ('A' for Active; 'I' for Inactive)
REMARK    1  A    between atoms: C_6  and  C_7
REMARK    2  A    between atoms: C_7  and  C_8
REMARK    3  A    between atoms: C_11  and  C_12
REMARK    4  A    between atoms: N_14  and  C_15
REMARK    5  A    between atoms: C_15  and  C_16
REMARK                            x       y       z     vdW  Elec       q    Type
REMARK                         _______ _______ _______ _____ _____    ______ ____
ROOT
ATOM      1  C   UNL     1       3.486   4.592  19.727  0.00  0.00    +0.000 A 
ATOM      2  N   UNL     1       2.536   4.120  20.545  0.00  0.00    +0.000 NA
ATOM      3  O   UNL     1       1.721   5.233  20.763  0.00  0.00    +0.000 OA
ATOM      4  C   UNL     1       2.265   6.277  20.059  0.00  0.00    +0.000 A 
ATOM      5  N   UNL     1       3.347   5.918  19.390  0.00  0.00    +0.000 NA
ENDROOT
BRANCH   4   6
ATOM      6  C   UNL     1       1.713   7.656  20.084  0.00  0.00    +0.000 A 
ATOM      7  C   UNL     1       1.689   8.540  19.028  0.00  0.00    +0.000 A 
ATOM      8  N   UNL     1       1.090   9.652  19.548  0.00  0.00    +0.000 N 
ATOM      9  N   UNL     1       0.763   9.468  20.843  0.00  0.00    +0.000 NA
ATOM     10  N   UNL     1       1.144   8.242  21.182  0.00  0.00    +0.000 NA
BRANCH   8  11
ATOM     11  C   UNL     1       0.677  10.853  18.847  0.00  0.00    +0.000 C 
BRANCH  11  12
ATOM     12  C   UNL     1      -0.787  10.828  18.495  0.00  0.00    +0.000 A 
ATOM     13  C   UNL     1      -1.283   9.912  17.553  0.00  0.00    +0.000 A 
ATOM     14  C   UNL     1      -2.641   9.901  17.225  0.00  0.00    +0.000 A 
ATOM     15  C   UNL     1      -3.514  10.799  17.831  0.00  0.00    +0.000 A 
ATOM     16  C   UNL     1      -3.034  11.712  18.769  0.00  0.00    +0.000 A 
ATOM     17  C   UNL     1      -1.678  11.729  19.097  0.00  0.00    +0.000 A 
ENDBRANCH  11  12
ENDBRANCH   8  11
ENDBRANCH   4   6
BRANCH   1  18
ATOM     18  C   UNL     1       4.700   3.809  19.384  0.00  0.00    +0.000 C 
BRANCH  18  24
ATOM     19  F   UNL     1       8.447   6.888  18.781  0.00  0.00    +0.000 F 
ATOM     20  C   UNL     1       7.465   6.160  18.236  0.00  0.00    +0.000 A 
ATOM     21  C   UNL     1       7.335   6.115  16.853  0.00  0.00    +0.000 A 
ATOM     22  C   UNL     1       6.317   5.351  16.286  0.00  0.00    +0.000 A 
ATOM     23  C   UNL     1       5.443   4.631  17.107  0.00  0.00    +0.000 A 
ATOM     24  C   UNL     1       5.582   4.660  18.505  0.00  0.00    +0.000 A 
ATOM     25  C   UNL     1       6.601   5.447  19.063  0.00  0.00    +0.000 A 
ENDBRANCH  18  24
ENDBRANCH   1  18
TORSDOF 5
ENDMDL
MODEL 8
REMARK VINA RESULT:      -7.9      3.210      9.457
REMARK  Name = 
REMARK  5 active torsions:
REMARK  status: ('A' for Active; 'I' for Inactive)
REMARK    1  A    between atoms: C_6  and  C_7
REMARK    2  A    between atoms: C_7  and  C_8
REMARK    3  A    between atoms: C_11  and  C_12
REMARK    4  A    between atoms: N_14  and  C_15
REMARK    5  A    between atoms: C_15  and  C_16
REMARK                            x       y       z     vdW  Elec       q    Type
REMARK                         _______ _______ _______ _____ _____    ______ ____
ROOT
ATOM      1  C   UNL     1       6.833   6.743  17.137  0.00  0.00    +0.000 A 
ATOM      2  N   UNL     1       7.554   6.116  18.076  0.00  0.00    +0.000 NA
ATOM      3  O   UNL     1       8.287   7.151  18.659  0.00  0.00    +0.000 OA
ATOM      4  C   UNL     1       7.944   8.307  18.008  0.00  0.00    +0.000 A 
ATOM      5  N   UNL     1       7.033   8.102  17.071  0.00  0.00    +0.000 NA
ENDROOT
BRANCH   4   6
ATOM      6  C   UNL     1       8.558   9.627  18.305  0.00  0.00    +0.000 A 
ATOM      7  C   UNL     1       9.467   9.894  19.304  0.00  0.00    +0.000 A 
ATOM      8  N   UNL     1       9.721  11.228  19.165  0.00  0.00    +0.000 N 
ATOM      9  N   UNL     1       9.016  11.755  18.145  0.00  0.00    +0.000 NA
ATOM     10  N   UNL     1       8.295  10.777  17.609  0.00  0.00    +0.000 NA
BRANCH   8  11
ATOM     11  C   UNL     1      10.712  12.025  19.865  0.00  0.00    +0.000 C 
BRANCH  11  12
ATOM     12  C   UNL     1      10.096  12.865  20.954  0.00  0.00    +0.000 A 
ATOM     13  C   UNL     1      10.403  14.231  21.065  0.00  0.00    +0.000 A 
ATOM     14  C   UNL     1       9.836  15.002  22.083  0.00  0.00    +0.000 A 
ATOM     15  C   UNL     1       8.960  14.421  22.995  0.00  0.00    +0.000 A 
ATOM     16  C   UNL     1       8.646  13.066  22.893  0.00  0.00    +0.000 A 
ATOM     17  C   UNL     1       9.213  12.292  21.880  0.00  0.00    +0.000 A 
ENDBRANCH  11  12
ENDBRANCH   8  11
ENDBRANCH   4   6
BRANCH   1  18
ATOM     18  C   UNL     1       6.046   6.006  16.115  0.00  0.00    +0.000 C 
BRANCH  18  24
ATOM     19  F   UNL     1       2.909   2.463  17.339  0.00  0.00    +0.000 F 
ATOM     20  C   UNL     1       3.240   3.761  17.369  0.00  0.00    +0.000 A 
ATOM     21  C   UNL     1       2.443   4.652  18.077  0.00  0.00    +0.000 A 
ATOM     22  C   UNL     1       2.791   6.001  18.114  0.00  0.00    +0.000 A 
ATOM     23  C   UNL     1       3.940   6.445  17.451  0.00  0.00    +0.000 A 
ATOM     24  C   UNL     1       4.758   5.544  16.750  0.00  0.00    +0.000 A 
ATOM     25  C   UNL     1       4.386   4.191  16.706  0.00  0.00    +0.000 A 
ENDBRANCH  18  24
ENDBRANCH   1  18
TORSDOF 5
ENDMDL
MODEL 9
REMARK VINA RESULT:      -7.9      6.064      8.523
REMARK  Name = 
REMARK  5 active torsions:
REMARK  status: ('A' for Active; 'I' for Inactive)
REMARK    1  A    between atoms: C_6  and  C_7
REMARK    2  A    between atoms: C_7  and  C_8
REMARK    3  A    between atoms: C_11  and  C_12
REMARK    4  A    between atoms: N_14  and  C_15
REMARK    5  A    between atoms: C_15  and  C_16
REMARK                            x       y       z     vdW  Elec       q    Type
REMARK                         _______ _______ _______ _____ _____    ______ ____
ROOT
ATOM      1  C   UNL     1       1.096   9.663  19.550  0.00  0.00    +0.000 A 
ATOM      2  N   UNL     1       0.604   9.489  20.784  0.00  0.00    +0.000 NA
ATOM      3  O   UNL     1       1.027   8.202  21.119  0.00  0.00    +0.000 OA
ATOM      4  C   UNL     1       1.730   7.715  20.047  0.00  0.00    +0.000 A 
ATOM      5  N   UNL     1       1.812   8.594  19.062  0.00  0.00    +0.000 NA
ENDROOT
BRANCH   4   6
ATOM      6  C   UNL     1       2.297   6.343  19.995  0.00  0.00    +0.000 A 
ATOM      7  C   UNL     1       3.438   5.961  19.324  0.00  0.00    +0.000 A 
ATOM      8  N   UNL     1       3.533   4.623  19.580  0.00  0.00    +0.000 N 
ATOM      9  N   UNL     1       2.517   4.203  20.360  0.00  0.00    +0.000 NA
ATOM     10  N   UNL     1       1.750   5.256  20.620  0.00  0.00    +0.000 NA
BRANCH   8  11
ATOM     11  C   UNL     1       4.620   3.725  19.238  0.00  0.00    +0.000 C 
BRANCH  11  12
ATOM     12  C   UNL     1       5.304   4.127  17.958  0.00  0.00    +0.000 A 
ATOM     13  C   UNL     1       6.572   4.731  17.982  0.00  0.00    +0.000 A 
ATOM     14  C   UNL     1       7.197   5.111  16.792  0.00  0.00    +0.000 A 
ATOM     15  C   UNL     1       6.567   4.890  15.570  0.00  0.00    +0.000 A 
ATOM     16  C   UNL     1       5.310   4.289  15.533  0.00  0.00    +0.000 A 
ATOM     17  C   UNL     1       4.681   3.912  16.720  0.00  0.00    +0.000 A 
ENDBRANCH  11  12
ENDBRANCH   8  11
ENDBRANCH   4   6
BRANCH   1  18
ATOM     18  C   UNL     1       0.722  10.822  18.701  0.00  0.00    +0.000 C 
BRANCH  18  24
ATOM     19  F   UNL     1      -3.815  12.520  19.348  0.00  0.00    +0.000 F 
ATOM     20  C   UNL     1      -2.994  11.644  18.753  0.00  0.00    +0.000 A 
ATOM     21  C   UNL     1      -3.507  10.754  17.818  0.00  0.00    +0.000 A 
ATOM     22  C   UNL     1      -2.650   9.849  17.194  0.00  0.00    +0.000 A 
ATOM     23  C   UNL     1      -1.287   9.848  17.505  0.00  0.00    +0.000 A 
ATOM     24  C   UNL     1      -0.762  10.759  18.437  0.00  0.00    +0.000 A 
ATOM     25  C   UNL     1      -1.638  11.654  19.070  0.00  0.00    +0.000 A 
ENDBRANCH  18  24
ENDBRANCH   1  18
TORSDOF 5
ENDMDL
