MODEL 1
REMARK VINA RESULT:      -8.6      0.000      0.000
REMARK  Name = 
REMARK  7 active torsions:
REMARK  status: ('A' for Active; 'I' for Inactive)
REMARK    1  A    between atoms: C_1  and  C_2
REMARK    2  A    between atoms: C_2  and  S_3
REMARK    3  A    between atoms: C_2  and  C_16
REMARK    4  A    between atoms: S_3  and  C_4
REMARK    5  A    between atoms: N_18  and  C_19
REMARK    6  A    between atoms: C_19  and  C_20
REMARK    7  A    between atoms: C_20  and  C_21
REMARK                            x       y       z     vdW  Elec       q    Type
REMARK                         _______ _______ _______ _____ _____    ______ ____
ROOT
ATOM      1  C   UNL     1       6.997   5.604  19.502  0.00  0.00    +0.000 C 
ATOM      2  C   UNL     1       7.245   5.887  18.020  0.00  0.00    +0.000 C 
ENDROOT
BRANCH   2   3
ATOM      3  C   UNL     1       7.532   7.362  17.681  0.00  0.00    +0.000 C 
ATOM      4  O   UNL     1       7.105   7.901  16.660  0.00  0.00    +0.000 OA
ATOM      5  N   UNL     1       8.364   8.037  18.554  0.00  0.00    +0.000 N 
ATOM      6  H   UNL     1       8.899   7.528  19.245  0.00  0.00    +0.000 HD
BRANCH   5   7
ATOM      7  C   UNL     1       8.708   9.421  18.292  0.00  0.00    +0.000 C 
BRANCH   7   8
ATOM      8  C   UNL     1       9.144  10.182  19.544  0.00  0.00    +0.000 C 
BRANCH   8   9
ATOM      9  C   UNL     1      10.203  11.194  19.187  0.00  0.00    +0.000 A 
ATOM     10  C   UNL     1      10.442  11.525  17.847  0.00  0.00    +0.000 A 
ATOM     11  C   UNL     1      11.501  12.366  17.506  0.00  0.00    +0.000 A 
ATOM     12  C   UNL     1      12.329  12.884  18.500  0.00  0.00    +0.000 A 
ATOM     13  C   UNL     1      12.089  12.574  19.838  0.00  0.00    +0.000 A 
ATOM     14  C   UNL     1      11.030  11.734  20.182  0.00  0.00    +0.000 A 
ENDBRANCH   8   9
ENDBRANCH   7   8
ENDBRANCH   5   7
ENDBRANCH   2   3
BRANCH   2  15
ATOM     15  S   UNL     1       5.864   5.253  16.962  0.00  0.00    +0.000 S 
BRANCH  15  16
ATOM     16  C   UNL     1       4.507   6.038  17.694  0.00  0.00    +0.000 A 
ATOM     17  N   UNL     1       4.116   7.257  17.386  0.00  0.00    +0.000 NA
ATOM     18  N   UNL     1       3.040   7.518  18.221  0.00  0.00    +0.000 N 
ATOM     19  C   UNL     1       2.798   6.485  19.032  0.00  0.00    +0.000 A 
ATOM     20  N   UNL     1       2.003   6.143  20.001  0.00  0.00    +0.000 NA
ATOM     21  C   UNL     1       2.436   4.865  20.316  0.00  0.00    +0.000 A 
ATOM     22  C   UNL     1       1.935   3.994  21.296  0.00  0.00    +0.000 A 
ATOM     23  C   UNL     1       2.525   2.736  21.446  0.00  0.00    +0.000 A 
ATOM     24  C   UNL     1       3.596   2.349  20.636  0.00  0.00    +0.000 A 
ATOM     25  C   UNL     1       4.120   3.198  19.650  0.00  0.00    +0.000 A 
ATOM     26  C   UNL     1       3.517   4.453  19.514  0.00  0.00    +0.000 A 
ATOM     27  N   UNL     1       3.712   5.536  18.707  0.00  0.00    +0.000 N 
ATOM     28  H   UNL     1       2.546   8.406  18.230  0.00  0.00    +0.000 HD
ENDBRANCH  15  16
ENDBRANCH   2  15
TORSDOF 6
ENDMDL
MODEL 2
REMARK VINA RESULT:      -8.4      0.776      1.040
REMARK  Name = 
REMARK  7 active torsions:
REMARK  status: ('A' for Active; 'I' for Inactive)
REMARK    1  A    between atoms: C_1  and  C_2
REMARK    2  A    between atoms: C_2  and  S_3
REMARK    3  A    between atoms: C_2  and  C_16
REMARK    4  A    between atoms: S_3  and  C_4
REMARK    5  A    between atoms: N_18  and  C_19
REMARK    6  A    between atoms: C_19  and  C_20
REMARK    7  A    between atoms: C_20  and  C_21
REMARK                            x       y       z     vdW  Elec       q    Type
REMARK                         _______ _______ _______ _____ _____    ______ ____
ROOT
ATOM      1  C   UNL     1       7.307   5.514  19.714  0.00  0.00    +0.000 C 
ATOM      2  C   UNL     1       7.571   5.613  18.212  0.00  0.00    +0.000 C 
ENDROOT
BRANCH   2   3
ATOM      3  C   UNL     1       7.770   7.045  17.682  0.00  0.00    +0.000 C 
ATOM      4  O   UNL     1       7.587   7.345  16.502  0.00  0.00    +0.000 OA
ATOM      5  N   UNL     1       8.242   7.972  18.592  0.00  0.00    +0.000 N 
ATOM      6  H   UNL     1       8.617   7.668  19.481  0.00  0.00    +0.000 HD
BRANCH   5   7
ATOM      7  C   UNL     1       8.484   9.337  18.167  0.00  0.00    +0.000 C 
BRANCH   7   8
ATOM      8  C   UNL     1       9.324  10.139  19.161  0.00  0.00    +0.000 C 
BRANCH   8   9
ATOM      9  C   UNL     1       9.873  11.372  18.491  0.00  0.00    +0.000 A 
ATOM     10  C   UNL     1      11.223  11.437  18.123  0.00  0.00    +0.000 A 
ATOM     11  C   UNL     1      11.761  12.620  17.616  0.00  0.00    +0.000 A 
ATOM     12  C   UNL     1      10.954  13.747  17.469  0.00  0.00    +0.000 A 
ATOM     13  C   UNL     1       9.605  13.687  17.817  0.00  0.00    +0.000 A 
ATOM     14  C   UNL     1       9.065  12.506  18.324  0.00  0.00    +0.000 A 
ENDBRANCH   8   9
ENDBRANCH   7   8
ENDBRANCH   5   7
ENDBRANCH   2   3
BRANCH   2  15
ATOM     15  S   UNL     1       6.260   4.751  17.229  0.00  0.00    +0.000 S 
BRANCH  15  16
ATOM     16  C   UNL     1       4.854   5.635  17.717  0.00  0.00    +0.000 A 
ATOM     17  N   UNL     1       4.541   6.825  17.250  0.00  0.00    +0.000 NA
ATOM     18  N   UNL     1       3.387   7.192  17.924  0.00  0.00    +0.000 N 
ATOM     19  C   UNL     1       3.019   6.250  18.797  0.00  0.00    +0.000 A 
ATOM     20  N   UNL     1       2.107   6.024  19.695  0.00  0.00    +0.000 NA
ATOM     21  C   UNL     1       2.459   4.775  20.180  0.00  0.00    +0.000 A 
ATOM     22  C   UNL     1       1.821   4.017  21.174  0.00  0.00    +0.000 A 
ATOM     23  C   UNL     1       2.348   2.768  21.513  0.00  0.00    +0.000 A 
ATOM     24  C   UNL     1       3.491   2.278  20.876  0.00  0.00    +0.000 A 
ATOM     25  C   UNL     1       4.152   3.013  19.880  0.00  0.00    +0.000 A 
ATOM     26  C   UNL     1       3.611   4.261  19.554  0.00  0.00    +0.000 A 
ATOM     27  N   UNL     1       3.932   5.254  18.674  0.00  0.00    +0.000 N 
ATOM     28  H   UNL     1       2.925   8.086  17.790  0.00  0.00    +0.000 HD
ENDBRANCH  15  16
ENDBRANCH   2  15
TORSDOF 6
ENDMDL
MODEL 3
REMARK VINA RESULT:      -8.2      1.581      2.192
REMARK  Name = 
REMARK  7 active torsions:
REMARK  status: ('A' for Active; 'I' for Inactive)
REMARK    1  A    between atoms: C_1  and  C_2
REMARK    2  A    between atoms: C_2  and  S_3
REMARK    3  A    between atoms: C_2  and  C_16
REMARK    4  A    between atoms: S_3  and  C_4
REMARK    5  A    between atoms: N_18  and  C_19
REMARK    6  A    between atoms: C_19  and  C_20
REMARK    7  A    between atoms: C_20  and  C_21
REMARK                            x       y       z     vdW  Elec       q    Type
REMARK                         _______ _______ _______ _____ _____    ______ ____
ROOT
ATOM      1  C   UNL     1       7.566   5.680  19.593  0.00  0.00    +0.000 C 
ATOM      2  C   UNL     1       7.193   6.157  18.189  0.00  0.00    +0.000 C 
ENDROOT
BRANCH   2   3
ATOM      3  C   UNL     1       7.858   7.476  17.755  0.00  0.00    +0.000 C 
ATOM      4  O   UNL     1       8.146   7.716  16.582  0.00  0.00    +0.000 OA
ATOM      5  N   UNL     1       8.189   8.355  18.769  0.00  0.00    +0.000 N 
ATOM      6  H   UNL     1       8.173   8.050  19.733  0.00  0.00    +0.000 HD
BRANCH   5   7
ATOM      7  C   UNL     1       8.845   9.608  18.447  0.00  0.00    +0.000 C 
BRANCH   7   8
ATOM      8  C   UNL     1       9.522  10.261  19.652  0.00  0.00    +0.000 C 
BRANCH   8   9
ATOM      9  C   UNL     1      10.444  11.360  19.189  0.00  0.00    +0.000 A 
ATOM     10  C   UNL     1      10.554  11.664  17.825  0.00  0.00    +0.000 A 
ATOM     11  C   UNL     1      11.495  12.594  17.384  0.00  0.00    +0.000 A 
ATOM     12  C   UNL     1      12.332  13.229  18.300  0.00  0.00    +0.000 A 
ATOM     13  C   UNL     1      12.218  12.946  19.660  0.00  0.00    +0.000 A 
ATOM     14  C   UNL     1      11.278  12.017  20.104  0.00  0.00    +0.000 A 
ENDBRANCH   8   9
ENDBRANCH   7   8
ENDBRANCH   5   7
ENDBRANCH   2   3
BRANCH   2  15
ATOM     15  S   UNL     1       5.358   6.272  17.972  0.00  0.00    +0.000 S 
BRANCH  15  16
ATOM     16  C   UNL     1       4.974   4.632  17.575  0.00  0.00    +0.000 A 
ATOM     17  N   UNL     1       5.547   3.964  16.596  0.00  0.00    +0.000 NA
ATOM     18  N   UNL     1       4.929   2.724  16.587  0.00  0.00    +0.000 N 
ATOM     19  C   UNL     1       3.986   2.649  17.530  0.00  0.00    +0.000 A 
ATOM     20  N   UNL     1       3.089   1.823  17.980  0.00  0.00    +0.000 NA
ATOM     21  C   UNL     1       2.493   2.547  19.000  0.00  0.00    +0.000 A 
ATOM     22  C   UNL     1       1.449   2.151  19.852  0.00  0.00    +0.000 A 
ATOM     23  C   UNL     1       0.995   3.046  20.824  0.00  0.00    +0.000 A 
ATOM     24  C   UNL     1       1.567   4.314  20.950  0.00  0.00    +0.000 A 
ATOM     25  C   UNL     1       2.609   4.740  20.112  0.00  0.00    +0.000 A 
ATOM     26  C   UNL     1       3.050   3.831  19.145  0.00  0.00    +0.000 A 
ATOM     27  N   UNL     1       4.005   3.846  18.170  0.00  0.00    +0.000 N 
ATOM     28  H   UNL     1       5.148   1.998  15.911  0.00  0.00    +0.000 HD
ENDBRANCH  15  16
ENDBRANCH   2  15
TORSDOF 6
ENDMDL
MODEL 4
REMARK VINA RESULT:      -8.0      4.214      8.127
REMARK  Name = 
REMARK  7 active torsions:
REMARK  status: ('A' for Active; 'I' for Inactive)
REMARK    1  A    between atoms: C_1  and  C_2
REMARK    2  A    between atoms: C_2  and  S_3
REMARK    3  A    between atoms: C_2  and  C_16
REMARK    4  A    between atoms: S_3  and  C_4
REMARK    5  A    between atoms: N_18  and  C_19
REMARK    6  A    between atoms: C_19  and  C_20
REMARK    7  A    between atoms: C_20  and  C_21
REMARK                            x       y       z     vdW  Elec       q    Type
REMARK                         _______ _______ _______ _____ _____    ______ ____
ROOT
ATOM      1  C   UNL     1       6.453   6.957  17.090  0.00  0.00    +0.000 C 
ATOM      2  C   UNL     1       5.334   6.425  17.985  0.00  0.00    +0.000 C 
ENDROOT
BRANCH   2   3
ATOM      3  C   UNL     1       5.241   4.890  18.064  0.00  0.00    +0.000 C 
ATOM      4  O   UNL     1       6.042   4.212  18.708  0.00  0.00    +0.000 OA
ATOM      5  N   UNL     1       4.248   4.299  17.306  0.00  0.00    +0.000 N 
ATOM      6  H   UNL     1       3.759   4.833  16.600  0.00  0.00    +0.000 HD
BRANCH   5   7
ATOM      7  C   UNL     1       4.112   2.855  17.302  0.00  0.00    +0.000 C 
BRANCH   7   8
ATOM      8  C   UNL     1       2.670   2.385  17.498  0.00  0.00    +0.000 C 
BRANCH   8   9
ATOM      9  C   UNL     1       2.296   2.475  18.956  0.00  0.00    +0.000 A 
ATOM     10  C   UNL     1       0.991   2.818  19.332  0.00  0.00    +0.000 A 
ATOM     11  C   UNL     1       0.674   3.022  20.675  0.00  0.00    +0.000 A 
ATOM     12  C   UNL     1       1.657   2.885  21.653  0.00  0.00    +0.000 A 
ATOM     13  C   UNL     1       2.955   2.528  21.290  0.00  0.00    +0.000 A 
ATOM     14  C   UNL     1       3.275   2.322  19.948  0.00  0.00    +0.000 A 
ENDBRANCH   8   9
ENDBRANCH   7   8
ENDBRANCH   5   7
ENDBRANCH   2   3
BRANCH   2  15
ATOM     15  S   UNL     1       3.689   7.135  17.518  0.00  0.00    +0.000 S 
BRANCH  15  16
ATOM     16  C   UNL     1       2.848   7.027  19.027  0.00  0.00    +0.000 A 
ATOM     17  N   UNL     1       2.909   5.980  19.823  0.00  0.00    +0.000 NA
ATOM     18  N   UNL     1       2.067   6.278  20.884  0.00  0.00    +0.000 N 
ATOM     19  C   UNL     1       1.493   7.473  20.723  0.00  0.00    +0.000 A 
ATOM     20  N   UNL     1       0.636   8.254  21.309  0.00  0.00    +0.000 NA
ATOM     21  C   UNL     1       0.579   9.342  20.452  0.00  0.00    +0.000 A 
ATOM     22  C   UNL     1      -0.188  10.510  20.581  0.00  0.00    +0.000 A 
ATOM     23  C   UNL     1      -0.092  11.493  19.592  0.00  0.00    +0.000 A 
ATOM     24  C   UNL     1       0.752  11.319  18.491  0.00  0.00    +0.000 A 
ATOM     25  C   UNL     1       1.528  10.161  18.334  0.00  0.00    +0.000 A 
ATOM     26  C   UNL     1       1.419   9.188  19.333  0.00  0.00    +0.000 A 
ATOM     27  N   UNL     1       1.981   7.965  19.556  0.00  0.00    +0.000 N 
ATOM     28  H   UNL     1       1.889   5.634  21.649  0.00  0.00    +0.000 HD
ENDBRANCH  15  16
ENDBRANCH   2  15
TORSDOF 6
ENDMDL
MODEL 5
REMARK VINA RESULT:      -8.0      1.468      2.846
REMARK  Name = 
REMARK  7 active torsions:
REMARK  status: ('A' for Active; 'I' for Inactive)
REMARK    1  A    between atoms: C_1  and  C_2
REMARK    2  A    between atoms: C_2  and  S_3
REMARK    3  A    between atoms: C_2  and  C_16
REMARK    4  A    between atoms: S_3  and  C_4
REMARK    5  A    between atoms: N_18  and  C_19
REMARK    6  A    between atoms: C_19  and  C_20
REMARK    7  A    between atoms: C_20  and  C_21
REMARK                            x       y       z     vdW  Elec       q    Type
REMARK                         _______ _______ _______ _____ _____    ______ ____
ROOT
ATOM      1  C   UNL     1       7.510   5.434  19.708  0.00  0.00    +0.000 C 
ATOM      2  C   UNL     1       7.609   5.644  18.197  0.00  0.00    +0.000 C 
ENDROOT
BRANCH   2   3
ATOM      3  C   UNL     1       7.615   7.117  17.747  0.00  0.00    +0.000 C 
ATOM      4  O   UNL     1       7.032   7.501  16.733  0.00  0.00    +0.000 OA
ATOM      5  N   UNL     1       8.379   7.983  18.506  0.00  0.00    +0.000 N 
ATOM      6  H   UNL     1       9.040   7.622  19.181  0.00  0.00    +0.000 HD
BRANCH   5   7
ATOM      7  C   UNL     1       8.462   9.382  18.133  0.00  0.00    +0.000 C 
BRANCH   7   8
ATOM      8  C   UNL     1       9.147  10.248  19.190  0.00  0.00    +0.000 C 
BRANCH   8   9
ATOM      9  C   UNL     1       9.613  11.541  18.569  0.00  0.00    +0.000 A 
ATOM     10  C   UNL     1      10.704  11.551  17.689  0.00  0.00    +0.000 A 
ATOM     11  C   UNL     1      11.213  12.759  17.211  0.00  0.00    +0.000 A 
ATOM     12  C   UNL     1      10.636  13.965  17.606  0.00  0.00    +0.000 A 
ATOM     13  C   UNL     1       9.541  13.964  18.468  0.00  0.00    +0.000 A 
ATOM     14  C   UNL     1       9.029  12.758  18.947  0.00  0.00    +0.000 A 
ENDBRANCH   8   9
ENDBRANCH   7   8
ENDBRANCH   5   7
ENDBRANCH   2   3
BRANCH   2  15
ATOM     15  S   UNL     1       6.293   4.711  17.289  0.00  0.00    +0.000 S 
BRANCH  15  16
ATOM     16  C   UNL     1       5.157   4.428  18.564  0.00  0.00    +0.000 A 
ATOM     17  N   UNL     1       5.143   3.337  19.300  0.00  0.00    +0.000 NA
ATOM     18  N   UNL     1       4.065   3.489  20.159  0.00  0.00    +0.000 N 
ATOM     19  C   UNL     1       3.427   4.640  19.933  0.00  0.00    +0.000 A 
ATOM     20  N   UNL     1       2.392   5.305  20.350  0.00  0.00    +0.000 NA
ATOM     21  C   UNL     1       2.419   6.442  19.558  0.00  0.00    +0.000 A 
ATOM     22  C   UNL     1       1.534   7.531  19.570  0.00  0.00    +0.000 A 
ATOM     23  C   UNL     1       1.749   8.585  18.678  0.00  0.00    +0.000 A 
ATOM     24  C   UNL     1       2.825   8.559  17.787  0.00  0.00    +0.000 A 
ATOM     25  C   UNL     1       3.725   7.483  17.750  0.00  0.00    +0.000 A 
ATOM     26  C   UNL     1       3.495   6.437  18.649  0.00  0.00    +0.000 A 
ATOM     27  N   UNL     1       4.109   5.251  18.931  0.00  0.00    +0.000 N 
ATOM     28  H   UNL     1       3.786   2.781  20.832  0.00  0.00    +0.000 HD
ENDBRANCH  15  16
ENDBRANCH   2  15
TORSDOF 6
ENDMDL
MODEL 6
REMARK VINA RESULT:      -8.0      1.790      2.455
REMARK  Name = 
REMARK  7 active torsions:
REMARK  status: ('A' for Active; 'I' for Inactive)
REMARK    1  A    between atoms: C_1  and  C_2
REMARK    2  A    between atoms: C_2  and  S_3
REMARK    3  A    between atoms: C_2  and  C_16
REMARK    4  A    between atoms: S_3  and  C_4
REMARK    5  A    between atoms: N_18  and  C_19
REMARK    6  A    between atoms: C_19  and  C_20
REMARK    7  A    between atoms: C_20  and  C_21
REMARK                            x       y       z     vdW  Elec       q    Type
REMARK                         _______ _______ _______ _____ _____    ______ ____
ROOT
ATOM      1  C   UNL     1       8.498   5.680  19.640  0.00  0.00    +0.000 C 
ATOM      2  C   UNL     1       7.442   5.889  18.553  0.00  0.00    +0.000 C 
ENDROOT
BRANCH   2   3
ATOM      3  C   UNL     1       7.557   7.219  17.786  0.00  0.00    +0.000 C 
ATOM      4  O   UNL     1       7.051   7.388  16.676  0.00  0.00    +0.000 OA
ATOM      5  N   UNL     1       8.329   8.201  18.378  0.00  0.00    +0.000 N 
ATOM      6  H   UNL     1       8.932   7.973  19.158  0.00  0.00    +0.000 HD
BRANCH   5   7
ATOM      7  C   UNL     1       8.512   9.473  17.707  0.00  0.00    +0.000 C 
BRANCH   7   8
ATOM      8  C   UNL     1       8.459  10.669  18.658  0.00  0.00    +0.000 C 
BRANCH   8   9
ATOM      9  C   UNL     1       9.843  11.237  18.844  0.00  0.00    +0.000 A 
ATOM     10  C   UNL     1      10.345  11.475  20.130  0.00  0.00    +0.000 A 
ATOM     11  C   UNL     1      11.573  12.113  20.302  0.00  0.00    +0.000 A 
ATOM     12  C   UNL     1      12.311  12.518  19.191  0.00  0.00    +0.000 A 
ATOM     13  C   UNL     1      11.828  12.272  17.907  0.00  0.00    +0.000 A 
ATOM     14  C   UNL     1      10.600  11.633  17.732  0.00  0.00    +0.000 A 
ENDBRANCH   8   9
ENDBRANCH   7   8
ENDBRANCH   5   7
ENDBRANCH   2   3
BRANCH   2  15
ATOM     15  S   UNL     1       5.727   5.688  19.219  0.00  0.00    +0.000 S 
BRANCH  15  16
ATOM     16  C   UNL     1       5.098   4.490  18.140  0.00  0.00    +0.000 A 
ATOM     17  N   UNL     1       5.697   4.123  17.027  0.00  0.00    +0.000 NA
ATOM     18  N   UNL     1       4.851   3.191  16.446  0.00  0.00    +0.000 N 
ATOM     19  C   UNL     1       3.752   3.013  17.182  0.00  0.00    +0.000 A 
ATOM     20  N   UNL     1       2.636   2.347  17.164  0.00  0.00    +0.000 NA
ATOM     21  C   UNL     1       2.018   2.754  18.335  0.00  0.00    +0.000 A 
ATOM     22  C   UNL     1       0.773   2.353  18.846  0.00  0.00    +0.000 A 
ATOM     23  C   UNL     1       0.336   2.892  20.058  0.00  0.00    +0.000 A 
ATOM     24  C   UNL     1       1.121   3.816  20.753  0.00  0.00    +0.000 A 
ATOM     25  C   UNL     1       2.367   4.238  20.267  0.00  0.00    +0.000 A 
ATOM     26  C   UNL     1       2.789   3.688  19.052  0.00  0.00    +0.000 A 
ATOM     27  N   UNL     1       3.894   3.822  18.262  0.00  0.00    +0.000 N 
ATOM     28  H   UNL     1       5.041   2.750  15.551  0.00  0.00    +0.000 HD
ENDBRANCH  15  16
ENDBRANCH   2  15
TORSDOF 6
ENDMDL
MODEL 7
REMARK VINA RESULT:      -8.0      3.871      6.413
REMARK  Name = 
REMARK  7 active torsions:
REMARK  status: ('A' for Active; 'I' for Inactive)
REMARK    1  A    between atoms: C_1  and  C_2
REMARK    2  A    between atoms: C_2  and  S_3
REMARK    3  A    between atoms: C_2  and  C_16
REMARK    4  A    between atoms: S_3  and  C_4
REMARK    5  A    between atoms: N_18  and  C_19
REMARK    6  A    between atoms: C_19  and  C_20
REMARK    7  A    between atoms: C_20  and  C_21
REMARK                            x       y       z     vdW  Elec       q    Type
REMARK                         _______ _______ _______ _____ _____    ______ ____
ROOT
ATOM      1  C   UNL     1       0.982   4.285  20.057  0.00  0.00    +0.000 C 
ATOM      2  C   UNL     1       1.985   5.139  19.280  0.00  0.00    +0.000 C 
ENDROOT
BRANCH   2   3
ATOM      3  C   UNL     1       3.182   4.364  18.699  0.00  0.00    +0.000 C 
ATOM      4  O   UNL     1       3.936   3.690  19.401  0.00  0.00    +0.000 OA
ATOM      5  N   UNL     1       3.416   4.525  17.346  0.00  0.00    +0.000 N 
ATOM      6  H   UNL     1       2.948   5.260  16.833  0.00  0.00    +0.000 HD
BRANCH   5   7
ATOM      7  C   UNL     1       4.541   3.852  16.727  0.00  0.00    +0.000 C 
BRANCH   7   8
ATOM      8  C   UNL     1       5.423   4.789  15.901  0.00  0.00    +0.000 C 
BRANCH   8   9
ATOM      9  C   UNL     1       6.408   5.491  16.801  0.00  0.00    +0.000 A 
ATOM     10  C   UNL     1       7.057   4.789  17.825  0.00  0.00    +0.000 A 
ATOM     11  C   UNL     1       7.873   5.462  18.735  0.00  0.00    +0.000 A 
ATOM     12  C   UNL     1       8.048   6.841  18.628  0.00  0.00    +0.000 A 
ATOM     13  C   UNL     1       7.420   7.545  17.603  0.00  0.00    +0.000 A 
ATOM     14  C   UNL     1       6.604   6.875  16.691  0.00  0.00    +0.000 A 
ENDBRANCH   8   9
ENDBRANCH   7   8
ENDBRANCH   5   7
ENDBRANCH   2   3
BRANCH   2  15
ATOM     15  S   UNL     1       2.586   6.572  20.285  0.00  0.00    +0.000 S 
BRANCH  15  16
ATOM     16  C   UNL     1       2.034   7.900  19.320  0.00  0.00    +0.000 A 
ATOM     17  N   UNL     1       2.363   8.070  18.057  0.00  0.00    +0.000 NA
ATOM     18  N   UNL     1       1.759   9.259  17.679  0.00  0.00    +0.000 N 
ATOM     19  C   UNL     1       1.094   9.807  18.699  0.00  0.00    +0.000 A 
ATOM     20  N   UNL     1       0.395  10.867  18.979  0.00  0.00    +0.000 NA
ATOM     21  C   UNL     1       0.069  10.673  20.312  0.00  0.00    +0.000 A 
ATOM     22  C   UNL     1      -0.689  11.505  21.151  0.00  0.00    +0.000 A 
ATOM     23  C   UNL     1      -0.901  11.114  22.476  0.00  0.00    +0.000 A 
ATOM     24  C   UNL     1      -0.369   9.917  22.961  0.00  0.00    +0.000 A 
ATOM     25  C   UNL     1       0.395   9.066  22.148  0.00  0.00    +0.000 A 
ATOM     26  C   UNL     1       0.597   9.473  20.825  0.00  0.00    +0.000 A 
ATOM     27  N   UNL     1       1.251   8.957  19.744  0.00  0.00    +0.000 N 
ATOM     28  H   UNL     1       1.862   9.665  16.754  0.00  0.00    +0.000 HD
ENDBRANCH  15  16
ENDBRANCH   2  15
TORSDOF 6
ENDMDL
MODEL 8
REMARK VINA RESULT:      -8.0      5.374      7.105
REMARK  Name = 
REMARK  7 active torsions:
REMARK  status: ('A' for Active; 'I' for Inactive)
REMARK    1  A    between atoms: C_1  and  C_2
REMARK    2  A    between atoms: C_2  and  S_3
REMARK    3  A    between atoms: C_2  and  C_16
REMARK    4  A    between atoms: S_3  and  C_4
REMARK    5  A    between atoms: N_18  and  C_19
REMARK    6  A    between atoms: C_19  and  C_20
REMARK    7  A    between atoms: C_20  and  C_21
REMARK                            x       y       z     vdW  Elec       q    Type
REMARK                         _______ _______ _______ _____ _____    ______ ____
ROOT
ATOM      1  C   UNL     1       1.021   3.429  19.236  0.00  0.00    +0.000 C 
ATOM      2  C   UNL     1       2.047   4.416  18.679  0.00  0.00    +0.000 C 
ENDROOT
BRANCH   2   3
ATOM      3  C   UNL     1       3.288   3.768  18.037  0.00  0.00    +0.000 C 
ATOM      4  O   UNL     1       3.666   2.633  18.329  0.00  0.00    +0.000 OA
ATOM      5  N   UNL     1       4.008   4.561  17.164  0.00  0.00    +0.000 N 
ATOM      6  H   UNL     1       3.835   5.556  17.118  0.00  0.00    +0.000 HD
BRANCH   5   7
ATOM      7  C   UNL     1       5.207   4.035  16.540  0.00  0.00    +0.000 C 
BRANCH   7   8
ATOM      8  C   UNL     1       6.094   5.121  15.928  0.00  0.00    +0.000 C 
BRANCH   8   9
ATOM      9  C   UNL     1       6.382   4.794  14.485  0.00  0.00    +0.000 A 
ATOM     10  C   UNL     1       5.655   3.794  13.826  0.00  0.00    +0.000 A 
ATOM     11  C   UNL     1       6.001   3.405  12.532  0.00  0.00    +0.000 A 
ATOM     12  C   UNL     1       7.076   4.013  11.885  0.00  0.00    +0.000 A 
ATOM     13  C   UNL     1       7.795   5.021  12.526  0.00  0.00    +0.000 A 
ATOM     14  C   UNL     1       7.450   5.412  13.820  0.00  0.00    +0.000 A 
ENDBRANCH   8   9
ENDBRANCH   7   8
ENDBRANCH   5   7
ENDBRANCH   2   3
BRANCH   2  15
ATOM     15  S   UNL     1       2.567   5.654  19.953  0.00  0.00    +0.000 S 
BRANCH  15  16
ATOM     16  C   UNL     1       2.359   7.131  19.075  0.00  0.00    +0.000 A 
ATOM     17  N   UNL     1       2.835   7.334  17.864  0.00  0.00    +0.000 NA
ATOM     18  N   UNL     1       2.493   8.640  17.550  0.00  0.00    +0.000 N 
ATOM     19  C   UNL     1       1.840   9.223  18.560  0.00  0.00    +0.000 A 
ATOM     20  N   UNL     1       1.318  10.369  18.880  0.00  0.00    +0.000 NA
ATOM     21  C   UNL     1       0.834  10.138  20.157  0.00  0.00    +0.000 A 
ATOM     22  C   UNL     1       0.158  11.029  21.005  0.00  0.00    +0.000 A 
ATOM     23  C   UNL     1      -0.249  10.584  22.266  0.00  0.00    +0.000 A 
ATOM     24  C   UNL     1       0.010   9.275  22.679  0.00  0.00    +0.000 A 
ATOM     25  C   UNL     1       0.685   8.362  21.855  0.00  0.00    +0.000 A 
ATOM     26  C   UNL     1       1.086   8.824  20.597  0.00  0.00    +0.000 A 
ATOM     27  N   UNL     1       1.740   8.280  19.530  0.00  0.00    +0.000 N 
ATOM     28  H   UNL     1       2.757   9.090  16.679  0.00  0.00    +0.000 HD
ENDBRANCH  15  16
ENDBRANCH   2  15
TORSDOF 6
ENDMDL
MODEL 9
REMARK VINA RESULT:      -8.0      4.728      7.778
REMARK  Name = 
REMARK  7 active torsions:
REMARK  status: ('A' for Active; 'I' for Inactive)
REMARK    1  A    between atoms: C_1  and  C_2
REMARK    2  A    between atoms: C_2  and  S_3
REMARK    3  A    between atoms: C_2  and  C_16
REMARK    4  A    between atoms: S_3  and  C_4
REMARK    5  A    between atoms: N_18  and  C_19
REMARK    6  A    between atoms: C_19  and  C_20
REMARK    7  A    between atoms: C_20  and  C_21
REMARK                            x       y       z     vdW  Elec       q    Type
REMARK                         _______ _______ _______ _____ _____    ______ ____
ROOT
ATOM      1  C   UNL     1       1.438   3.113  20.524  0.00  0.00    +0.000 C 
ATOM      2  C   UNL     1       2.625   3.955  20.053  0.00  0.00    +0.000 C 
ENDROOT
BRANCH   2   3
ATOM      3  C   UNL     1       2.267   5.383  19.602  0.00  0.00    +0.000 C 
ATOM      4  O   UNL     1       2.135   5.689  18.417  0.00  0.00    +0.000 OA
ATOM      5  N   UNL     1       2.173   6.334  20.602  0.00  0.00    +0.000 N 
ATOM      6  H   UNL     1       2.517   6.131  21.531  0.00  0.00    +0.000 HD
BRANCH   5   7
ATOM      7  C   UNL     1       1.868   7.709  20.259  0.00  0.00    +0.000 C 
BRANCH   7   8
ATOM      8  C   UNL     1       1.090   8.444  21.350  0.00  0.00    +0.000 C 
BRANCH   8   9
ATOM      9  C   UNL     1       0.398   9.648  20.762  0.00  0.00    +0.000 A 
ATOM     10  C   UNL     1      -0.290  10.545  21.591  0.00  0.00    +0.000 A 
ATOM     11  C   UNL     1      -1.032  11.588  21.039  0.00  0.00    +0.000 A 
ATOM     12  C   UNL     1      -1.092  11.747  19.655  0.00  0.00    +0.000 A 
ATOM     13  C   UNL     1      -0.398  10.870  18.823  0.00  0.00    +0.000 A 
ATOM     14  C   UNL     1       0.346   9.826  19.373  0.00  0.00    +0.000 A 
ENDBRANCH   8   9
ENDBRANCH   7   8
ENDBRANCH   5   7
ENDBRANCH   2   3
BRANCH   2  15
ATOM     15  S   UNL     1       3.590   3.096  18.728  0.00  0.00    +0.000 S 
BRANCH  15  16
ATOM     16  C   UNL     1       5.067   3.997  18.766  0.00  0.00    +0.000 A 
ATOM     17  N   UNL     1       5.606   4.468  19.870  0.00  0.00    +0.000 NA
ATOM     18  N   UNL     1       6.738   5.156  19.461  0.00  0.00    +0.000 N 
ATOM     19  C   UNL     1       6.870   5.119  18.132  0.00  0.00    +0.000 A 
ATOM     20  N   UNL     1       7.648   5.570  17.194  0.00  0.00    +0.000 NA
ATOM     21  C   UNL     1       7.059   5.072  16.043  0.00  0.00    +0.000 A 
ATOM     22  C   UNL     1       7.475   5.237  14.713  0.00  0.00    +0.000 A 
ATOM     23  C   UNL     1       6.727   4.642  13.693  0.00  0.00    +0.000 A 
ATOM     24  C   UNL     1       5.585   3.894  13.989  0.00  0.00    +0.000 A 
ATOM     25  C   UNL     1       5.143   3.713  15.308  0.00  0.00    +0.000 A 
ATOM     26  C   UNL     1       5.903   4.317  16.315  0.00  0.00    +0.000 A 
ATOM     27  N   UNL     1       5.825   4.383  17.676  0.00  0.00    +0.000 N 
ATOM     28  H   UNL     1       7.347   5.657  20.101  0.00  0.00    +0.000 HD
ENDBRANCH  15  16
ENDBRANCH   2  15
TORSDOF 6
ENDMDL
