MODEL 1
REMARK VINA RESULT:      -9.1      0.000      0.000
REMARK  Name = 
REMARK  3 active torsions:
REMARK  status: ('A' for Active; 'I' for Inactive)
REMARK    1  A    between atoms: C_2  and  C_3
REMARK    2  A    between atoms: C_7  and  C_8
REMARK    3  A    between atoms: C_11  and  C_12
REMARK                            x       y       z     vdW  Elec       q    Type
REMARK                         _______ _______ _______ _____ _____    ______ ____
ROOT
ATOM      1  C   UNL     1       2.027   6.537  19.859  0.00  0.00    +0.000 A 
ATOM      2  C   UNL     1       2.280   7.106  18.605  0.00  0.00    +0.000 A 
ATOM      3  C   UNL     1       2.103   8.473  18.399  0.00  0.00    +0.000 A 
ATOM      4  C   UNL     1       1.562   9.259  19.414  0.00  0.00    +0.000 A 
ATOM      5  C   UNL     1       1.189   8.688  20.641  0.00  0.00    +0.000 A 
ATOM      6  C   UNL     1       1.456   7.327  20.867  0.00  0.00    +0.000 A 
ENDROOT
BRANCH   1   8
ATOM      7  O   UNL     1       2.139   4.702  21.291  0.00  0.00    +0.000 OA
ATOM      8  C   UNL     1       2.264   5.090  20.131  0.00  0.00    +0.000 C 
ATOM      9  N   UNL     1       2.606   4.230  19.089  0.00  0.00    +0.000 N 
ATOM     10  C   UNL     1       2.630   2.785  19.315  0.00  0.00    +0.000 C 
ATOM     11  C   UNL     1       3.976   2.174  18.909  0.00  0.00    +0.000 C 
ATOM     12  O   UNL     1       4.398   2.577  17.593  0.00  0.00    +0.000 OA
ATOM     13  C   UNL     1       4.425   4.003  17.414  0.00  0.00    +0.000 C 
ATOM     14  C   UNL     1       5.571   4.664  18.215  0.00  0.00    +0.000 C 
ATOM     15  C   UNL     1       6.708   4.809  17.215  0.00  0.00    +0.000 C 
ATOM     16  C   UNL     1       5.986   5.192  15.937  0.00  0.00    +0.000 C 
ATOM     17  C   UNL     1       4.762   4.287  15.928  0.00  0.00    +0.000 C 
ATOM     18  C   UNL     1       3.055   4.614  17.753  0.00  0.00    +0.000 C 
ENDBRANCH   1   8
BRANCH   5  19
ATOM     19  C   UNL     1       0.486   9.480  21.643  0.00  0.00    +0.000 A 
ATOM     20  N   UNL     1       0.764   9.436  22.957  0.00  0.00    +0.000 NA
ATOM     21  O   UNL     1      -0.071  10.400  23.510  0.00  0.00    +0.000 OA
ATOM     22  C   UNL     1      -0.791  10.934  22.480  0.00  0.00    +0.000 A 
ATOM     23  N   UNL     1      -0.487  10.396  21.314  0.00  0.00    +0.000 NA
BRANCH  22  24
ATOM     24  C   UNL     1      -1.759  11.999  22.845  0.00  0.00    +0.000 C 
ATOM     25  F   UNL     1      -2.754  11.549  23.659  0.00  0.00    +0.000 F 
ATOM     26  F   UNL     1      -1.167  13.031  23.501  0.00  0.00    +0.000 F 
ATOM     27  F   UNL     1      -2.372  12.530  21.754  0.00  0.00    +0.000 F 
ENDBRANCH  22  24
ENDBRANCH   5  19
TORSDOF 3
ENDMDL
MODEL 2
REMARK VINA RESULT:      -9.1      0.931      1.072
REMARK  Name = 
REMARK  3 active torsions:
REMARK  status: ('A' for Active; 'I' for Inactive)
REMARK    1  A    between atoms: C_2  and  C_3
REMARK    2  A    between atoms: C_7  and  C_8
REMARK    3  A    between atoms: C_11  and  C_12
REMARK                            x       y       z     vdW  Elec       q    Type
REMARK                         _______ _______ _______ _____ _____    ______ ____
ROOT
ATOM      1  C   UNL     1       2.049   7.048  19.562  0.00  0.00    +0.000 A 
ATOM      2  C   UNL     1       2.232   7.700  18.337  0.00  0.00    +0.000 A 
ATOM      3  C   UNL     1       1.965   9.061  18.212  0.00  0.00    +0.000 A 
ATOM      4  C   UNL     1       1.403   9.755  19.281  0.00  0.00    +0.000 A 
ATOM      5  C   UNL     1       1.099   9.095  20.483  0.00  0.00    +0.000 A 
ATOM      6  C   UNL     1       1.456   7.744  20.625  0.00  0.00    +0.000 A 
ENDROOT
BRANCH   1   8
ATOM      7  O   UNL     1       1.930   5.041  20.740  0.00  0.00    +0.000 OA
ATOM      8  C   UNL     1       2.383   5.606  19.746  0.00  0.00    +0.000 C 
ATOM      9  N   UNL     1       3.175   4.947  18.809  0.00  0.00    +0.000 N 
ATOM     10  C   UNL     1       3.326   3.493  18.876  0.00  0.00    +0.000 C 
ATOM     11  C   UNL     1       4.803   3.082  18.910  0.00  0.00    +0.000 C 
ATOM     12  O   UNL     1       5.582   3.713  17.877  0.00  0.00    +0.000 OA
ATOM     13  C   UNL     1       5.465   5.146  17.870  0.00  0.00    +0.000 C 
ATOM     14  C   UNL     1       6.167   5.789  19.089  0.00  0.00    +0.000 C 
ATOM     15  C   UNL     1       7.542   6.189  18.577  0.00  0.00    +0.000 C 
ATOM     16  C   UNL     1       7.248   6.686  17.173  0.00  0.00    +0.000 C 
ATOM     17  C   UNL     1       6.240   5.678  16.638  0.00  0.00    +0.000 C 
ATOM     18  C   UNL     1       3.990   5.566  17.766  0.00  0.00    +0.000 C 
ENDBRANCH   1   8
BRANCH   5  19
ATOM     19  C   UNL     1       0.375   9.785  21.543  0.00  0.00    +0.000 A 
ATOM     20  N   UNL     1       0.631   9.617  22.852  0.00  0.00    +0.000 NA
ATOM     21  O   UNL     1      -0.217  10.520  23.480  0.00  0.00    +0.000 OA
ATOM     22  C   UNL     1      -0.923  11.147  22.494  0.00  0.00    +0.000 A 
ATOM     23  N   UNL     1      -0.598  10.724  21.287  0.00  0.00    +0.000 NA
BRANCH  22  24
ATOM     24  C   UNL     1      -1.904  12.168  22.942  0.00  0.00    +0.000 C 
ATOM     25  F   UNL     1      -2.848  11.658  23.780  0.00  0.00    +0.000 F 
ATOM     26  F   UNL     1      -1.312  13.192  23.612  0.00  0.00    +0.000 F 
ATOM     27  F   UNL     1      -2.580  12.722  21.900  0.00  0.00    +0.000 F 
ENDBRANCH  22  24
ENDBRANCH   5  19
TORSDOF 3
ENDMDL
MODEL 3
REMARK VINA RESULT:      -8.9      1.122      1.502
REMARK  Name = 
REMARK  3 active torsions:
REMARK  status: ('A' for Active; 'I' for Inactive)
REMARK    1  A    between atoms: C_2  and  C_3
REMARK    2  A    between atoms: C_7  and  C_8
REMARK    3  A    between atoms: C_11  and  C_12
REMARK                            x       y       z     vdW  Elec       q    Type
REMARK                         _______ _______ _______ _____ _____    ______ ____
ROOT
ATOM      1  C   UNL     1       2.094   7.164  19.435  0.00  0.00    +0.000 A 
ATOM      2  C   UNL     1       2.260   7.495  18.085  0.00  0.00    +0.000 A 
ATOM      3  C   UNL     1       2.101   8.811  17.654  0.00  0.00    +0.000 A 
ATOM      4  C   UNL     1       1.663   9.782  18.551  0.00  0.00    +0.000 A 
ATOM      5  C   UNL     1       1.375   9.449  19.884  0.00  0.00    +0.000 A 
ATOM      6  C   UNL     1       1.625   8.139  20.326  0.00  0.00    +0.000 A 
ENDROOT
BRANCH   1   8
ATOM      7  O   UNL     1       1.816   5.482  21.025  0.00  0.00    +0.000 OA
ATOM      8  C   UNL     1       2.315   5.778  19.940  0.00  0.00    +0.000 C 
ATOM      9  N   UNL     1       3.057   4.871  19.188  0.00  0.00    +0.000 N 
ATOM     10  C   UNL     1       3.096   3.461  19.578  0.00  0.00    +0.000 C 
ATOM     11  C   UNL     1       4.536   2.958  19.732  0.00  0.00    +0.000 C 
ATOM     12  O   UNL     1       5.366   3.286  18.602  0.00  0.00    +0.000 OA
ATOM     13  C   UNL     1       5.360   4.686  18.277  0.00  0.00    +0.000 C 
ATOM     14  C   UNL     1       6.105   5.529  19.338  0.00  0.00    +0.000 C 
ATOM     15  C   UNL     1       7.508   5.702  18.779  0.00  0.00    +0.000 C 
ATOM     16  C   UNL     1       7.259   5.896  17.294  0.00  0.00    +0.000 C 
ATOM     17  C   UNL     1       6.178   4.872  16.974  0.00  0.00    +0.000 C 
ATOM     18  C   UNL     1       3.922   5.180  18.052  0.00  0.00    +0.000 C 
ENDBRANCH   1   8
BRANCH   5  19
ATOM     19  C   UNL     1       0.775  10.430  20.779  0.00  0.00    +0.000 A 
ATOM     20  N   UNL     1       1.358  11.596  21.108  0.00  0.00    +0.000 NA
ATOM     21  O   UNL     1       0.409  12.239  21.892  0.00  0.00    +0.000 OA
ATOM     22  C   UNL     1      -0.663  11.398  21.980  0.00  0.00    +0.000 A 
ATOM     23  N   UNL     1      -0.482  10.271  21.317  0.00  0.00    +0.000 NA
BRANCH  22  24
ATOM     24  C   UNL     1      -1.812  11.888  22.783  0.00  0.00    +0.000 C 
ATOM     25  F   UNL     1      -1.506  12.989  23.523  0.00  0.00    +0.000 F 
ATOM     26  F   UNL     1      -2.873  12.234  22.005  0.00  0.00    +0.000 F 
ATOM     27  F   UNL     1      -2.261  10.952  23.661  0.00  0.00    +0.000 F 
ENDBRANCH  22  24
ENDBRANCH   5  19
TORSDOF 3
ENDMDL
MODEL 4
REMARK VINA RESULT:      -8.9      2.447      3.672
REMARK  Name = 
REMARK  3 active torsions:
REMARK  status: ('A' for Active; 'I' for Inactive)
REMARK    1  A    between atoms: C_2  and  C_3
REMARK    2  A    between atoms: C_7  and  C_8
REMARK    3  A    between atoms: C_11  and  C_12
REMARK                            x       y       z     vdW  Elec       q    Type
REMARK                         _______ _______ _______ _____ _____    ______ ____
ROOT
ATOM      1  C   UNL     1       2.866   5.215  18.461  0.00  0.00    +0.000 A 
ATOM      2  C   UNL     1       2.635   4.607  19.701  0.00  0.00    +0.000 A 
ATOM      3  C   UNL     1       1.936   5.280  20.700  0.00  0.00    +0.000 A 
ATOM      4  C   UNL     1       1.565   6.609  20.506  0.00  0.00    +0.000 A 
ATOM      5  C   UNL     1       1.890   7.278  19.315  0.00  0.00    +0.000 A 
ATOM      6  C   UNL     1       2.516   6.560  18.282  0.00  0.00    +0.000 A 
ENDROOT
BRANCH   1   8
ATOM      7  O   UNL     1       3.173   3.362  17.079  0.00  0.00    +0.000 OA
ATOM      8  C   UNL     1       3.557   4.499  17.349  0.00  0.00    +0.000 C 
ATOM      9  N   UNL     1       4.590   5.122  16.653  0.00  0.00    +0.000 N 
ATOM     10  C   UNL     1       5.121   4.510  15.435  0.00  0.00    +0.000 C 
ATOM     11  C   UNL     1       6.642   4.332  15.511  0.00  0.00    +0.000 C 
ATOM     12  O   UNL     1       7.325   5.531  15.919  0.00  0.00    +0.000 OA
ATOM     13  C   UNL     1       6.826   6.080  17.150  0.00  0.00    +0.000 C 
ATOM     14  C   UNL     1       7.198   5.200  18.367  0.00  0.00    +0.000 C 
ATOM     15  C   UNL     1       8.459   5.835  18.933  0.00  0.00    +0.000 C 
ATOM     16  C   UNL     1       8.190   7.320  18.776  0.00  0.00    +0.000 C 
ATOM     17  C   UNL     1       7.553   7.427  17.396  0.00  0.00    +0.000 C 
ATOM     18  C   UNL     1       5.312   6.327  17.057  0.00  0.00    +0.000 C 
ENDBRANCH   1   8
BRANCH   5  19
ATOM     19  C   UNL     1       1.635   8.706  19.175  0.00  0.00    +0.000 A 
ATOM     20  N   UNL     1       1.974   9.420  18.088  0.00  0.00    +0.000 NA
ATOM     21  O   UNL     1       1.469  10.688  18.346  0.00  0.00    +0.000 OA
ATOM     22  C   UNL     1       0.879  10.632  19.577  0.00  0.00    +0.000 A 
ATOM     23  N   UNL     1       0.961   9.435  20.127  0.00  0.00    +0.000 NA
BRANCH  22  24
ATOM     24  C   UNL     1       0.263  11.893  20.063  0.00  0.00    +0.000 C 
ATOM     25  F   UNL     1      -0.207  12.674  19.051  0.00  0.00    +0.000 F 
ATOM     26  F   UNL     1      -0.791  11.666  20.890  0.00  0.00    +0.000 F 
ATOM     27  F   UNL     1       1.146  12.661  20.756  0.00  0.00    +0.000 F 
ENDBRANCH  22  24
ENDBRANCH   5  19
TORSDOF 3
ENDMDL
MODEL 5
REMARK VINA RESULT:      -8.5      3.477      4.636
REMARK  Name = 
REMARK  3 active torsions:
REMARK  status: ('A' for Active; 'I' for Inactive)
REMARK    1  A    between atoms: C_2  and  C_3
REMARK    2  A    between atoms: C_7  and  C_8
REMARK    3  A    between atoms: C_11  and  C_12
REMARK                            x       y       z     vdW  Elec       q    Type
REMARK                         _______ _______ _______ _____ _____    ______ ____
ROOT
ATOM      1  C   UNL     1       1.621   8.494  19.081  0.00  0.00    +0.000 A 
ATOM      2  C   UNL     1       1.790   8.464  20.471  0.00  0.00    +0.000 A 
ATOM      3  C   UNL     1       0.801   8.965  21.315  0.00  0.00    +0.000 A 
ATOM      4  C   UNL     1      -0.312   9.603  20.772  0.00  0.00    +0.000 A 
ATOM      5  C   UNL     1      -0.446   9.750  19.382  0.00  0.00    +0.000 A 
ATOM      6  C   UNL     1       0.513   9.162  18.541  0.00  0.00    +0.000 A 
ENDROOT
BRANCH   1   8
ATOM      7  O   UNL     1       2.825   8.493  17.085  0.00  0.00    +0.000 OA
ATOM      8  C   UNL     1       2.631   7.911  18.152  0.00  0.00    +0.000 C 
ATOM      9  N   UNL     1       3.322   6.754  18.506  0.00  0.00    +0.000 N 
ATOM     10  C   UNL     1       4.455   6.305  17.696  0.00  0.00    +0.000 C 
ATOM     11  C   UNL     1       4.285   4.849  17.247  0.00  0.00    +0.000 C 
ATOM     12  O   UNL     1       3.943   3.967  18.332  0.00  0.00    +0.000 OA
ATOM     13  C   UNL     1       2.790   4.397  19.075  0.00  0.00    +0.000 C 
ATOM     14  C   UNL     1       1.486   4.242  18.257  0.00  0.00    +0.000 C 
ATOM     15  C   UNL     1       0.910   2.905  18.696  0.00  0.00    +0.000 C 
ATOM     16  C   UNL     1       1.204   2.883  20.185  0.00  0.00    +0.000 C 
ATOM     17  C   UNL     1       2.619   3.438  20.280  0.00  0.00    +0.000 C 
ATOM     18  C   UNL     1       2.983   5.833  19.588  0.00  0.00    +0.000 C 
ENDBRANCH   1   8
BRANCH   5  19
ATOM     19  C   UNL     1      -1.530  10.547  18.823  0.00  0.00    +0.000 A 
ATOM     20  N   UNL     1      -1.595  11.886  18.913  0.00  0.00    +0.000 NA
ATOM     21  O   UNL     1      -2.725  12.220  18.177  0.00  0.00    +0.000 OA
ATOM     22  C   UNL     1      -3.253  11.049  17.715  0.00  0.00    +0.000 A 
ATOM     23  N   UNL     1      -2.556   9.993  18.092  0.00  0.00    +0.000 NA
BRANCH  22  24
ATOM     24  C   UNL     1      -4.483  11.168  16.891  0.00  0.00    +0.000 C 
ATOM     25  F   UNL     1      -5.565  10.584  17.475  0.00  0.00    +0.000 F 
ATOM     26  F   UNL     1      -4.826  12.463  16.662  0.00  0.00    +0.000 F 
ATOM     27  F   UNL     1      -4.343  10.580  15.674  0.00  0.00    +0.000 F 
ENDBRANCH  22  24
ENDBRANCH   5  19
TORSDOF 3
ENDMDL
MODEL 6
REMARK VINA RESULT:      -8.5      3.044      4.231
REMARK  Name = 
REMARK  3 active torsions:
REMARK  status: ('A' for Active; 'I' for Inactive)
REMARK    1  A    between atoms: C_2  and  C_3
REMARK    2  A    between atoms: C_7  and  C_8
REMARK    3  A    between atoms: C_11  and  C_12
REMARK                            x       y       z     vdW  Elec       q    Type
REMARK                         _______ _______ _______ _____ _____    ______ ____
ROOT
ATOM      1  C   UNL     1       2.131   8.107  18.950  0.00  0.00    +0.000 A 
ATOM      2  C   UNL     1       1.884   7.658  20.253  0.00  0.00    +0.000 A 
ATOM      3  C   UNL     1       1.014   8.353  21.089  0.00  0.00    +0.000 A 
ATOM      4  C   UNL     1       0.474   9.566  20.667  0.00  0.00    +0.000 A 
ATOM      5  C   UNL     1       0.800  10.097  19.409  0.00  0.00    +0.000 A 
ATOM      6  C   UNL     1       1.608   9.342  18.542  0.00  0.00    +0.000 A 
ENDROOT
BRANCH   1   8
ATOM      7  O   UNL     1       3.178   7.828  16.887  0.00  0.00    +0.000 OA
ATOM      8  C   UNL     1       3.009   7.353  18.009  0.00  0.00    +0.000 C 
ATOM      9  N   UNL     1       3.608   6.163  18.414  0.00  0.00    +0.000 N 
ATOM     10  C   UNL     1       4.630   5.538  17.572  0.00  0.00    +0.000 C 
ATOM     11  C   UNL     1       4.287   4.077  17.261  0.00  0.00    +0.000 C 
ATOM     12  O   UNL     1       3.942   3.322  18.437  0.00  0.00    +0.000 OA
ATOM     13  C   UNL     1       2.894   3.924  19.214  0.00  0.00    +0.000 C 
ATOM     14  C   UNL     1       1.524   3.841  18.500  0.00  0.00    +0.000 C 
ATOM     15  C   UNL     1       0.856   2.607  19.088  0.00  0.00    +0.000 C 
ATOM     16  C   UNL     1       1.255   2.671  20.551  0.00  0.00    +0.000 C 
ATOM     17  C   UNL     1       2.721   3.084  20.506  0.00  0.00    +0.000 C 
ATOM     18  C   UNL     1       3.263   5.368  19.590  0.00  0.00    +0.000 C 
ENDBRANCH   1   8
BRANCH   5  19
ATOM     19  C   UNL     1       0.357  11.432  19.031  0.00  0.00    +0.000 A 
ATOM     20  N   UNL     1      -0.814  11.685  18.421  0.00  0.00    +0.000 NA
ATOM     21  O   UNL     1      -0.859  13.071  18.337  0.00  0.00    +0.000 OA
ATOM     22  C   UNL     1       0.297  13.536  18.895  0.00  0.00    +0.000 A 
ATOM     23  N   UNL     1       1.079  12.565  19.330  0.00  0.00    +0.000 NA
BRANCH  22  24
ATOM     24  C   UNL     1       0.464  15.011  18.915  0.00  0.00    +0.000 C 
ATOM     25  F   UNL     1       0.429  15.528  20.174  0.00  0.00    +0.000 F 
ATOM     26  F   UNL     1       1.650  15.402  18.376  0.00  0.00    +0.000 F 
ATOM     27  F   UNL     1      -0.512  15.648  18.215  0.00  0.00    +0.000 F 
ENDBRANCH  22  24
ENDBRANCH   5  19
TORSDOF 3
ENDMDL
MODEL 7
REMARK VINA RESULT:      -8.5      2.758      4.017
REMARK  Name = 
REMARK  3 active torsions:
REMARK  status: ('A' for Active; 'I' for Inactive)
REMARK    1  A    between atoms: C_2  and  C_3
REMARK    2  A    between atoms: C_7  and  C_8
REMARK    3  A    between atoms: C_11  and  C_12
REMARK                            x       y       z     vdW  Elec       q    Type
REMARK                         _______ _______ _______ _____ _____    ______ ____
ROOT
ATOM      1  C   UNL     1       2.921   4.645  18.545  0.00  0.00    +0.000 A 
ATOM      2  C   UNL     1       2.779   3.835  19.678  0.00  0.00    +0.000 A 
ATOM      3  C   UNL     1       2.108   4.304  20.804  0.00  0.00    +0.000 A 
ATOM      4  C   UNL     1       1.674   5.627  20.848  0.00  0.00    +0.000 A 
ATOM      5  C   UNL     1       1.910   6.494  19.769  0.00  0.00    +0.000 A 
ATOM      6  C   UNL     1       2.509   5.983  18.605  0.00  0.00    +0.000 A 
ENDROOT
BRANCH   1   8
ATOM      7  O   UNL     1       3.235   3.053  16.872  0.00  0.00    +0.000 OA
ATOM      8  C   UNL     1       3.580   4.153  17.301  0.00  0.00    +0.000 C 
ATOM      9  N   UNL     1       4.543   4.933  16.664  0.00  0.00    +0.000 N 
ATOM     10  C   UNL     1       5.033   4.550  15.340  0.00  0.00    +0.000 C 
ATOM     11  C   UNL     1       6.562   4.447  15.312  0.00  0.00    +0.000 C 
ATOM     12  O   UNL     1       7.210   5.603  15.874  0.00  0.00    +0.000 OA
ATOM     13  C   UNL     1       6.756   5.923  17.200  0.00  0.00    +0.000 C 
ATOM     14  C   UNL     1       7.236   4.885  18.241  0.00  0.00    +0.000 C 
ATOM     15  C   UNL     1       8.497   5.491  18.839  0.00  0.00    +0.000 C 
ATOM     16  C   UNL     1       8.150   6.965  18.935  0.00  0.00    +0.000 C 
ATOM     17  C   UNL     1       7.432   7.252  17.623  0.00  0.00    +0.000 C 
ATOM     18  C   UNL     1       5.229   6.097  17.220  0.00  0.00    +0.000 C 
ENDBRANCH   1   8
BRANCH   5  19
ATOM     19  C   UNL     1       1.592   7.912  19.876  0.00  0.00    +0.000 A 
ATOM     20  N   UNL     1       1.162   8.497  21.007  0.00  0.00    +0.000 NA
ATOM     21  O   UNL     1       1.075   9.844  20.678  0.00  0.00    +0.000 OA
ATOM     22  C   UNL     1       1.448   9.954  19.370  0.00  0.00    +0.000 A 
ATOM     23  N   UNL     1       1.769   8.792  18.832  0.00  0.00    +0.000 NA
BRANCH  22  24
ATOM     24  C   UNL     1       1.430  11.325  18.799  0.00  0.00    +0.000 C 
ATOM     25  F   UNL     1       2.338  11.490  17.798  0.00  0.00    +0.000 F 
ATOM     26  F   UNL     1       0.219  11.647  18.272  0.00  0.00    +0.000 F 
ATOM     27  F   UNL     1       1.715  12.272  19.731  0.00  0.00    +0.000 F 
ENDBRANCH  22  24
ENDBRANCH   5  19
TORSDOF 3
ENDMDL
MODEL 8
REMARK VINA RESULT:      -8.3      3.623      4.792
REMARK  Name = 
REMARK  3 active torsions:
REMARK  status: ('A' for Active; 'I' for Inactive)
REMARK    1  A    between atoms: C_2  and  C_3
REMARK    2  A    between atoms: C_7  and  C_8
REMARK    3  A    between atoms: C_11  and  C_12
REMARK                            x       y       z     vdW  Elec       q    Type
REMARK                         _______ _______ _______ _____ _____    ______ ____
ROOT
ATOM      1  C   UNL     1       1.483   8.796  18.712  0.00  0.00    +0.000 A 
ATOM      2  C   UNL     1       1.590   9.037  20.087  0.00  0.00    +0.000 A 
ATOM      3  C   UNL     1       0.519   9.573  20.798  0.00  0.00    +0.000 A 
ATOM      4  C   UNL     1      -0.626   9.979  20.116  0.00  0.00    +0.000 A 
ATOM      5  C   UNL     1      -0.711   9.857  18.720  0.00  0.00    +0.000 A 
ATOM      6  C   UNL     1       0.340   9.233  18.028  0.00  0.00    +0.000 A 
ENDROOT
BRANCH   1   8
ATOM      7  O   UNL     1       2.884   8.676  16.852  0.00  0.00    +0.000 OA
ATOM      8  C   UNL     1       2.589   8.167  17.933  0.00  0.00    +0.000 C 
ATOM      9  N   UNL     1       3.251   7.049  18.437  0.00  0.00    +0.000 N 
ATOM     10  C   UNL     1       4.464   6.564  17.780  0.00  0.00    +0.000 C 
ATOM     11  C   UNL     1       4.355   5.077  17.421  0.00  0.00    +0.000 C 
ATOM     12  O   UNL     1       3.913   4.268  18.527  0.00  0.00    +0.000 OA
ATOM     13  C   UNL     1       2.686   4.729  19.117  0.00  0.00    +0.000 C 
ATOM     14  C   UNL     1       1.474   4.495  18.185  0.00  0.00    +0.000 C 
ATOM     15  C   UNL     1       0.869   3.183  18.659  0.00  0.00    +0.000 C 
ATOM     16  C   UNL     1       1.011   3.270  20.167  0.00  0.00    +0.000 C 
ATOM     17  C   UNL     1       2.404   3.855  20.365  0.00  0.00    +0.000 C 
ATOM     18  C   UNL     1       2.813   6.201  19.542  0.00  0.00    +0.000 C 
ENDBRANCH   1   8
BRANCH   5  19
ATOM     19  C   UNL     1      -1.843  10.419  17.995  0.00  0.00    +0.000 A 
ATOM     20  N   UNL     1      -1.960  10.391  16.657  0.00  0.00    +0.000 NA
ATOM     21  O   UNL     1      -3.210  10.946  16.415  0.00  0.00    +0.000 OA
ATOM     22  C   UNL     1      -3.736  11.274  17.632  0.00  0.00    +0.000 A 
ATOM     23  N   UNL     1      -2.929  10.974  18.633  0.00  0.00    +0.000 NA
BRANCH  22  24
ATOM     24  C   UNL     1      -5.087  11.890  17.614  0.00  0.00    +0.000 C 
ATOM     25  F   UNL     1      -6.087  10.967  17.667  0.00  0.00    +0.000 F 
ATOM     26  F   UNL     1      -5.285  12.728  18.666  0.00  0.00    +0.000 F 
ATOM     27  F   UNL     1      -5.303  12.620  16.488  0.00  0.00    +0.000 F 
ENDBRANCH  22  24
ENDBRANCH   5  19
TORSDOF 3
ENDMDL
MODEL 9
REMARK VINA RESULT:      -8.3      4.698      8.790
REMARK  Name = 
REMARK  3 active torsions:
REMARK  status: ('A' for Active; 'I' for Inactive)
REMARK    1  A    between atoms: C_2  and  C_3
REMARK    2  A    between atoms: C_7  and  C_8
REMARK    3  A    between atoms: C_11  and  C_12
REMARK                            x       y       z     vdW  Elec       q    Type
REMARK                         _______ _______ _______ _____ _____    ______ ____
ROOT
ATOM      1  C   UNL     1       1.040   8.483  20.079  0.00  0.00    +0.000 A 
ATOM      2  C   UNL     1       1.352   9.411  19.078  0.00  0.00    +0.000 A 
ATOM      3  C   UNL     1       2.144   9.042  17.993  0.00  0.00    +0.000 A 
ATOM      4  C   UNL     1       2.724   7.776  17.961  0.00  0.00    +0.000 A 
ATOM      5  C   UNL     1       2.522   6.868  19.012  0.00  0.00    +0.000 A 
ATOM      6  C   UNL     1       1.650   7.221  20.056  0.00  0.00    +0.000 A 
ENDROOT
BRANCH   1   8
ATOM      7  O   UNL     1      -0.693   7.992  21.558  0.00  0.00    +0.000 OA
ATOM      8  C   UNL     1       0.146   8.827  21.222  0.00  0.00    +0.000 C 
ATOM      9  N   UNL     1       0.282  10.051  21.872  0.00  0.00    +0.000 N 
ATOM     10  C   UNL     1      -0.446  10.301  23.117  0.00  0.00    +0.000 C 
ATOM     11  C   UNL     1      -1.277  11.586  23.036  0.00  0.00    +0.000 C 
ATOM     12  O   UNL     1      -0.520  12.712  22.555  0.00  0.00    +0.000 OA
ATOM     13  C   UNL     1       0.136  12.463  21.300  0.00  0.00    +0.000 C 
ATOM     14  C   UNL     1      -0.872  12.370  20.130  0.00  0.00    +0.000 C 
ATOM     15  C   UNL     1      -0.883  13.763  19.518  0.00  0.00    +0.000 C 
ATOM     16  C   UNL     1       0.575  14.177  19.594  0.00  0.00    +0.000 C 
ATOM     17  C   UNL     1       1.013  13.698  20.972  0.00  0.00    +0.000 C 
ATOM     18  C   UNL     1       1.027  11.214  21.395  0.00  0.00    +0.000 C 
ENDBRANCH   1   8
BRANCH   5  19
ATOM     19  C   UNL     1       3.248   5.605  19.050  0.00  0.00    +0.000 A 
ATOM     20  N   UNL     1       4.541   5.499  19.400  0.00  0.00    +0.000 NA
ATOM     21  O   UNL     1       4.784   4.131  19.384  0.00  0.00    +0.000 OA
ATOM     22  C   UNL     1       3.616   3.530  19.013  0.00  0.00    +0.000 A 
ATOM     23  N   UNL     1       2.645   4.396  18.791  0.00  0.00    +0.000 NA
BRANCH  22  24
ATOM     24  C   UNL     1       3.644   2.047  18.928  0.00  0.00    +0.000 C 
ATOM     25  F   UNL     1       3.918   1.597  17.673  0.00  0.00    +0.000 F 
ATOM     26  F   UNL     1       4.587   1.503  19.743  0.00  0.00    +0.000 F 
ATOM     27  F   UNL     1       2.455   1.491  19.281  0.00  0.00    +0.000 F 
ENDBRANCH  22  24
ENDBRANCH   5  19
TORSDOF 3
ENDMDL
