MODEL 1
REMARK VINA RESULT:      -9.0      0.000      0.000
REMARK  Name = 
REMARK  6 active torsions:
REMARK  status: ('A' for Active; 'I' for Inactive)
REMARK    1  A    between atoms: C_1  and  C_2
REMARK    2  A    between atoms: C_2  and  C_3
REMARK    3  A    between atoms: C_2  and  C_23
REMARK    4  A    between atoms: C_7  and  N_8
REMARK    5  A    between atoms: C_15  and  C_16
REMARK    6  A    between atoms: N_27  and  C_28
REMARK                            x       y       z     vdW  Elec       q    Type
REMARK                         _______ _______ _______ _____ _____    ______ ____
ROOT
ATOM      1  C   UNL     1       4.230   5.538  17.283  0.00  0.00    +0.000 A 
ATOM      2  C   UNL     1       3.431   4.385  17.326  0.00  0.00    +0.000 A 
ATOM      3  C   UNL     1       2.150   4.439  17.858  0.00  0.00    +0.000 A 
ATOM      4  C   UNL     1       1.655   5.641  18.359  0.00  0.00    +0.000 A 
ATOM      5  C   UNL     1       2.418   6.815  18.348  0.00  0.00    +0.000 A 
ATOM      6  C   UNL     1       3.708   6.750  17.790  0.00  0.00    +0.000 A 
ENDROOT
BRANCH   5   7
ATOM      7  N   UNL     1       1.919   8.011  18.936  0.00  0.00    +0.000 N 
ATOM      8  C   UNL     1       1.344   8.066  20.282  0.00  0.00    +0.000 C 
ATOM      9  C   UNL     1       0.854   9.481  20.389  0.00  0.00    +0.000 A 
ATOM     10  C   UNL     1       1.132  10.147  19.204  0.00  0.00    +0.000 A 
ATOM     11  C   UNL     1       0.778  11.455  19.010  0.00  0.00    +0.000 A 
ATOM     12  N   UNL     1       0.142  12.154  19.976  0.00  0.00    +0.000 NA
ATOM     13  C   UNL     1      -0.121  11.501  21.144  0.00  0.00    +0.000 A 
ATOM     14  C   UNL     1       0.211  10.169  21.409  0.00  0.00    +0.000 A 
ATOM     15  C   UNL     1       1.808   9.249  18.289  0.00  0.00    +0.000 C 
ATOM     16  O   UNL     1       2.175   9.622  17.190  0.00  0.00    +0.000 OA
BRANCH  14  17
ATOM     17  C   UNL     1      -0.133   9.593  22.742  0.00  0.00    +0.000 C 
ATOM     18  F   UNL     1       0.957   9.252  23.482  0.00  0.00    +0.000 F 
ATOM     19  F   UNL     1      -0.852  10.457  23.507  0.00  0.00    +0.000 F 
ATOM     20  F   UNL     1      -0.887   8.465  22.642  0.00  0.00    +0.000 F 
ENDBRANCH  14  17
ENDBRANCH   5   7
BRANCH   1  22
ATOM     21  C   UNL     1       5.842   4.038  16.135  0.00  0.00    +0.000 C 
ATOM     22  C   UNL     1       5.682   5.393  16.838  0.00  0.00    +0.000 C 
BRANCH  22  23
ATOM     23  C   UNL     1       6.697   5.552  17.932  0.00  0.00    +0.000 A 
ATOM     24  N   UNL     1       7.031   4.641  18.828  0.00  0.00    +0.000 NA
ATOM     25  N   UNL     1       8.049   5.143  19.601  0.00  0.00    +0.000 NA
ATOM     26  C   UNL     1       8.315   6.352  19.169  0.00  0.00    +0.000 A 
ATOM     27  N   UNL     1       7.489   6.657  18.131  0.00  0.00    +0.000 N 
ATOM     28  C   UNL     1       7.488   7.895  17.399  0.00  0.00    +0.000 C 
ENDBRANCH  22  23
ENDBRANCH   1  22
TORSDOF 4
ENDMDL
MODEL 2
REMARK VINA RESULT:      -8.7      1.505      2.387
REMARK  Name = 
REMARK  6 active torsions:
REMARK  status: ('A' for Active; 'I' for Inactive)
REMARK    1  A    between atoms: C_1  and  C_2
REMARK    2  A    between atoms: C_2  and  C_3
REMARK    3  A    between atoms: C_2  and  C_23
REMARK    4  A    between atoms: C_7  and  N_8
REMARK    5  A    between atoms: C_15  and  C_16
REMARK    6  A    between atoms: N_27  and  C_28
REMARK                            x       y       z     vdW  Elec       q    Type
REMARK                         _______ _______ _______ _____ _____    ______ ____
ROOT
ATOM      1  C   UNL     1       4.963   4.796  18.788  0.00  0.00    +0.000 A 
ATOM      2  C   UNL     1       4.334   3.631  19.251  0.00  0.00    +0.000 A 
ATOM      3  C   UNL     1       3.049   3.686  19.773  0.00  0.00    +0.000 A 
ATOM      4  C   UNL     1       2.380   4.907  19.846  0.00  0.00    +0.000 A 
ATOM      5  C   UNL     1       2.971   6.099  19.407  0.00  0.00    +0.000 A 
ATOM      6  C   UNL     1       4.267   6.024  18.864  0.00  0.00    +0.000 A 
ENDROOT
BRANCH   5   7
ATOM      7  N   UNL     1       2.298   7.343  19.565  0.00  0.00    +0.000 N 
ATOM      8  C   UNL     1       1.592   7.727  20.789  0.00  0.00    +0.000 C 
ATOM      9  C   UNL     1       0.953   9.034  20.422  0.00  0.00    +0.000 A 
ATOM     10  C   UNL     1       1.276   9.343  19.108  0.00  0.00    +0.000 A 
ATOM     11  C   UNL     1       0.811  10.477  18.497  0.00  0.00    +0.000 A 
ATOM     12  N   UNL     1       0.017  11.347  19.158  0.00  0.00    +0.000 NA
ATOM     13  C   UNL     1      -0.290  11.047  20.453  0.00  0.00    +0.000 A 
ATOM     14  C   UNL     1       0.147   9.910  21.137  0.00  0.00    +0.000 A 
ATOM     15  C   UNL     1       2.125   8.305  18.560  0.00  0.00    +0.000 C 
ATOM     16  O   UNL     1       2.557   8.373  17.423  0.00  0.00    +0.000 OA
BRANCH  14  17
ATOM     17  C   UNL     1      -0.264   9.723  22.560  0.00  0.00    +0.000 C 
ATOM     18  F   UNL     1      -1.032   8.619  22.761  0.00  0.00    +0.000 F 
ATOM     19  F   UNL     1       0.804   9.596  23.392  0.00  0.00    +0.000 F 
ATOM     20  F   UNL     1      -0.986  10.774  23.034  0.00  0.00    +0.000 F 
ENDBRANCH  14  17
ENDBRANCH   5   7
BRANCH   1  22
ATOM     21  C   UNL     1       7.233   5.703  19.223  0.00  0.00    +0.000 C 
ATOM     22  C   UNL     1       6.428   4.709  18.374  0.00  0.00    +0.000 C 
BRANCH  22  23
ATOM     23  C   UNL     1       6.685   4.922  16.911  0.00  0.00    +0.000 A 
ATOM     24  N   UNL     1       7.518   5.802  16.382  0.00  0.00    +0.000 NA
ATOM     25  N   UNL     1       7.527   5.630  15.021  0.00  0.00    +0.000 NA
ATOM     26  C   UNL     1       6.697   4.654  14.739  0.00  0.00    +0.000 A 
ATOM     27  N   UNL     1       6.138   4.186  15.888  0.00  0.00    +0.000 N 
ATOM     28  C   UNL     1       5.183   3.114  15.978  0.00  0.00    +0.000 C 
ENDBRANCH  22  23
ENDBRANCH   1  22
TORSDOF 4
ENDMDL
MODEL 3
REMARK VINA RESULT:      -8.5      1.291      2.228
REMARK  Name = 
REMARK  6 active torsions:
REMARK  status: ('A' for Active; 'I' for Inactive)
REMARK    1  A    between atoms: C_1  and  C_2
REMARK    2  A    between atoms: C_2  and  C_3
REMARK    3  A    between atoms: C_2  and  C_23
REMARK    4  A    between atoms: C_7  and  N_8
REMARK    5  A    between atoms: C_15  and  C_16
REMARK    6  A    between atoms: N_27  and  C_28
REMARK                            x       y       z     vdW  Elec       q    Type
REMARK                         _______ _______ _______ _____ _____    ______ ____
ROOT
ATOM      1  C   UNL     1       4.524   4.952  18.021  0.00  0.00    +0.000 A 
ATOM      2  C   UNL     1       3.669   3.842  17.947  0.00  0.00    +0.000 A 
ATOM      3  C   UNL     1       2.313   3.981  18.212  0.00  0.00    +0.000 A 
ATOM      4  C   UNL     1       1.797   5.227  18.562  0.00  0.00    +0.000 A 
ATOM      5  C   UNL     1       2.612   6.362  18.661  0.00  0.00    +0.000 A 
ATOM      6  C   UNL     1       3.981   6.210  18.372  0.00  0.00    +0.000 A 
ENDROOT
BRANCH   5   7
ATOM      7  N   UNL     1       2.075   7.606  19.097  0.00  0.00    +0.000 N 
ATOM      8  C   UNL     1       1.491   7.809  20.423  0.00  0.00    +0.000 C 
ATOM      9  C   UNL     1       0.959   9.211  20.354  0.00  0.00    +0.000 A 
ATOM     10  C   UNL     1       1.225   9.734  19.097  0.00  0.00    +0.000 A 
ATOM     11  C   UNL     1       0.834  10.998  18.742  0.00  0.00    +0.000 A 
ATOM     12  N   UNL     1       0.173  11.791  19.613  0.00  0.00    +0.000 NA
ATOM     13  C   UNL     1      -0.078  11.279  20.852  0.00  0.00    +0.000 A 
ATOM     14  C   UNL     1       0.290  10.000  21.280  0.00  0.00    +0.000 A 
ATOM     15  C   UNL     1       1.932   8.751  18.302  0.00  0.00    +0.000 C 
ATOM     16  O   UNL     1       2.295   8.996  17.165  0.00  0.00    +0.000 OA
BRANCH  14  17
ATOM     17  C   UNL     1      -0.045   9.583  22.673  0.00  0.00    +0.000 C 
ATOM     18  F   UNL     1      -0.732  10.527  23.371  0.00  0.00    +0.000 F 
ATOM     19  F   UNL     1      -0.810   8.459  22.705  0.00  0.00    +0.000 F 
ATOM     20  F   UNL     1       1.063   9.302  23.412  0.00  0.00    +0.000 F 
ENDBRANCH  14  17
ENDBRANCH   5   7
BRANCH   1  22
ATOM     21  C   UNL     1       6.748   5.538  18.954  0.00  0.00    +0.000 C 
ATOM     22  C   UNL     1       6.024   4.718  17.878  0.00  0.00    +0.000 C 
BRANCH  22  23
ATOM     23  C   UNL     1       6.582   5.010  16.515  0.00  0.00    +0.000 A 
ATOM     24  N   UNL     1       7.399   5.999  16.200  0.00  0.00    +0.000 NA
ATOM     25  N   UNL     1       7.742   5.875  14.877  0.00  0.00    +0.000 NA
ATOM     26  C   UNL     1       7.126   4.818  14.405  0.00  0.00    +0.000 A 
ATOM     27  N   UNL     1       6.379   4.248  15.390  0.00  0.00    +0.000 N 
ATOM     28  C   UNL     1       5.568   3.069  15.249  0.00  0.00    +0.000 C 
ENDBRANCH  22  23
ENDBRANCH   1  22
TORSDOF 4
ENDMDL
MODEL 4
REMARK VINA RESULT:      -8.5      0.721      1.434
REMARK  Name = 
REMARK  6 active torsions:
REMARK  status: ('A' for Active; 'I' for Inactive)
REMARK    1  A    between atoms: C_1  and  C_2
REMARK    2  A    between atoms: C_2  and  C_3
REMARK    3  A    between atoms: C_2  and  C_23
REMARK    4  A    between atoms: C_7  and  N_8
REMARK    5  A    between atoms: C_15  and  C_16
REMARK    6  A    between atoms: N_27  and  C_28
REMARK                            x       y       z     vdW  Elec       q    Type
REMARK                         _______ _______ _______ _____ _____    ______ ____
ROOT
ATOM      1  C   UNL     1       4.059   5.454  17.352  0.00  0.00    +0.000 A 
ATOM      2  C   UNL     1       3.536   4.243  17.832  0.00  0.00    +0.000 A 
ATOM      3  C   UNL     1       2.468   4.241  18.717  0.00  0.00    +0.000 A 
ATOM      4  C   UNL     1       1.913   5.448  19.141  0.00  0.00    +0.000 A 
ATOM      5  C   UNL     1       2.408   6.682  18.699  0.00  0.00    +0.000 A 
ATOM      6  C   UNL     1       3.479   6.668  17.788  0.00  0.00    +0.000 A 
ENDROOT
BRANCH   5   7
ATOM      7  N   UNL     1       1.876   7.900  19.207  0.00  0.00    +0.000 N 
ATOM      8  C   UNL     1       1.268   8.023  20.533  0.00  0.00    +0.000 C 
ATOM      9  C   UNL     1       0.753   9.432  20.548  0.00  0.00    +0.000 A 
ATOM     10  C   UNL     1       1.049  10.034  19.333  0.00  0.00    +0.000 A 
ATOM     11  C   UNL     1       0.678  11.323  19.056  0.00  0.00    +0.000 A 
ATOM     12  N   UNL     1       0.009  12.064  19.966  0.00  0.00    +0.000 NA
ATOM     13  C   UNL     1      -0.271  11.475  21.163  0.00  0.00    +0.000 A 
ATOM     14  C   UNL     1       0.075  10.166  21.512  0.00  0.00    +0.000 A 
ATOM     15  C   UNL     1       1.760   9.097  18.487  0.00  0.00    +0.000 C 
ATOM     16  O   UNL     1       2.147   9.413  17.376  0.00  0.00    +0.000 OA
BRANCH  14  17
ATOM     17  C   UNL     1      -0.291   9.662  22.868  0.00  0.00    +0.000 C 
ATOM     18  F   UNL     1      -1.105  10.504  23.558  0.00  0.00    +0.000 F 
ATOM     19  F   UNL     1      -0.940   8.468  22.816  0.00  0.00    +0.000 F 
ATOM     20  F   UNL     1       0.799   9.461  23.658  0.00  0.00    +0.000 F 
ENDBRANCH  14  17
ENDBRANCH   5   7
BRANCH   1  22
ATOM     21  C   UNL     1       5.746   3.941  16.339  0.00  0.00    +0.000 C 
ATOM     22  C   UNL     1       5.329   5.408  16.510  0.00  0.00    +0.000 C 
BRANCH  22  23
ATOM     23  C   UNL     1       6.469   6.230  17.039  0.00  0.00    +0.000 A 
ATOM     24  N   UNL     1       7.117   7.179  16.388  0.00  0.00    +0.000 NA
ATOM     25  N   UNL     1       8.032   7.744  17.240  0.00  0.00    +0.000 NA
ATOM     26  C   UNL     1       7.932   7.129  18.393  0.00  0.00    +0.000 A 
ATOM     27  N   UNL     1       6.974   6.166  18.314  0.00  0.00    +0.000 N 
ATOM     28  C   UNL     1       6.581   5.287  19.383  0.00  0.00    +0.000 C 
ENDBRANCH  22  23
ENDBRANCH   1  22
TORSDOF 4
ENDMDL
MODEL 5
REMARK VINA RESULT:      -8.4      2.185      3.555
REMARK  Name = 
REMARK  6 active torsions:
REMARK  status: ('A' for Active; 'I' for Inactive)
REMARK    1  A    between atoms: C_1  and  C_2
REMARK    2  A    between atoms: C_2  and  C_3
REMARK    3  A    between atoms: C_2  and  C_23
REMARK    4  A    between atoms: C_7  and  N_8
REMARK    5  A    between atoms: C_15  and  C_16
REMARK    6  A    between atoms: N_27  and  C_28
REMARK                            x       y       z     vdW  Elec       q    Type
REMARK                         _______ _______ _______ _____ _____    ______ ____
ROOT
ATOM      1  C   UNL     1       3.645   4.617  18.315  0.00  0.00    +0.000 A 
ATOM      2  C   UNL     1       4.562   4.903  17.292  0.00  0.00    +0.000 A 
ATOM      3  C   UNL     1       4.734   6.207  16.848  0.00  0.00    +0.000 A 
ATOM      4  C   UNL     1       3.988   7.239  17.414  0.00  0.00    +0.000 A 
ATOM      5  C   UNL     1       3.053   7.001  18.430  0.00  0.00    +0.000 A 
ATOM      6  C   UNL     1       2.902   5.678  18.882  0.00  0.00    +0.000 A 
ENDROOT
BRANCH   5   7
ATOM      7  N   UNL     1       2.248   8.060  18.936  0.00  0.00    +0.000 N 
ATOM      8  C   UNL     1       1.638   8.041  20.268  0.00  0.00    +0.000 C 
ATOM      9  C   UNL     1       0.799   9.285  20.280  0.00  0.00    +0.000 A 
ATOM     10  C   UNL     1       0.933   9.933  19.060  0.00  0.00    +0.000 A 
ATOM     11  C   UNL     1       0.261  11.093  18.780  0.00  0.00    +0.000 A 
ATOM     12  N   UNL     1      -0.560  11.658  19.692  0.00  0.00    +0.000 NA
ATOM     13  C   UNL     1      -0.681  11.026  20.895  0.00  0.00    +0.000 A 
ATOM     14  C   UNL     1      -0.028   9.841  21.246  0.00  0.00    +0.000 A 
ATOM     15  C   UNL     1       1.842   9.189  18.212  0.00  0.00    +0.000 C 
ATOM     16  O   UNL     1       2.133   9.581  17.097  0.00  0.00    +0.000 OA
BRANCH  14  17
ATOM     17  C   UNL     1      -0.252   9.273  22.608  0.00  0.00    +0.000 C 
ATOM     18  F   UNL     1       0.894   9.112  23.322  0.00  0.00    +0.000 F 
ATOM     19  F   UNL     1      -1.062  10.057  23.368  0.00  0.00    +0.000 F 
ATOM     20  F   UNL     1      -0.845   8.049  22.569  0.00  0.00    +0.000 F 
ENDBRANCH  14  17
ENDBRANCH   5   7
BRANCH   1  22
ATOM     21  C   UNL     1       2.514   2.547  17.542  0.00  0.00    +0.000 C 
ATOM     22  C   UNL     1       3.378   3.155  18.655  0.00  0.00    +0.000 C 
BRANCH  22  23
ATOM     23  C   UNL     1       2.758   2.923  20.002  0.00  0.00    +0.000 A 
ATOM     24  N   UNL     1       3.403   2.761  21.144  0.00  0.00    +0.000 NA
ATOM     25  N   UNL     1       2.481   2.656  22.155  0.00  0.00    +0.000 NA
ATOM     26  C   UNL     1       1.289   2.749  21.615  0.00  0.00    +0.000 A 
ATOM     27  N   UNL     1       1.410   2.907  20.268  0.00  0.00    +0.000 N 
ATOM     28  C   UNL     1       0.320   3.047  19.341  0.00  0.00    +0.000 C 
ENDBRANCH  22  23
ENDBRANCH   1  22
TORSDOF 4
ENDMDL
MODEL 6
REMARK VINA RESULT:      -8.4      2.237      3.518
REMARK  Name = 
REMARK  6 active torsions:
REMARK  status: ('A' for Active; 'I' for Inactive)
REMARK    1  A    between atoms: C_1  and  C_2
REMARK    2  A    between atoms: C_2  and  C_3
REMARK    3  A    between atoms: C_2  and  C_23
REMARK    4  A    between atoms: C_7  and  N_8
REMARK    5  A    between atoms: C_15  and  C_16
REMARK    6  A    between atoms: N_27  and  C_28
REMARK                            x       y       z     vdW  Elec       q    Type
REMARK                         _______ _______ _______ _____ _____    ______ ____
ROOT
ATOM      1  C   UNL     1       3.370   5.020  18.132  0.00  0.00    +0.000 A 
ATOM      2  C   UNL     1       4.330   5.348  17.164  0.00  0.00    +0.000 A 
ATOM      3  C   UNL     1       4.566   6.673  16.828  0.00  0.00    +0.000 A 
ATOM      4  C   UNL     1       3.839   7.688  17.450  0.00  0.00    +0.000 A 
ATOM      5  C   UNL     1       2.862   7.410  18.415  0.00  0.00    +0.000 A 
ATOM      6  C   UNL     1       2.647   6.063  18.757  0.00  0.00    +0.000 A 
ENDROOT
BRANCH   5   7
ATOM      7  N   UNL     1       2.080   8.458  18.977  0.00  0.00    +0.000 N 
ATOM      8  C   UNL     1       1.452   8.374  20.297  0.00  0.00    +0.000 C 
ATOM      9  C   UNL     1       0.648   9.638  20.378  0.00  0.00    +0.000 A 
ATOM     10  C   UNL     1       0.817  10.357  19.203  0.00  0.00    +0.000 A 
ATOM     11  C   UNL     1       0.182  11.552  18.989  0.00  0.00    +0.000 A 
ATOM     12  N   UNL     1      -0.635  12.082  19.924  0.00  0.00    +0.000 NA
ATOM     13  C   UNL     1      -0.791  11.379  21.083  0.00  0.00    +0.000 A 
ATOM     14  C   UNL     1      -0.176  10.156  21.367  0.00  0.00    +0.000 A 
ATOM     15  C   UNL     1       1.717   9.642  18.321  0.00  0.00    +0.000 C 
ATOM     16  O   UNL     1       2.035  10.094  17.236  0.00  0.00    +0.000 OA
BRANCH  14  17
ATOM     17  C   UNL     1      -0.435   9.510  22.687  0.00  0.00    +0.000 C 
ATOM     18  F   UNL     1      -0.976   8.267  22.585  0.00  0.00    +0.000 F 
ATOM     19  F   UNL     1       0.700   9.368  23.423  0.00  0.00    +0.000 F 
ATOM     20  F   UNL     1      -1.293  10.231  23.459  0.00  0.00    +0.000 F 
ENDBRANCH  14  17
ENDBRANCH   5   7
BRANCH   1  22
ATOM     21  C   UNL     1       2.080   3.097  17.237  0.00  0.00    +0.000 C 
ATOM     22  C   UNL     1       3.036   3.548  18.350  0.00  0.00    +0.000 C 
BRANCH  22  23
ATOM     23  C   UNL     1       2.478   3.219  19.703  0.00  0.00    +0.000 A 
ATOM     24  N   UNL     1       1.245   3.450  20.118  0.00  0.00    +0.000 NA
ATOM     25  N   UNL     1       1.107   2.933  21.382  0.00  0.00    +0.000 NA
ATOM     26  C   UNL     1       2.256   2.399  21.719  0.00  0.00    +0.000 A 
ATOM     27  N   UNL     1       3.149   2.562  20.706  0.00  0.00    +0.000 N 
ATOM     28  C   UNL     1       4.512   2.105  20.710  0.00  0.00    +0.000 C 
ENDBRANCH  22  23
ENDBRANCH   1  22
TORSDOF 4
ENDMDL
MODEL 7
REMARK VINA RESULT:      -8.3      3.961      8.529
REMARK  Name = 
REMARK  6 active torsions:
REMARK  status: ('A' for Active; 'I' for Inactive)
REMARK    1  A    between atoms: C_1  and  C_2
REMARK    2  A    between atoms: C_2  and  C_3
REMARK    3  A    between atoms: C_2  and  C_23
REMARK    4  A    between atoms: C_7  and  N_8
REMARK    5  A    between atoms: C_15  and  C_16
REMARK    6  A    between atoms: N_27  and  C_28
REMARK                            x       y       z     vdW  Elec       q    Type
REMARK                         _______ _______ _______ _____ _____    ______ ____
ROOT
ATOM      1  C   UNL     1       0.499  10.316  19.562  0.00  0.00    +0.000 A 
ATOM      2  C   UNL     1       0.136  10.236  20.915  0.00  0.00    +0.000 A 
ATOM      3  C   UNL     1       0.542   9.158  21.689  0.00  0.00    +0.000 A 
ATOM      4  C   UNL     1       1.309   8.143  21.119  0.00  0.00    +0.000 A 
ATOM      5  C   UNL     1       1.686   8.171  19.771  0.00  0.00    +0.000 A 
ATOM      6  C   UNL     1       1.282   9.280  19.003  0.00  0.00    +0.000 A 
ENDROOT
BRANCH   5   7
ATOM      7  N   UNL     1       2.401   7.085  19.194  0.00  0.00    +0.000 N 
ATOM      8  C   UNL     1       3.382   7.247  18.119  0.00  0.00    +0.000 C 
ATOM      9  C   UNL     1       3.750   5.834  17.773  0.00  0.00    +0.000 A 
ATOM     10  C   UNL     1       3.032   4.967  18.585  0.00  0.00    +0.000 A 
ATOM     11  C   UNL     1       3.154   3.607  18.477  0.00  0.00    +0.000 A 
ATOM     12  N   UNL     1       3.988   3.054  17.570  0.00  0.00    +0.000 NA
ATOM     13  C   UNL     1       4.701   3.907  16.780  0.00  0.00    +0.000 A 
ATOM     14  C   UNL     1       4.625   5.302  16.835  0.00  0.00    +0.000 A 
ATOM     15  C   UNL     1       2.194   5.730  19.488  0.00  0.00    +0.000 C 
ATOM     16  O   UNL     1       1.489   5.181  20.315  0.00  0.00    +0.000 OA
BRANCH  14  17
ATOM     17  C   UNL     1       5.477   6.107  15.911  0.00  0.00    +0.000 C 
ATOM     18  F   UNL     1       6.426   6.841  16.551  0.00  0.00    +0.000 F 
ATOM     19  F   UNL     1       6.143   5.329  15.016  0.00  0.00    +0.000 F 
ATOM     20  F   UNL     1       4.752   6.990  15.173  0.00  0.00    +0.000 F 
ENDBRANCH  14  17
ENDBRANCH   5   7
BRANCH   1  22
ATOM     21  C   UNL     1       0.507  12.767  19.172  0.00  0.00    +0.000 C 
ATOM     22  C   UNL     1      -0.103  11.434  18.718  0.00  0.00    +0.000 C 
BRANCH  22  23
ATOM     23  C   UNL     1      -1.602  11.499  18.731  0.00  0.00    +0.000 A 
ATOM     24  N   UNL     1      -2.346  12.266  19.508  0.00  0.00    +0.000 NA
ATOM     25  N   UNL     1      -3.662  12.093  19.160  0.00  0.00    +0.000 NA
ATOM     26  C   UNL     1      -3.702  11.221  18.181  0.00  0.00    +0.000 A 
ATOM     27  N   UNL     1      -2.438  10.812  17.884  0.00  0.00    +0.000 N 
ATOM     28  C   UNL     1      -2.084   9.863  16.863  0.00  0.00    +0.000 C 
ENDBRANCH  22  23
ENDBRANCH   1  22
TORSDOF 4
ENDMDL
MODEL 8
REMARK VINA RESULT:      -8.2      1.459      2.159
REMARK  Name = 
REMARK  6 active torsions:
REMARK  status: ('A' for Active; 'I' for Inactive)
REMARK    1  A    between atoms: C_1  and  C_2
REMARK    2  A    between atoms: C_2  and  C_3
REMARK    3  A    between atoms: C_2  and  C_23
REMARK    4  A    between atoms: C_7  and  N_8
REMARK    5  A    between atoms: C_15  and  C_16
REMARK    6  A    between atoms: N_27  and  C_28
REMARK                            x       y       z     vdW  Elec       q    Type
REMARK                         _______ _______ _______ _____ _____    ______ ____
ROOT
ATOM      1  C   UNL     1       3.045   3.954  18.625  0.00  0.00    +0.000 A 
ATOM      2  C   UNL     1       2.623   3.062  19.623  0.00  0.00    +0.000 A 
ATOM      3  C   UNL     1       1.880   3.516  20.703  0.00  0.00    +0.000 A 
ATOM      4  C   UNL     1       1.556   4.868  20.805  0.00  0.00    +0.000 A 
ATOM      5  C   UNL     1       1.963   5.799  19.840  0.00  0.00    +0.000 A 
ATOM      6  C   UNL     1       2.700   5.320  18.742  0.00  0.00    +0.000 A 
ENDROOT
BRANCH   5   7
ATOM      7  N   UNL     1       1.686   7.184  20.007  0.00  0.00    +0.000 N 
ATOM      8  C   UNL     1       1.011   7.734  21.184  0.00  0.00    +0.000 C 
ATOM      9  C   UNL     1       0.837   9.184  20.836  0.00  0.00    +0.000 A 
ATOM     10  C   UNL     1       1.369   9.413  19.575  0.00  0.00    +0.000 A 
ATOM     11  C   UNL     1       1.333  10.650  18.989  0.00  0.00    +0.000 A 
ATOM     12  N   UNL     1       0.778  11.704  19.625  0.00  0.00    +0.000 NA
ATOM     13  C   UNL     1       0.266  11.480  20.869  0.00  0.00    +0.000 A 
ATOM     14  C   UNL     1       0.267  10.245  21.525  0.00  0.00    +0.000 A 
ATOM     15  C   UNL     1       1.915   8.179  19.047  0.00  0.00    +0.000 C 
ATOM     16  O   UNL     1       2.459   8.141  17.958  0.00  0.00    +0.000 OA
BRANCH  14  17
ATOM     17  C   UNL     1      -0.323  10.157  22.893  0.00  0.00    +0.000 C 
ATOM     18  F   UNL     1      -1.396   9.326  22.967  0.00  0.00    +0.000 F 
ATOM     19  F   UNL     1       0.571   9.700  23.811  0.00  0.00    +0.000 F 
ATOM     20  F   UNL     1      -0.749  11.364  23.354  0.00  0.00    +0.000 F 
ENDBRANCH  14  17
ENDBRANCH   5   7
BRANCH   1  22
ATOM     21  C   UNL     1       3.995   1.902  17.601  0.00  0.00    +0.000 C 
ATOM     22  C   UNL     1       3.990   3.436  17.547  0.00  0.00    +0.000 C 
BRANCH  22  23
ATOM     23  C   UNL     1       5.388   3.980  17.617  0.00  0.00    +0.000 A 
ATOM     24  N   UNL     1       6.065   4.258  18.716  0.00  0.00    +0.000 NA
ATOM     25  N   UNL     1       7.329   4.657  18.360  0.00  0.00    +0.000 NA
ATOM     26  C   UNL     1       7.402   4.620  17.052  0.00  0.00    +0.000 A 
ATOM     27  N   UNL     1       6.208   4.212  16.540  0.00  0.00    +0.000 N 
ATOM     28  C   UNL     1       5.909   4.047  15.143  0.00  0.00    +0.000 C 
ENDBRANCH  22  23
ENDBRANCH   1  22
TORSDOF 4
ENDMDL
MODEL 9
REMARK VINA RESULT:      -8.2      2.227      2.668
REMARK  Name = 
REMARK  6 active torsions:
REMARK  status: ('A' for Active; 'I' for Inactive)
REMARK    1  A    between atoms: C_1  and  C_2
REMARK    2  A    between atoms: C_2  and  C_3
REMARK    3  A    between atoms: C_2  and  C_23
REMARK    4  A    between atoms: C_7  and  N_8
REMARK    5  A    between atoms: C_15  and  C_16
REMARK    6  A    between atoms: N_27  and  C_28
REMARK                            x       y       z     vdW  Elec       q    Type
REMARK                         _______ _______ _______ _____ _____    ______ ____
ROOT
ATOM      1  C   UNL     1       4.424   5.312  17.051  0.00  0.00    +0.000 A 
ATOM      2  C   UNL     1       3.672   4.147  16.835  0.00  0.00    +0.000 A 
ATOM      3  C   UNL     1       2.373   4.052  17.312  0.00  0.00    +0.000 A 
ATOM      4  C   UNL     1       1.810   5.114  18.017  0.00  0.00    +0.000 A 
ATOM      5  C   UNL     1       2.524   6.293  18.267  0.00  0.00    +0.000 A 
ATOM      6  C   UNL     1       3.835   6.383  17.762  0.00  0.00    +0.000 A 
ENDROOT
BRANCH   5   7
ATOM      7  N   UNL     1       1.956   7.332  19.057  0.00  0.00    +0.000 N 
ATOM      8  C   UNL     1       1.760   8.698  18.568  0.00  0.00    +0.000 C 
ATOM      9  C   UNL     1       1.268   9.431  19.782  0.00  0.00    +0.000 A 
ATOM     10  C   UNL     1       1.200   8.545  20.848  0.00  0.00    +0.000 A 
ATOM     11  C   UNL     1       0.799   8.945  22.095  0.00  0.00    +0.000 A 
ATOM     12  N   UNL     1       0.446  10.226  22.335  0.00  0.00    +0.000 NA
ATOM     13  C   UNL     1       0.503  11.093  21.283  0.00  0.00    +0.000 A 
ATOM     14  C   UNL     1       0.903  10.755  19.987  0.00  0.00    +0.000 A 
ATOM     15  C   UNL     1       1.615   7.227  20.412  0.00  0.00    +0.000 C 
ATOM     16  O   UNL     1       1.613   6.277  21.174  0.00  0.00    +0.000 OA
BRANCH  14  17
ATOM     17  C   UNL     1       0.903  11.812  18.934  0.00  0.00    +0.000 C 
ATOM     18  F   UNL     1      -0.184  11.764  18.118  0.00  0.00    +0.000 F 
ATOM     19  F   UNL     1       0.921  13.065  19.463  0.00  0.00    +0.000 F 
ATOM     20  F   UNL     1       1.989  11.734  18.119  0.00  0.00    +0.000 F 
ENDBRANCH  14  17
ENDBRANCH   5   7
BRANCH   1  22
ATOM     21  C   UNL     1       6.189   4.000  15.900  0.00  0.00    +0.000 C 
ATOM     22  C   UNL     1       5.895   5.307  16.648  0.00  0.00    +0.000 C 
BRANCH  22  23
ATOM     23  C   UNL     1       6.861   5.506  17.780  0.00  0.00    +0.000 A 
ATOM     24  N   UNL     1       7.268   4.584  18.633  0.00  0.00    +0.000 NA
ATOM     25  N   UNL     1       8.207   5.142  19.463  0.00  0.00    +0.000 NA
ATOM     26  C   UNL     1       8.355   6.395  19.107  0.00  0.00    +0.000 A 
ATOM     27  N   UNL     1       7.526   6.674  18.065  0.00  0.00    +0.000 N 
ATOM     28  C   UNL     1       7.412   7.946  17.403  0.00  0.00    +0.000 C 
ENDBRANCH  22  23
ENDBRANCH   1  22
TORSDOF 4
ENDMDL
