MODEL 1
REMARK VINA RESULT:      -8.7      0.000      0.000
REMARK  Name = 
REMARK  4 active torsions:
REMARK  status: ('A' for Active; 'I' for Inactive)
REMARK    1  A    between atoms: C_8  and  N_9
REMARK    2  A    between atoms: N_9  and  C_10
REMARK    3  A    between atoms: C_10  and  C_11
REMARK    4  A    between atoms: N_15  and  C_16
REMARK                            x       y       z     vdW  Elec       q    Type
REMARK                         _______ _______ _______ _____ _____    ______ ____
ROOT
ATOM      1  N   UNL     1       4.070   7.100  17.504  0.00  0.00    +0.000 N 
ATOM      2  H   UNL     1       3.558   7.952  17.282  0.00  0.00    +0.000 HD
ENDROOT
BRANCH   1  10
ATOM      3  O   UNL     1       2.112   1.982  17.427  0.00  0.00    +0.000 OA
ATOM      4  C   UNL     1       1.835   2.682  18.380  0.00  0.00    +0.000 C 
ATOM      5  N   UNL     1       1.050   2.330  19.461  0.00  0.00    +0.000 N 
ATOM      6  C   UNL     1       0.915   3.395  20.427  0.00  0.00    +0.000 C 
ATOM      7  C   UNL     1       1.702   4.495  19.800  0.00  0.00    +0.000 A 
ATOM      8  C   UNL     1       1.937   5.779  20.240  0.00  0.00    +0.000 A 
ATOM      9  C   UNL     1       2.719   6.616  19.431  0.00  0.00    +0.000 A 
ATOM     10  C   UNL     1       3.257   6.193  18.189  0.00  0.00    +0.000 A 
ATOM     11  C   UNL     1       3.040   4.872  17.787  0.00  0.00    +0.000 A 
ATOM     12  C   UNL     1       2.252   4.068  18.593  0.00  0.00    +0.000 A 
ATOM     13  H   UNL     1       0.628   1.414  19.533  0.00  0.00    +0.000 HD
ENDBRANCH   1  10
BRANCH   1  14
ATOM     14  C   UNL     1       4.950   6.678  16.415  0.00  0.00    +0.000 C 
BRANCH  14  15
ATOM     15  C   UNL     1       6.219   6.026  16.874  0.00  0.00    +0.000 A 
ATOM     16  N   UNL     1       6.746   6.149  18.081  0.00  0.00    +0.000 NA
ATOM     17  C   UNL     1       7.708   5.190  18.102  0.00  0.00    +0.000 A 
ATOM     18  N   UNL     1       7.797   4.449  17.002  0.00  0.00    +0.000 NA
ATOM     19  N   UNL     1       6.931   5.073  16.159  0.00  0.00    +0.000 N 
BRANCH  19  20
ATOM     20  C   UNL     1       6.908   4.722  14.786  0.00  0.00    +0.000 A 
ATOM     21  C   UNL     1       7.761   5.392  13.895  0.00  0.00    +0.000 A 
ATOM     22  C   UNL     1       7.719   5.100  12.531  0.00  0.00    +0.000 A 
ATOM     23  C   UNL     1       6.804   4.169  12.046  0.00  0.00    +0.000 A 
ATOM     24  C   UNL     1       5.941   3.514  12.924  0.00  0.00    +0.000 A 
ATOM     25  C   UNL     1       5.998   3.779  14.295  0.00  0.00    +0.000 A 
ENDBRANCH  19  20
ENDBRANCH  14  15
ENDBRANCH   1  14
TORSDOF 4
ENDMDL
MODEL 2
REMARK VINA RESULT:      -8.6      0.140      1.018
REMARK  Name = 
REMARK  4 active torsions:
REMARK  status: ('A' for Active; 'I' for Inactive)
REMARK    1  A    between atoms: C_8  and  N_9
REMARK    2  A    between atoms: N_9  and  C_10
REMARK    3  A    between atoms: C_10  and  C_11
REMARK    4  A    between atoms: N_15  and  C_16
REMARK                            x       y       z     vdW  Elec       q    Type
REMARK                         _______ _______ _______ _____ _____    ______ ____
ROOT
ATOM      1  N   UNL     1       4.051   7.045  17.587  0.00  0.00    +0.000 N 
ATOM      2  H   UNL     1       3.525   7.897  17.403  0.00  0.00    +0.000 HD
ENDROOT
BRANCH   1  10
ATOM      3  O   UNL     1       2.331   1.841  17.544  0.00  0.00    +0.000 OA
ATOM      4  C   UNL     1       2.002   2.541  18.481  0.00  0.00    +0.000 C 
ATOM      5  N   UNL     1       1.210   2.167  19.550  0.00  0.00    +0.000 N 
ATOM      6  C   UNL     1       1.005   3.238  20.497  0.00  0.00    +0.000 C 
ATOM      7  C   UNL     1       1.755   4.364  19.871  0.00  0.00    +0.000 A 
ATOM      8  C   UNL     1       1.921   5.664  20.297  0.00  0.00    +0.000 A 
ATOM      9  C   UNL     1       2.682   6.524  19.493  0.00  0.00    +0.000 A 
ATOM     10  C   UNL     1       3.266   6.110  18.268  0.00  0.00    +0.000 A 
ATOM     11  C   UNL     1       3.118   4.776  17.881  0.00  0.00    +0.000 A 
ATOM     12  C   UNL     1       2.350   3.947  18.682  0.00  0.00    +0.000 A 
ATOM     13  H   UNL     1       0.830   1.234  19.627  0.00  0.00    +0.000 HD
ENDBRANCH   1  10
BRANCH   1  14
ATOM     14  C   UNL     1       4.904   6.662  16.463  0.00  0.00    +0.000 C 
BRANCH  14  15
ATOM     15  C   UNL     1       6.192   6.012  16.868  0.00  0.00    +0.000 A 
ATOM     16  N   UNL     1       6.743   6.094  18.068  0.00  0.00    +0.000 NA
ATOM     17  C   UNL     1       7.719   5.150  18.030  0.00  0.00    +0.000 A 
ATOM     18  N   UNL     1       7.796   4.456  16.899  0.00  0.00    +0.000 NA
ATOM     19  N   UNL     1       6.903   5.100  16.101  0.00  0.00    +0.000 N 
BRANCH  19  20
ATOM     20  C   UNL     1       6.856   4.804  14.715  0.00  0.00    +0.000 A 
ATOM     21  C   UNL     1       5.957   3.829  14.255  0.00  0.00    +0.000 A 
ATOM     22  C   UNL     1       5.930   3.484  12.903  0.00  0.00    +0.000 A 
ATOM     23  C   UNL     1       6.821   4.080  12.013  0.00  0.00    +0.000 A 
ATOM     24  C   UNL     1       7.729   5.035  12.469  0.00  0.00    +0.000 A 
ATOM     25  C   UNL     1       7.742   5.408  13.816  0.00  0.00    +0.000 A 
ENDBRANCH  19  20
ENDBRANCH  14  15
ENDBRANCH   1  14
TORSDOF 4
ENDMDL
MODEL 3
REMARK VINA RESULT:      -8.6      2.338      4.211
REMARK  Name = 
REMARK  4 active torsions:
REMARK  status: ('A' for Active; 'I' for Inactive)
REMARK    1  A    between atoms: C_8  and  N_9
REMARK    2  A    between atoms: N_9  and  C_10
REMARK    3  A    between atoms: C_10  and  C_11
REMARK    4  A    between atoms: N_15  and  C_16
REMARK                            x       y       z     vdW  Elec       q    Type
REMARK                         _______ _______ _______ _____ _____    ______ ____
ROOT
ATOM      1  N   UNL     1       4.922   2.799  16.792  0.00  0.00    +0.000 N 
ATOM      2  H   UNL     1       5.513   2.020  17.077  0.00  0.00    +0.000 HD
ENDROOT
BRANCH   1  10
ATOM      3  O   UNL     1       3.195   2.112  21.948  0.00  0.00    +0.000 OA
ATOM      4  C   UNL     1       2.416   2.586  21.146  0.00  0.00    +0.000 C 
ATOM      5  N   UNL     1       1.109   2.963  21.390  0.00  0.00    +0.000 N 
ATOM      6  C   UNL     1       0.450   3.493  20.219  0.00  0.00    +0.000 C 
ATOM      7  C   UNL     1       1.510   3.378  19.178  0.00  0.00    +0.000 A 
ATOM      8  C   UNL     1       1.480   3.712  17.842  0.00  0.00    +0.000 A 
ATOM      9  C   UNL     1       2.637   3.485  17.083  0.00  0.00    +0.000 A 
ATOM     10  C   UNL     1       3.815   2.920  17.636  0.00  0.00    +0.000 A 
ATOM     11  C   UNL     1       3.834   2.631  19.003  0.00  0.00    +0.000 A 
ATOM     12  C   UNL     1       2.675   2.848  19.730  0.00  0.00    +0.000 A 
ATOM     13  H   UNL     1       0.691   2.861  22.304  0.00  0.00    +0.000 HD
ENDBRANCH   1  10
BRANCH   1  14
ATOM     14  C   UNL     1       5.699   3.963  16.366  0.00  0.00    +0.000 C 
BRANCH  14  15
ATOM     15  C   UNL     1       6.432   4.646  17.481  0.00  0.00    +0.000 A 
ATOM     16  N   UNL     1       7.674   4.385  17.851  0.00  0.00    +0.000 NA
ATOM     17  C   UNL     1       7.975   5.411  18.687  0.00  0.00    +0.000 A 
ATOM     18  N   UNL     1       7.018   6.321  18.841  0.00  0.00    +0.000 NA
ATOM     19  N   UNL     1       5.975   5.760  18.172  0.00  0.00    +0.000 N 
BRANCH  19  20
ATOM     20  C   UNL     1       4.677   6.318  18.296  0.00  0.00    +0.000 A 
ATOM     21  C   UNL     1       4.190   7.146  17.272  0.00  0.00    +0.000 A 
ATOM     22  C   UNL     1       2.937   7.749  17.397  0.00  0.00    +0.000 A 
ATOM     23  C   UNL     1       2.184   7.560  18.553  0.00  0.00    +0.000 A 
ATOM     24  C   UNL     1       2.673   6.753  19.580  0.00  0.00    +0.000 A 
ATOM     25  C   UNL     1       3.912   6.122  19.451  0.00  0.00    +0.000 A 
ENDBRANCH  19  20
ENDBRANCH  14  15
ENDBRANCH   1  14
TORSDOF 4
ENDMDL
MODEL 4
REMARK VINA RESULT:      -8.5      2.333      4.247
REMARK  Name = 
REMARK  4 active torsions:
REMARK  status: ('A' for Active; 'I' for Inactive)
REMARK    1  A    between atoms: C_8  and  N_9
REMARK    2  A    between atoms: N_9  and  C_10
REMARK    3  A    between atoms: C_10  and  C_11
REMARK    4  A    between atoms: N_15  and  C_16
REMARK                            x       y       z     vdW  Elec       q    Type
REMARK                         _______ _______ _______ _____ _____    ______ ____
ROOT
ATOM      1  N   UNL     1       4.924   2.831  16.770  0.00  0.00    +0.000 N 
ATOM      2  H   UNL     1       5.517   2.049  17.042  0.00  0.00    +0.000 HD
ENDROOT
BRANCH   1  10
ATOM      3  O   UNL     1       3.229   2.117  21.933  0.00  0.00    +0.000 OA
ATOM      4  C   UNL     1       2.441   2.584  21.135  0.00  0.00    +0.000 C 
ATOM      5  N   UNL     1       1.131   2.947  21.386  0.00  0.00    +0.000 N 
ATOM      6  C   UNL     1       0.461   3.472  20.220  0.00  0.00    +0.000 C 
ATOM      7  C   UNL     1       1.517   3.370  19.173  0.00  0.00    +0.000 A 
ATOM      8  C   UNL     1       1.477   3.705  17.838  0.00  0.00    +0.000 A 
ATOM      9  C   UNL     1       2.633   3.492  17.073  0.00  0.00    +0.000 A 
ATOM     10  C   UNL     1       3.819   2.939  17.620  0.00  0.00    +0.000 A 
ATOM     11  C   UNL     1       3.847   2.647  18.986  0.00  0.00    +0.000 A 
ATOM     12  C   UNL     1       2.690   2.851  19.718  0.00  0.00    +0.000 A 
ATOM     13  H   UNL     1       0.718   2.839  22.302  0.00  0.00    +0.000 HD
ENDBRANCH   1  10
BRANCH   1  14
ATOM     14  C   UNL     1       5.698   4.001  16.357  0.00  0.00    +0.000 C 
BRANCH  14  15
ATOM     15  C   UNL     1       6.453   4.656  17.473  0.00  0.00    +0.000 A 
ATOM     16  N   UNL     1       7.685   4.350  17.844  0.00  0.00    +0.000 NA
ATOM     17  C   UNL     1       8.022   5.363  18.682  0.00  0.00    +0.000 A 
ATOM     18  N   UNL     1       7.097   6.306  18.837  0.00  0.00    +0.000 NA
ATOM     19  N   UNL     1       6.035   5.784  18.166  0.00  0.00    +0.000 N 
BRANCH  19  20
ATOM     20  C   UNL     1       4.759   6.388  18.290  0.00  0.00    +0.000 A 
ATOM     21  C   UNL     1       3.988   6.127  19.434  0.00  0.00    +0.000 A 
ATOM     22  C   UNL     1       2.707   6.668  19.553  0.00  0.00    +0.000 A 
ATOM     23  C   UNL     1       2.176   7.437  18.521  0.00  0.00    +0.000 A 
ATOM     24  C   UNL     1       2.931   7.683  17.374  0.00  0.00    +0.000 A 
ATOM     25  C   UNL     1       4.225   7.170  17.260  0.00  0.00    +0.000 A 
ENDBRANCH  19  20
ENDBRANCH  14  15
ENDBRANCH   1  14
TORSDOF 4
ENDMDL
MODEL 5
REMARK VINA RESULT:      -8.5      2.872      6.686
REMARK  Name = 
REMARK  4 active torsions:
REMARK  status: ('A' for Active; 'I' for Inactive)
REMARK    1  A    between atoms: C_8  and  N_9
REMARK    2  A    between atoms: N_9  and  C_10
REMARK    3  A    between atoms: C_10  and  C_11
REMARK    4  A    between atoms: N_15  and  C_16
REMARK                            x       y       z     vdW  Elec       q    Type
REMARK                         _______ _______ _______ _____ _____    ______ ____
ROOT
ATOM      1  N   UNL     1       3.845   3.033  17.541  0.00  0.00    +0.000 N 
ATOM      2  H   UNL     1       3.993   2.443  16.724  0.00  0.00    +0.000 HD
ENDROOT
BRANCH   1  10
ATOM      3  O   UNL     1       7.863   5.340  20.470  0.00  0.00    +0.000 OA
ATOM      4  C   UNL     1       7.605   5.818  19.383  0.00  0.00    +0.000 C 
ATOM      5  N   UNL     1       8.213   6.913  18.799  0.00  0.00    +0.000 N 
ATOM      6  C   UNL     1       7.672   7.227  17.498  0.00  0.00    +0.000 C 
ATOM      7  C   UNL     1       6.609   6.195  17.337  0.00  0.00    +0.000 A 
ATOM      8  C   UNL     1       5.728   5.982  16.299  0.00  0.00    +0.000 A 
ATOM      9  C   UNL     1       4.815   4.926  16.421  0.00  0.00    +0.000 A 
ATOM     10  C   UNL     1       4.761   4.090  17.565  0.00  0.00    +0.000 A 
ATOM     11  C   UNL     1       5.693   4.299  18.585  0.00  0.00    +0.000 A 
ATOM     12  C   UNL     1       6.576   5.357  18.451  0.00  0.00    +0.000 A 
ATOM     13  H   UNL     1       8.954   7.418  19.266  0.00  0.00    +0.000 HD
ENDBRANCH   1  10
BRANCH   1  14
ATOM     14  C   UNL     1       2.427   3.234  17.836  0.00  0.00    +0.000 C 
BRANCH  14  15
ATOM     15  C   UNL     1       2.111   3.287  19.300  0.00  0.00    +0.000 A 
ATOM     16  N   UNL     1       1.915   2.235  20.077  0.00  0.00    +0.000 NA
ATOM     17  C   UNL     1       1.933   2.761  21.329  0.00  0.00    +0.000 A 
ATOM     18  N   UNL     1       2.162   4.070  21.393  0.00  0.00    +0.000 NA
ATOM     19  N   UNL     1       2.143   4.433  20.083  0.00  0.00    +0.000 N 
BRANCH  19  20
ATOM     20  C   UNL     1       2.120   5.807  19.733  0.00  0.00    +0.000 A 
ATOM     21  C   UNL     1       1.689   6.746  20.684  0.00  0.00    +0.000 A 
ATOM     22  C   UNL     1       1.608   8.097  20.346  0.00  0.00    +0.000 A 
ATOM     23  C   UNL     1       1.918   8.513  19.053  0.00  0.00    +0.000 A 
ATOM     24  C   UNL     1       2.328   7.580  18.100  0.00  0.00    +0.000 A 
ATOM     25  C   UNL     1       2.441   6.230  18.439  0.00  0.00    +0.000 A 
ENDBRANCH  19  20
ENDBRANCH  14  15
ENDBRANCH   1  14
TORSDOF 4
ENDMDL
MODEL 6
REMARK VINA RESULT:      -8.4      1.581      3.436
REMARK  Name = 
REMARK  4 active torsions:
REMARK  status: ('A' for Active; 'I' for Inactive)
REMARK    1  A    between atoms: C_8  and  N_9
REMARK    2  A    between atoms: N_9  and  C_10
REMARK    3  A    between atoms: C_10  and  C_11
REMARK    4  A    between atoms: N_15  and  C_16
REMARK                            x       y       z     vdW  Elec       q    Type
REMARK                         _______ _______ _______ _____ _____    ______ ____
ROOT
ATOM      1  N   UNL     1       4.200   4.891  16.239  0.00  0.00    +0.000 N 
ATOM      2  H   UNL     1       3.631   5.490  15.643  0.00  0.00    +0.000 HD
ENDROOT
BRANCH   1  10
ATOM      3  O   UNL     1       0.212   2.105  18.763  0.00  0.00    +0.000 OA
ATOM      4  C   UNL     1       0.927   2.815  19.442  0.00  0.00    +0.000 C 
ATOM      5  N   UNL     1       0.832   3.017  20.806  0.00  0.00    +0.000 N 
ATOM      6  C   UNL     1       1.836   3.924  21.309  0.00  0.00    +0.000 C 
ATOM      7  C   UNL     1       2.574   4.301  20.071  0.00  0.00    +0.000 A 
ATOM      8  C   UNL     1       3.642   5.155  19.900  0.00  0.00    +0.000 A 
ATOM      9  C   UNL     1       4.138   5.332  18.601  0.00  0.00    +0.000 A 
ATOM     10  C   UNL     1       3.578   4.680  17.473  0.00  0.00    +0.000 A 
ATOM     11  C   UNL     1       2.524   3.786  17.679  0.00  0.00    +0.000 A 
ATOM     12  C   UNL     1       2.039   3.638  18.968  0.00  0.00    +0.000 A 
ATOM     13  H   UNL     1       0.120   2.562  21.360  0.00  0.00    +0.000 HD
ENDBRANCH   1  10
BRANCH   1  14
ATOM     14  C   UNL     1       4.830   3.801  15.496  0.00  0.00    +0.000 C 
BRANCH  14  15
ATOM     15  C   UNL     1       6.070   4.205  14.757  0.00  0.00    +0.000 A 
ATOM     16  N   UNL     1       6.336   3.912  13.495  0.00  0.00    +0.000 NA
ATOM     17  C   UNL     1       7.405   4.699  13.208  0.00  0.00    +0.000 A 
ATOM     18  N   UNL     1       7.809   5.493  14.195  0.00  0.00    +0.000 NA
ATOM     19  N   UNL     1       7.036   5.080  15.236  0.00  0.00    +0.000 N 
BRANCH  19  20
ATOM     20  C   UNL     1       7.325   5.528  16.549  0.00  0.00    +0.000 A 
ATOM     21  C   UNL     1       7.400   6.907  16.799  0.00  0.00    +0.000 A 
ATOM     22  C   UNL     1       7.735   7.371  18.072  0.00  0.00    +0.000 A 
ATOM     23  C   UNL     1       8.033   6.466  19.088  0.00  0.00    +0.000 A 
ATOM     24  C   UNL     1       7.979   5.095  18.839  0.00  0.00    +0.000 A 
ATOM     25  C   UNL     1       7.615   4.622  17.576  0.00  0.00    +0.000 A 
ENDBRANCH  19  20
ENDBRANCH  14  15
ENDBRANCH   1  14
TORSDOF 4
ENDMDL
MODEL 7
REMARK VINA RESULT:      -8.3      2.865      6.655
REMARK  Name = 
REMARK  4 active torsions:
REMARK  status: ('A' for Active; 'I' for Inactive)
REMARK    1  A    between atoms: C_8  and  N_9
REMARK    2  A    between atoms: N_9  and  C_10
REMARK    3  A    between atoms: C_10  and  C_11
REMARK    4  A    between atoms: N_15  and  C_16
REMARK                            x       y       z     vdW  Elec       q    Type
REMARK                         _______ _______ _______ _____ _____    ______ ____
ROOT
ATOM      1  N   UNL     1       4.003   2.970  17.480  0.00  0.00    +0.000 N 
ATOM      2  H   UNL     1       4.226   2.351  16.702  0.00  0.00    +0.000 HD
ENDROOT
BRANCH   1  10
ATOM      3  O   UNL     1       7.911   5.383  20.471  0.00  0.00    +0.000 OA
ATOM      4  C   UNL     1       7.650   5.861  19.385  0.00  0.00    +0.000 C 
ATOM      5  N   UNL     1       8.228   6.979  18.816  0.00  0.00    +0.000 N 
ATOM      6  C   UNL     1       7.692   7.285  17.511  0.00  0.00    +0.000 C 
ATOM      7  C   UNL     1       6.664   6.220  17.331  0.00  0.00    +0.000 A 
ATOM      8  C   UNL     1       5.803   5.988  16.282  0.00  0.00    +0.000 A 
ATOM      9  C   UNL     1       4.922   4.902  16.385  0.00  0.00    +0.000 A 
ATOM     10  C   UNL     1       4.883   4.055  17.522  0.00  0.00    +0.000 A 
ATOM     11  C   UNL     1       5.797   4.286  18.554  0.00  0.00    +0.000 A 
ATOM     12  C   UNL     1       6.646   5.374  18.438  0.00  0.00    +0.000 A 
ATOM     13  H   UNL     1       8.947   7.505  19.294  0.00  0.00    +0.000 HD
ENDBRANCH   1  10
BRANCH   1  14
ATOM     14  C   UNL     1       2.562   3.137  17.666  0.00  0.00    +0.000 C 
BRANCH  14  15
ATOM     15  C   UNL     1       2.129   3.133  19.101  0.00  0.00    +0.000 A 
ATOM     16  N   UNL     1       1.908   2.050  19.828  0.00  0.00    +0.000 NA
ATOM     17  C   UNL     1       1.808   2.537  21.092  0.00  0.00    +0.000 A 
ATOM     18  N   UNL     1       1.985   3.849  21.213  0.00  0.00    +0.000 NA
ATOM     19  N   UNL     1       2.058   4.253  19.917  0.00  0.00    +0.000 N 
BRANCH  19  20
ATOM     20  C   UNL     1       2.014   5.636  19.607  0.00  0.00    +0.000 A 
ATOM     21  C   UNL     1       2.363   6.058  18.314  0.00  0.00    +0.000 A 
ATOM     22  C   UNL     1       2.378   7.418  18.002  0.00  0.00    +0.000 A 
ATOM     23  C   UNL     1       2.083   8.362  18.983  0.00  0.00    +0.000 A 
ATOM     24  C   UNL     1       1.754   7.948  20.273  0.00  0.00    +0.000 A 
ATOM     25  C   UNL     1       1.708   6.588  20.586  0.00  0.00    +0.000 A 
ENDBRANCH  19  20
ENDBRANCH  14  15
ENDBRANCH   1  14
TORSDOF 4
ENDMDL
MODEL 8
REMARK VINA RESULT:      -8.1      1.280      2.031
REMARK  Name = 
REMARK  4 active torsions:
REMARK  status: ('A' for Active; 'I' for Inactive)
REMARK    1  A    between atoms: C_8  and  N_9
REMARK    2  A    between atoms: N_9  and  C_10
REMARK    3  A    between atoms: C_10  and  C_11
REMARK    4  A    between atoms: N_15  and  C_16
REMARK                            x       y       z     vdW  Elec       q    Type
REMARK                         _______ _______ _______ _____ _____    ______ ____
ROOT
ATOM      1  N   UNL     1       4.148   6.731  17.627  0.00  0.00    +0.000 N 
ATOM      2  H   UNL     1       3.438   7.445  17.476  0.00  0.00    +0.000 HD
ENDROOT
BRANCH   1  10
ATOM      3  O   UNL     1       2.274   4.020  22.006  0.00  0.00    +0.000 OA
ATOM      4  C   UNL     1       2.156   3.493  20.918  0.00  0.00    +0.000 C 
ATOM      5  N   UNL     1       1.606   2.252  20.659  0.00  0.00    +0.000 N 
ATOM      6  C   UNL     1       1.617   1.917  19.254  0.00  0.00    +0.000 C 
ATOM      7  C   UNL     1       2.277   3.107  18.648  0.00  0.00    +0.000 A 
ATOM      8  C   UNL     1       2.587   3.375  17.332  0.00  0.00    +0.000 A 
ATOM      9  C   UNL     1       3.225   4.589  17.044  0.00  0.00    +0.000 A 
ATOM     10  C   UNL     1       3.568   5.530  18.048  0.00  0.00    +0.000 A 
ATOM     11  C   UNL     1       3.204   5.254  19.368  0.00  0.00    +0.000 A 
ATOM     12  C   UNL     1       2.589   4.042  19.633  0.00  0.00    +0.000 A 
ATOM     13  H   UNL     1       1.247   1.667  21.400  0.00  0.00    +0.000 HD
ENDBRANCH   1  10
BRANCH   1  14
ATOM     14  C   UNL     1       5.199   6.765  16.610  0.00  0.00    +0.000 C 
BRANCH  14  15
ATOM     15  C   UNL     1       6.421   5.977  16.970  0.00  0.00    +0.000 A 
ATOM     16  N   UNL     1       7.006   5.976  18.157  0.00  0.00    +0.000 NA
ATOM     17  C   UNL     1       7.877   4.937  18.076  0.00  0.00    +0.000 A 
ATOM     18  N   UNL     1       7.855   4.262  16.930  0.00  0.00    +0.000 NA
ATOM     19  N   UNL     1       7.015   5.012  16.168  0.00  0.00    +0.000 N 
BRANCH  19  20
ATOM     20  C   UNL     1       6.904   4.752  14.779  0.00  0.00    +0.000 A 
ATOM     21  C   UNL     1       5.950   3.824  14.331  0.00  0.00    +0.000 A 
ATOM     22  C   UNL     1       5.859   3.514  12.974  0.00  0.00    +0.000 A 
ATOM     23  C   UNL     1       6.740   4.095  12.064  0.00  0.00    +0.000 A 
ATOM     24  C   UNL     1       7.701   5.003  12.507  0.00  0.00    +0.000 A 
ATOM     25  C   UNL     1       7.779   5.343  13.860  0.00  0.00    +0.000 A 
ENDBRANCH  19  20
ENDBRANCH  14  15
ENDBRANCH   1  14
TORSDOF 4
ENDMDL
MODEL 9
REMARK VINA RESULT:      -8.1      1.339      1.680
REMARK  Name = 
REMARK  4 active torsions:
REMARK  status: ('A' for Active; 'I' for Inactive)
REMARK    1  A    between atoms: C_8  and  N_9
REMARK    2  A    between atoms: N_9  and  C_10
REMARK    3  A    between atoms: C_10  and  C_11
REMARK    4  A    between atoms: N_15  and  C_16
REMARK                            x       y       z     vdW  Elec       q    Type
REMARK                         _______ _______ _______ _____ _____    ______ ____
ROOT
ATOM      1  N   UNL     1       4.106   6.719  17.966  0.00  0.00    +0.000 N 
ATOM      2  H   UNL     1       3.600   7.603  17.926  0.00  0.00    +0.000 HD
ENDROOT
BRANCH   1  10
ATOM      3  O   UNL     1       2.579   3.771  22.326  0.00  0.00    +0.000 OA
ATOM      4  C   UNL     1       2.011   3.564  21.273  0.00  0.00    +0.000 C 
ATOM      5  N   UNL     1       1.014   2.635  21.043  0.00  0.00    +0.000 N 
ATOM      6  C   UNL     1       0.549   2.639  19.676  0.00  0.00    +0.000 C 
ATOM      7  C   UNL     1       1.407   3.684  19.050  0.00  0.00    +0.000 A 
ATOM      8  C   UNL     1       1.446   4.138  17.750  0.00  0.00    +0.000 A 
ATOM      9  C   UNL     1       2.374   5.140  17.433  0.00  0.00    +0.000 A 
ATOM     10  C   UNL     1       3.269   5.683  18.390  0.00  0.00    +0.000 A 
ATOM     11  C   UNL     1       3.180   5.236  19.711  0.00  0.00    +0.000 A 
ATOM     12  C   UNL     1       2.267   4.235  19.998  0.00  0.00    +0.000 A 
ATOM     13  H   UNL     1       0.674   2.031  21.778  0.00  0.00    +0.000 HD
ENDBRANCH   1  10
BRANCH   1  14
ATOM     14  C   UNL     1       5.030   6.554  16.844  0.00  0.00    +0.000 C 
BRANCH  14  15
ATOM     15  C   UNL     1       6.324   5.895  17.213  0.00  0.00    +0.000 A 
ATOM     16  N   UNL     1       6.914   5.978  18.394  0.00  0.00    +0.000 NA
ATOM     17  C   UNL     1       7.879   5.025  18.331  0.00  0.00    +0.000 A 
ATOM     18  N   UNL     1       7.914   4.323  17.203  0.00  0.00    +0.000 NA
ATOM     19  N   UNL     1       7.002   4.971  16.429  0.00  0.00    +0.000 N 
BRANCH  19  20
ATOM     20  C   UNL     1       6.908   4.668  15.048  0.00  0.00    +0.000 A 
ATOM     21  C   UNL     1       7.765   5.319  14.146  0.00  0.00    +0.000 A 
ATOM     22  C   UNL     1       7.655   5.076  12.776  0.00  0.00    +0.000 A 
ATOM     23  C   UNL     1       6.671   4.214  12.297  0.00  0.00    +0.000 A 
ATOM     24  C   UNL     1       5.806   3.580  13.188  0.00  0.00    +0.000 A 
ATOM     25  C   UNL     1       5.928   3.794  14.563  0.00  0.00    +0.000 A 
ENDBRANCH  19  20
ENDBRANCH  14  15
ENDBRANCH   1  14
TORSDOF 4
ENDMDL
