MODEL 1
REMARK VINA RESULT:      -9.2      0.000      0.000
REMARK  Name = 
REMARK  5 active torsions:
REMARK  status: ('A' for Active; 'I' for Inactive)
REMARK    1  A    between atoms: C_2  and  C_3
REMARK    2  A    between atoms: C_3  and  C_4
REMARK    3  A    between atoms: N_16  and  C_17
REMARK    4  A    between atoms: C_20  and  S_21
REMARK    5  A    between atoms: S_21  and  C_24
REMARK                            x       y       z     vdW  Elec       q    Type
REMARK                         _______ _______ _______ _____ _____    ______ ____
ROOT
ATOM      1  O   UNL     1       7.737   7.990  17.069  0.00  0.00    +0.000 OA
ATOM      2  C   UNL     1       8.087   7.718  18.217  0.00  0.00    +0.000 C 
ATOM      3  N   UNL     1       8.750   8.574  19.083  0.00  0.00    +0.000 N 
ATOM      4  H   UNL     1       9.129   8.173  19.932  0.00  0.00    +0.000 HD
ENDROOT
BRANCH   3   5
ATOM      5  C   UNL     1       9.094   9.922  18.807  0.00  0.00    +0.000 A 
ATOM      6  C   UNL     1      10.157  10.579  19.428  0.00  0.00    +0.000 A 
ATOM      7  C   UNL     1      10.381  11.944  19.227  0.00  0.00    +0.000 A 
ATOM      8  C   UNL     1       9.543  12.659  18.369  0.00  0.00    +0.000 A 
ATOM      9  C   UNL     1       8.520  12.004  17.681  0.00  0.00    +0.000 A 
ATOM     10  C   UNL     1       8.308  10.634  17.887  0.00  0.00    +0.000 A 
BRANCH   8  11
ATOM     11  S   UNL     1       9.682  14.434  18.302  0.00  0.00    +0.000 S 
ATOM     12  O   UNL     1       8.437  14.935  17.741  0.00  0.00    +0.000 OA
ATOM     13  O   UNL     1      10.095  14.880  19.625  0.00  0.00    +0.000 OA
BRANCH  11  14
ATOM     14  C   UNL     1      11.020  14.728  17.141  0.00  0.00    +0.000 C 
ATOM     15  F   UNL     1      11.189  13.706  16.256  0.00  0.00    +0.000 F 
ATOM     16  F   UNL     1      10.828  15.853  16.392  0.00  0.00    +0.000 F 
ENDBRANCH  11  14
ENDBRANCH   8  11
ENDBRANCH   3   5
BRANCH   2  17
ATOM     17  C   UNL     1       7.857   6.314  18.763  0.00  0.00    +0.000 C 
BRANCH  17  18
ATOM     18  C   UNL     1       6.946   5.500  17.912  0.00  0.00    +0.000 A 
ATOM     19  C   UNL     1       7.170   5.000  16.646  0.00  0.00    +0.000 A 
ATOM     20  O   UNL     1       6.070   4.349  16.178  0.00  0.00    +0.000 OA
ATOM     21  C   UNL     1       5.110   4.437  17.140  0.00  0.00    +0.000 A 
ATOM     22  C   UNL     1       3.815   3.921  17.053  0.00  0.00    +0.000 A 
ATOM     23  C   UNL     1       3.015   4.142  18.175  0.00  0.00    +0.000 A 
ATOM     24  C   UNL     1       3.487   4.829  19.291  0.00  0.00    +0.000 A 
ATOM     25  C   UNL     1       4.775   5.344  19.352  0.00  0.00    +0.000 A 
ATOM     26  C   UNL     1       5.606   5.134  18.238  0.00  0.00    +0.000 A 
ATOM     27  C   UNL     1       2.465   4.929  20.372  0.00  0.00    +0.000 C 
ATOM     28  C   UNL     1       1.249   4.211  19.777  0.00  0.00    +0.000 C 
ATOM     29  C   UNL     1       1.597   3.712  18.364  0.00  0.00    +0.000 C 
ENDBRANCH  17  18
ENDBRANCH   2  17
TORSDOF 5
ENDMDL
MODEL 2
REMARK VINA RESULT:      -9.0      1.203      1.683
REMARK  Name = 
REMARK  5 active torsions:
REMARK  status: ('A' for Active; 'I' for Inactive)
REMARK    1  A    between atoms: C_2  and  C_3
REMARK    2  A    between atoms: C_3  and  C_4
REMARK    3  A    between atoms: N_16  and  C_17
REMARK    4  A    between atoms: C_20  and  S_21
REMARK    5  A    between atoms: S_21  and  C_24
REMARK                            x       y       z     vdW  Elec       q    Type
REMARK                         _______ _______ _______ _____ _____    ______ ____
ROOT
ATOM      1  O   UNL     1       7.261   8.050  17.335  0.00  0.00    +0.000 OA
ATOM      2  C   UNL     1       7.942   7.626  18.268  0.00  0.00    +0.000 C 
ATOM      3  N   UNL     1       8.774   8.388  19.072  0.00  0.00    +0.000 N 
ATOM      4  H   UNL     1       9.404   7.892  19.691  0.00  0.00    +0.000 HD
ENDROOT
BRANCH   3   5
ATOM      5  C   UNL     1       8.944   9.794  18.984  0.00  0.00    +0.000 A 
ATOM      6  C   UNL     1       8.696  10.519  17.817  0.00  0.00    +0.000 A 
ATOM      7  C   UNL     1       9.002  11.880  17.733  0.00  0.00    +0.000 A 
ATOM      8  C   UNL     1       9.542  12.533  18.843  0.00  0.00    +0.000 A 
ATOM      9  C   UNL     1       9.729  11.843  20.042  0.00  0.00    +0.000 A 
ATOM     10  C   UNL     1       9.413  10.478  20.115  0.00  0.00    +0.000 A 
BRANCH   8  11
ATOM     11  S   UNL     1      10.151  14.197  18.658  0.00  0.00    +0.000 S 
ATOM     12  O   UNL     1      10.976  14.478  19.822  0.00  0.00    +0.000 OA
ATOM     13  O   UNL     1      10.741  14.291  17.330  0.00  0.00    +0.000 OA
BRANCH  11  14
ATOM     14  C   UNL     1       8.674  15.217  18.715  0.00  0.00    +0.000 C 
ATOM     15  F   UNL     1       8.837  16.346  19.460  0.00  0.00    +0.000 F 
ATOM     16  F   UNL     1       8.273  15.631  17.477  0.00  0.00    +0.000 F 
ENDBRANCH  11  14
ENDBRANCH   8  11
ENDBRANCH   3   5
BRANCH   2  17
ATOM     17  C   UNL     1       7.960   6.132  18.568  0.00  0.00    +0.000 C 
BRANCH  17  18
ATOM     18  C   UNL     1       6.976   5.362  17.759  0.00  0.00    +0.000 A 
ATOM     19  C   UNL     1       7.118   4.864  16.480  0.00  0.00    +0.000 A 
ATOM     20  O   UNL     1       5.971   4.261  16.063  0.00  0.00    +0.000 OA
ATOM     21  C   UNL     1       5.064   4.379  17.073  0.00  0.00    +0.000 A 
ATOM     22  C   UNL     1       3.746   3.915  17.047  0.00  0.00    +0.000 A 
ATOM     23  C   UNL     1       3.013   4.158  18.208  0.00  0.00    +0.000 A 
ATOM     24  C   UNL     1       3.567   4.816  19.304  0.00  0.00    +0.000 A 
ATOM     25  C   UNL     1       4.876   5.279  19.305  0.00  0.00    +0.000 A 
ATOM     26  C   UNL     1       5.641   5.046  18.149  0.00  0.00    +0.000 A 
ATOM     27  C   UNL     1       2.604   4.947  20.436  0.00  0.00    +0.000 C 
ATOM     28  C   UNL     1       1.333   4.283  19.897  0.00  0.00    +0.000 C 
ATOM     29  C   UNL     1       1.590   3.782  18.465  0.00  0.00    +0.000 C 
ENDBRANCH  17  18
ENDBRANCH   2  17
TORSDOF 5
ENDMDL
MODEL 3
REMARK VINA RESULT:      -9.0      7.767     10.571
REMARK  Name = 
REMARK  5 active torsions:
REMARK  status: ('A' for Active; 'I' for Inactive)
REMARK    1  A    between atoms: C_2  and  C_3
REMARK    2  A    between atoms: C_3  and  C_4
REMARK    3  A    between atoms: N_16  and  C_17
REMARK    4  A    between atoms: C_20  and  S_21
REMARK    5  A    between atoms: S_21  and  C_24
REMARK                            x       y       z     vdW  Elec       q    Type
REMARK                         _______ _______ _______ _____ _____    ______ ____
ROOT
ATOM      1  O   UNL     1       1.469   8.627  19.791  0.00  0.00    +0.000 OA
ATOM      2  C   UNL     1       1.899   8.847  18.660  0.00  0.00    +0.000 C 
ATOM      3  N   UNL     1       2.571   7.935  17.860  0.00  0.00    +0.000 N 
ATOM      4  H   UNL     1       3.019   8.292  17.024  0.00  0.00    +0.000 HD
ENDROOT
BRANCH   3   5
ATOM      5  C   UNL     1       2.833   6.581  18.194  0.00  0.00    +0.000 A 
ATOM      6  C   UNL     1       1.985   5.531  17.839  0.00  0.00    +0.000 A 
ATOM      7  C   UNL     1       2.211   4.231  18.300  0.00  0.00    +0.000 A 
ATOM      8  C   UNL     1       3.317   3.972  19.110  0.00  0.00    +0.000 A 
ATOM      9  C   UNL     1       4.218   4.994  19.416  0.00  0.00    +0.000 A 
ATOM     10  C   UNL     1       3.984   6.293  18.943  0.00  0.00    +0.000 A 
BRANCH   8  11
ATOM     11  S   UNL     1       3.468   2.377  19.888  0.00  0.00    +0.000 S 
ATOM     12  O   UNL     1       2.958   1.395  18.944  0.00  0.00    +0.000 OA
ATOM     13  O   UNL     1       4.841   2.260  20.361  0.00  0.00    +0.000 OA
BRANCH  11  14
ATOM     14  C   UNL     1       2.368   2.470  21.304  0.00  0.00    +0.000 C 
ATOM     15  F   UNL     1       2.537   3.610  22.032  0.00  0.00    +0.000 F 
ATOM     16  F   UNL     1       1.050   2.437  20.949  0.00  0.00    +0.000 F 
ENDBRANCH  11  14
ENDBRANCH   8  11
ENDBRANCH   3   5
BRANCH   2  17
ATOM     17  C   UNL     1       1.769  10.242  18.061  0.00  0.00    +0.000 C 
BRANCH  17  18
ATOM     18  C   UNL     1       0.864  11.130  18.842  0.00  0.00    +0.000 A 
ATOM     19  C   UNL     1       1.179  11.972  19.888  0.00  0.00    +0.000 A 
ATOM     20  O   UNL     1       0.063  12.577  20.378  0.00  0.00    +0.000 OA
ATOM     21  C   UNL     1      -0.996  12.116  19.657  0.00  0.00    +0.000 A 
ATOM     22  C   UNL     1      -2.334  12.466  19.852  0.00  0.00    +0.000 A 
ATOM     23  C   UNL     1      -3.236  11.855  18.981  0.00  0.00    +0.000 A 
ATOM     24  C   UNL     1      -2.819  10.963  17.995  0.00  0.00    +0.000 A 
ATOM     25  C   UNL     1      -1.484  10.619  17.826  0.00  0.00    +0.000 A 
ATOM     26  C   UNL     1      -0.551  11.222  18.687  0.00  0.00    +0.000 A 
ATOM     27  C   UNL     1      -3.954  10.450  17.174  0.00  0.00    +0.000 C 
ATOM     28  C   UNL     1      -5.176  11.139  17.790  0.00  0.00    +0.000 C 
ATOM     29  C   UNL     1      -4.720  12.036  18.955  0.00  0.00    +0.000 C 
ENDBRANCH  17  18
ENDBRANCH   2  17
TORSDOF 5
ENDMDL
MODEL 4
REMARK VINA RESULT:      -9.0      1.445      1.759
REMARK  Name = 
REMARK  5 active torsions:
REMARK  status: ('A' for Active; 'I' for Inactive)
REMARK    1  A    between atoms: C_2  and  C_3
REMARK    2  A    between atoms: C_3  and  C_4
REMARK    3  A    between atoms: N_16  and  C_17
REMARK    4  A    between atoms: C_20  and  S_21
REMARK    5  A    between atoms: S_21  and  C_24
REMARK                            x       y       z     vdW  Elec       q    Type
REMARK                         _______ _______ _______ _____ _____    ______ ____
ROOT
ATOM      1  O   UNL     1       7.175   8.038  17.274  0.00  0.00    +0.000 OA
ATOM      2  C   UNL     1       7.857   7.599  18.199  0.00  0.00    +0.000 C 
ATOM      3  N   UNL     1       8.707   8.346  19.000  0.00  0.00    +0.000 N 
ATOM      4  H   UNL     1       9.335   7.838  19.611  0.00  0.00    +0.000 HD
ENDROOT
BRANCH   3   5
ATOM      5  C   UNL     1       8.898   9.749  18.916  0.00  0.00    +0.000 A 
ATOM      6  C   UNL     1       8.569  10.496  17.783  0.00  0.00    +0.000 A 
ATOM      7  C   UNL     1       8.895  11.852  17.691  0.00  0.00    +0.000 A 
ATOM      8  C   UNL     1       9.538  12.478  18.760  0.00  0.00    +0.000 A 
ATOM      9  C   UNL     1       9.810  11.767  19.931  0.00  0.00    +0.000 A 
ATOM     10  C   UNL     1       9.473  10.408  20.013  0.00  0.00    +0.000 A 
BRANCH   8  11
ATOM     11  S   UNL     1      10.163  14.133  18.547  0.00  0.00    +0.000 S 
ATOM     12  O   UNL     1      10.969  14.129  17.336  0.00  0.00    +0.000 OA
ATOM     13  O   UNL     1       9.023  15.035  18.638  0.00  0.00    +0.000 OA
BRANCH  11  14
ATOM     14  C   UNL     1      11.227  14.390  19.970  0.00  0.00    +0.000 C 
ATOM     15  F   UNL     1      10.599  14.143  21.153  0.00  0.00    +0.000 F 
ATOM     16  F   UNL     1      12.333  13.589  19.951  0.00  0.00    +0.000 F 
ENDBRANCH  11  14
ENDBRANCH   8  11
ENDBRANCH   3   5
BRANCH   2  17
ATOM     17  C   UNL     1       7.855   6.104  18.494  0.00  0.00    +0.000 C 
BRANCH  17  18
ATOM     18  C   UNL     1       6.836   5.356  17.708  0.00  0.00    +0.000 A 
ATOM     19  C   UNL     1       6.918   4.898  16.409  0.00  0.00    +0.000 A 
ATOM     20  O   UNL     1       5.754   4.305  16.028  0.00  0.00    +0.000 OA
ATOM     21  C   UNL     1       4.895   4.388  17.082  0.00  0.00    +0.000 A 
ATOM     22  C   UNL     1       3.579   3.921  17.104  0.00  0.00    +0.000 A 
ATOM     23  C   UNL     1       2.900   4.125  18.305  0.00  0.00    +0.000 A 
ATOM     24  C   UNL     1       3.504   4.751  19.394  0.00  0.00    +0.000 A 
ATOM     25  C   UNL     1       4.810   5.219  19.347  0.00  0.00    +0.000 A 
ATOM     26  C   UNL     1       5.521   5.024  18.150  0.00  0.00    +0.000 A 
ATOM     27  C   UNL     1       2.595   4.844  20.573  0.00  0.00    +0.000 C 
ATOM     28  C   UNL     1       1.301   4.192  20.074  0.00  0.00    +0.000 C 
ATOM     29  C   UNL     1       1.491   3.737  18.617  0.00  0.00    +0.000 C 
ENDBRANCH  17  18
ENDBRANCH   2  17
TORSDOF 5
ENDMDL
MODEL 5
REMARK VINA RESULT:      -9.0      6.158      7.812
REMARK  Name = 
REMARK  5 active torsions:
REMARK  status: ('A' for Active; 'I' for Inactive)
REMARK    1  A    between atoms: C_2  and  C_3
REMARK    2  A    between atoms: C_3  and  C_4
REMARK    3  A    between atoms: N_16  and  C_17
REMARK    4  A    between atoms: C_20  and  S_21
REMARK    5  A    between atoms: S_21  and  C_24
REMARK                            x       y       z     vdW  Elec       q    Type
REMARK                         _______ _______ _______ _____ _____    ______ ____
ROOT
ATOM      1  O   UNL     1       1.578   4.654  19.472  0.00  0.00    +0.000 OA
ATOM      2  C   UNL     1       2.734   5.014  19.253  0.00  0.00    +0.000 C 
ATOM      3  N   UNL     1       3.144   6.319  19.030  0.00  0.00    +0.000 N 
ATOM      4  H   UNL     1       4.090   6.457  18.695  0.00  0.00    +0.000 HD
ENDROOT
BRANCH   3   5
ATOM      5  C   UNL     1       2.307   7.464  19.064  0.00  0.00    +0.000 A 
ATOM      6  C   UNL     1       2.016   8.227  17.932  0.00  0.00    +0.000 A 
ATOM      7  C   UNL     1       1.295   9.421  18.031  0.00  0.00    +0.000 A 
ATOM      8  C   UNL     1       0.836   9.846  19.279  0.00  0.00    +0.000 A 
ATOM      9  C   UNL     1       1.054   9.059  20.412  0.00  0.00    +0.000 A 
ATOM     10  C   UNL     1       1.773   7.860  20.299  0.00  0.00    +0.000 A 
BRANCH   8  11
ATOM     11  S   UNL     1       0.133  11.475  19.436  0.00  0.00    +0.000 S 
ATOM     12  O   UNL     1       0.058  11.768  20.859  0.00  0.00    +0.000 OA
ATOM     13  O   UNL     1       0.902  12.357  18.569  0.00  0.00    +0.000 OA
BRANCH  11  14
ATOM     14  C   UNL     1      -1.528  11.304  18.774  0.00  0.00    +0.000 C 
ATOM     15  F   UNL     1      -1.648  11.801  17.511  0.00  0.00    +0.000 F 
ATOM     16  F   UNL     1      -1.939  10.004  18.714  0.00  0.00    +0.000 F 
ENDBRANCH  11  14
ENDBRANCH   8  11
ENDBRANCH   3   5
BRANCH   2  17
ATOM     17  C   UNL     1       3.840   3.971  19.141  0.00  0.00    +0.000 C 
BRANCH  17  18
ATOM     18  C   UNL     1       5.118   4.530  18.622  0.00  0.00    +0.000 A 
ATOM     19  C   UNL     1       6.086   5.237  19.303  0.00  0.00    +0.000 A 
ATOM     20  O   UNL     1       7.086   5.626  18.465  0.00  0.00    +0.000 OA
ATOM     21  C   UNL     1       6.762   5.182  17.219  0.00  0.00    +0.000 A 
ATOM     22  C   UNL     1       7.509   5.389  16.057  0.00  0.00    +0.000 A 
ATOM     23  C   UNL     1       6.964   4.834  14.899  0.00  0.00    +0.000 A 
ATOM     24  C   UNL     1       5.762   4.130  14.915  0.00  0.00    +0.000 A 
ATOM     25  C   UNL     1       5.029   3.946  16.080  0.00  0.00    +0.000 A 
ATOM     26  C   UNL     1       5.555   4.491  17.264  0.00  0.00    +0.000 A 
ATOM     27  C   UNL     1       5.386   3.615  13.567  0.00  0.00    +0.000 C 
ATOM     28  C   UNL     1       6.525   4.108  12.669  0.00  0.00    +0.000 C 
ATOM     29  C   UNL     1       7.536   4.897  13.520  0.00  0.00    +0.000 C 
ENDBRANCH  17  18
ENDBRANCH   2  17
TORSDOF 5
ENDMDL
MODEL 6
REMARK VINA RESULT:      -8.9      6.382      8.025
REMARK  Name = 
REMARK  5 active torsions:
REMARK  status: ('A' for Active; 'I' for Inactive)
REMARK    1  A    between atoms: C_2  and  C_3
REMARK    2  A    between atoms: C_3  and  C_4
REMARK    3  A    between atoms: N_16  and  C_17
REMARK    4  A    between atoms: C_20  and  S_21
REMARK    5  A    between atoms: S_21  and  C_24
REMARK                            x       y       z     vdW  Elec       q    Type
REMARK                         _______ _______ _______ _____ _____    ______ ____
ROOT
ATOM      1  O   UNL     1       1.601   4.809  19.869  0.00  0.00    +0.000 OA
ATOM      2  C   UNL     1       2.691   5.093  19.375  0.00  0.00    +0.000 C 
ATOM      3  N   UNL     1       3.094   6.360  18.982  0.00  0.00    +0.000 N 
ATOM      4  H   UNL     1       3.945   6.428  18.436  0.00  0.00    +0.000 HD
ENDROOT
BRANCH   3   5
ATOM      5  C   UNL     1       2.334   7.548  19.126  0.00  0.00    +0.000 A 
ATOM      6  C   UNL     1       1.707   7.911  20.320  0.00  0.00    +0.000 A 
ATOM      7  C   UNL     1       0.860   9.021  20.383  0.00  0.00    +0.000 A 
ATOM      8  C   UNL     1       0.655   9.796  19.241  0.00  0.00    +0.000 A 
ATOM      9  C   UNL     1       1.330   9.493  18.056  0.00  0.00    +0.000 A 
ATOM     10  C   UNL     1       2.182   8.380  18.006  0.00  0.00    +0.000 A 
BRANCH   8  11
ATOM     11  S   UNL     1      -0.603  11.057  19.262  0.00  0.00    +0.000 S 
ATOM     12  O   UNL     1      -0.989  11.247  20.651  0.00  0.00    +0.000 OA
ATOM     13  O   UNL     1      -0.083  12.191  18.508  0.00  0.00    +0.000 OA
BRANCH  11  14
ATOM     14  C   UNL     1      -1.972  10.330  18.356  0.00  0.00    +0.000 C 
ATOM     15  F   UNL     1      -2.868  11.258  17.915  0.00  0.00    +0.000 F 
ATOM     16  F   UNL     1      -1.564   9.639  17.251  0.00  0.00    +0.000 F 
ENDBRANCH  11  14
ENDBRANCH   8  11
ENDBRANCH   3   5
BRANCH   2  17
ATOM     17  C   UNL     1       3.700   3.987  19.088  0.00  0.00    +0.000 C 
BRANCH  17  18
ATOM     18  C   UNL     1       5.008   4.503  18.601  0.00  0.00    +0.000 A 
ATOM     19  C   UNL     1       5.992   5.158  19.311  0.00  0.00    +0.000 A 
ATOM     20  O   UNL     1       7.021   5.521  18.498  0.00  0.00    +0.000 OA
ATOM     21  C   UNL     1       6.702   5.112  17.238  0.00  0.00    +0.000 A 
ATOM     22  C   UNL     1       7.477   5.309  16.093  0.00  0.00    +0.000 A 
ATOM     23  C   UNL     1       6.931   4.796  14.916  0.00  0.00    +0.000 A 
ATOM     24  C   UNL     1       5.702   4.140  14.899  0.00  0.00    +0.000 A 
ATOM     25  C   UNL     1       4.942   3.966  16.048  0.00  0.00    +0.000 A 
ATOM     26  C   UNL     1       5.468   4.469  17.251  0.00  0.00    +0.000 A 
ATOM     27  C   UNL     1       5.329   3.664  13.536  0.00  0.00    +0.000 C 
ATOM     28  C   UNL     1       6.503   4.126  12.667  0.00  0.00    +0.000 C 
ATOM     29  C   UNL     1       7.530   4.859  13.548  0.00  0.00    +0.000 C 
ENDBRANCH  17  18
ENDBRANCH   2  17
TORSDOF 5
ENDMDL
MODEL 7
REMARK VINA RESULT:      -8.8      1.402      1.542
REMARK  Name = 
REMARK  5 active torsions:
REMARK  status: ('A' for Active; 'I' for Inactive)
REMARK    1  A    between atoms: C_2  and  C_3
REMARK    2  A    between atoms: C_3  and  C_4
REMARK    3  A    between atoms: N_16  and  C_17
REMARK    4  A    between atoms: C_20  and  S_21
REMARK    5  A    between atoms: S_21  and  C_24
REMARK                            x       y       z     vdW  Elec       q    Type
REMARK                         _______ _______ _______ _____ _____    ______ ____
ROOT
ATOM      1  O   UNL     1       7.515   7.750  17.085  0.00  0.00    +0.000 OA
ATOM      2  C   UNL     1       7.976   7.430  18.180  0.00  0.00    +0.000 C 
ATOM      3  N   UNL     1       8.667   8.268  19.041  0.00  0.00    +0.000 N 
ATOM      4  H   UNL     1       9.138   7.839  19.828  0.00  0.00    +0.000 HD
ENDROOT
BRANCH   3   5
ATOM      5  C   UNL     1       8.919   9.647  18.824  0.00  0.00    +0.000 A 
ATOM      6  C   UNL     1       9.779  10.400  19.626  0.00  0.00    +0.000 A 
ATOM      7  C   UNL     1       9.898  11.782  19.459  0.00  0.00    +0.000 A 
ATOM      8  C   UNL     1       9.164  12.420  18.458  0.00  0.00    +0.000 A 
ATOM      9  C   UNL     1       8.355  11.675  17.597  0.00  0.00    +0.000 A 
ATOM     10  C   UNL     1       8.248  10.287  17.771  0.00  0.00    +0.000 A 
BRANCH   8  11
ATOM     11  S   UNL     1       9.133  14.200  18.405  0.00  0.00    +0.000 S 
ATOM     12  O   UNL     1      10.307  14.623  17.656  0.00  0.00    +0.000 OA
ATOM     13  O   UNL     1       7.812  14.591  17.933  0.00  0.00    +0.000 OA
BRANCH  11  14
ATOM     14  C   UNL     1       9.311  14.696  20.122  0.00  0.00    +0.000 C 
ATOM     15  F   UNL     1      10.610  14.891  20.485  0.00  0.00    +0.000 F 
ATOM     16  F   UNL     1       8.657  15.862  20.403  0.00  0.00    +0.000 F 
ENDBRANCH  11  14
ENDBRANCH   8  11
ENDBRANCH   3   5
BRANCH   2  17
ATOM     17  C   UNL     1       7.863   5.986  18.652  0.00  0.00    +0.000 C 
BRANCH  17  18
ATOM     18  C   UNL     1       6.893   5.185  17.855  0.00  0.00    +0.000 A 
ATOM     19  C   UNL     1       7.063   4.625  16.606  0.00  0.00    +0.000 A 
ATOM     20  O   UNL     1       5.922   4.012  16.189  0.00  0.00    +0.000 OA
ATOM     21  C   UNL     1       4.990   4.186  17.167  0.00  0.00    +0.000 A 
ATOM     22  C   UNL     1       3.669   3.733  17.129  0.00  0.00    +0.000 A 
ATOM     23  C   UNL     1       2.908   4.038  18.258  0.00  0.00    +0.000 A 
ATOM     24  C   UNL     1       3.440   4.744  19.335  0.00  0.00    +0.000 A 
ATOM     25  C   UNL     1       4.752   5.196  19.347  0.00  0.00    +0.000 A 
ATOM     26  C   UNL     1       5.545   4.900  18.225  0.00  0.00    +0.000 A 
ATOM     27  C   UNL     1       2.449   4.938  20.433  0.00  0.00    +0.000 C 
ATOM     28  C   UNL     1       1.186   4.259  19.894  0.00  0.00    +0.000 C 
ATOM     29  C   UNL     1       1.475   3.687  18.495  0.00  0.00    +0.000 C 
ENDBRANCH  17  18
ENDBRANCH   2  17
TORSDOF 5
ENDMDL
MODEL 8
REMARK VINA RESULT:      -8.8      5.811      7.436
REMARK  Name = 
REMARK  5 active torsions:
REMARK  status: ('A' for Active; 'I' for Inactive)
REMARK    1  A    between atoms: C_2  and  C_3
REMARK    2  A    between atoms: C_3  and  C_4
REMARK    3  A    between atoms: N_16  and  C_17
REMARK    4  A    between atoms: C_20  and  S_21
REMARK    5  A    between atoms: S_21  and  C_24
REMARK                            x       y       z     vdW  Elec       q    Type
REMARK                         _______ _______ _______ _____ _____    ______ ____
ROOT
ATOM      1  O   UNL     1       1.894   4.712  18.515  0.00  0.00    +0.000 OA
ATOM      2  C   UNL     1       2.907   5.075  19.111  0.00  0.00    +0.000 C 
ATOM      3  N   UNL     1       3.143   6.352  19.596  0.00  0.00    +0.000 N 
ATOM      4  H   UNL     1       4.082   6.561  19.915  0.00  0.00    +0.000 HD
ENDROOT
BRANCH   3   5
ATOM      5  C   UNL     1       2.237   7.441  19.528  0.00  0.00    +0.000 A 
ATOM      6  C   UNL     1       2.026   8.184  18.365  0.00  0.00    +0.000 A 
ATOM      7  C   UNL     1       1.225   9.330  18.374  0.00  0.00    +0.000 A 
ATOM      8  C   UNL     1       0.604   9.725  19.560  0.00  0.00    +0.000 A 
ATOM      9  C   UNL     1       0.743   8.954  20.716  0.00  0.00    +0.000 A 
ATOM     10  C   UNL     1       1.545   7.803  20.693  0.00  0.00    +0.000 A 
BRANCH   8  11
ATOM     11  S   UNL     1      -0.213  11.306  19.626  0.00  0.00    +0.000 S 
ATOM     12  O   UNL     1      -0.856  11.505  18.336  0.00  0.00    +0.000 OA
ATOM     13  O   UNL     1      -1.028  11.315  20.834  0.00  0.00    +0.000 OA
BRANCH  11  14
ATOM     14  C   UNL     1       1.125  12.488  19.814  0.00  0.00    +0.000 C 
ATOM     15  F   UNL     1       1.669  12.478  21.063  0.00  0.00    +0.000 F 
ATOM     16  F   UNL     1       2.155  12.258  18.948  0.00  0.00    +0.000 F 
ENDBRANCH  11  14
ENDBRANCH   8  11
ENDBRANCH   3   5
BRANCH   2  17
ATOM     17  C   UNL     1       4.060   4.098  19.303  0.00  0.00    +0.000 C 
BRANCH  17  18
ATOM     18  C   UNL     1       5.336   4.575  18.703  0.00  0.00    +0.000 A 
ATOM     19  C   UNL     1       6.386   5.223  19.320  0.00  0.00    +0.000 A 
ATOM     20  O   UNL     1       7.354   5.547  18.420  0.00  0.00    +0.000 OA
ATOM     21  C   UNL     1       6.927   5.122  17.198  0.00  0.00    +0.000 A 
ATOM     22  C   UNL     1       7.613   5.280  15.991  0.00  0.00    +0.000 A 
ATOM     23  C   UNL     1       6.965   4.758  14.872  0.00  0.00    +0.000 A 
ATOM     24  C   UNL     1       5.725   4.129  14.966  0.00  0.00    +0.000 A 
ATOM     25  C   UNL     1       5.055   3.993  16.175  0.00  0.00    +0.000 A 
ATOM     26  C   UNL     1       5.685   4.506  17.322  0.00  0.00    +0.000 A 
ATOM     27  C   UNL     1       5.235   3.636  13.647  0.00  0.00    +0.000 C 
ATOM     28  C   UNL     1       6.345   4.055  12.678  0.00  0.00    +0.000 C 
ATOM     29  C   UNL     1       7.453   4.782  13.460  0.00  0.00    +0.000 C 
ENDBRANCH  17  18
ENDBRANCH   2  17
TORSDOF 5
ENDMDL
MODEL 9
REMARK VINA RESULT:      -8.8      1.428      1.593
REMARK  Name = 
REMARK  5 active torsions:
REMARK  status: ('A' for Active; 'I' for Inactive)
REMARK    1  A    between atoms: C_2  and  C_3
REMARK    2  A    between atoms: C_3  and  C_4
REMARK    3  A    between atoms: N_16  and  C_17
REMARK    4  A    between atoms: C_20  and  S_21
REMARK    5  A    between atoms: S_21  and  C_24
REMARK                            x       y       z     vdW  Elec       q    Type
REMARK                         _______ _______ _______ _____ _____    ______ ____
ROOT
ATOM      1  O   UNL     1       7.096   7.993  17.387  0.00  0.00    +0.000 OA
ATOM      2  C   UNL     1       7.862   7.518  18.225  0.00  0.00    +0.000 C 
ATOM      3  N   UNL     1       8.787   8.232  18.970  0.00  0.00    +0.000 N 
ATOM      4  H   UNL     1       9.468   7.699  19.498  0.00  0.00    +0.000 HD
ENDROOT
BRANCH   3   5
ATOM      5  C   UNL     1       8.975   9.637  18.924  0.00  0.00    +0.000 A 
ATOM      6  C   UNL     1       9.513  10.369  19.984  0.00  0.00    +0.000 A 
ATOM      7  C   UNL     1       9.559  11.765  19.949  0.00  0.00    +0.000 A 
ATOM      8  C   UNL     1       9.082  12.441  18.824  0.00  0.00    +0.000 A 
ATOM      9  C   UNL     1       8.608  11.724  17.723  0.00  0.00    +0.000 A 
ATOM     10  C   UNL     1       8.572  10.323  17.768  0.00  0.00    +0.000 A 
BRANCH   8  11
ATOM     11  S   UNL     1       8.921  14.214  18.881  0.00  0.00    +0.000 S 
ATOM     12  O   UNL     1       8.738  14.578  20.277  0.00  0.00    +0.000 OA
ATOM     13  O   UNL     1      10.048  14.769  18.144  0.00  0.00    +0.000 OA
BRANCH  11  14
ATOM     14  C   UNL     1       7.408  14.549  17.974  0.00  0.00    +0.000 C 
ATOM     15  F   UNL     1       6.325  14.698  18.788  0.00  0.00    +0.000 F 
ATOM     16  F   UNL     1       7.484  15.690  17.228  0.00  0.00    +0.000 F 
ENDBRANCH  11  14
ENDBRANCH   8  11
ENDBRANCH   3   5
BRANCH   2  17
ATOM     17  C   UNL     1       7.882   6.012  18.459  0.00  0.00    +0.000 C 
BRANCH  17  18
ATOM     18  C   UNL     1       6.856   5.284  17.664  0.00  0.00    +0.000 A 
ATOM     19  C   UNL     1       6.946   4.816  16.369  0.00  0.00    +0.000 A 
ATOM     20  O   UNL     1       5.773   4.249  15.975  0.00  0.00    +0.000 OA
ATOM     21  C   UNL     1       4.902   4.359  17.016  0.00  0.00    +0.000 A 
ATOM     22  C   UNL     1       3.574   3.925  17.021  0.00  0.00    +0.000 A 
ATOM     23  C   UNL     1       2.884   4.153  18.212  0.00  0.00    +0.000 A 
ATOM     24  C   UNL     1       3.487   4.771  19.305  0.00  0.00    +0.000 A 
ATOM     25  C   UNL     1       4.805   5.206  19.275  0.00  0.00    +0.000 A 
ATOM     26  C   UNL     1       5.528   4.986  18.089  0.00  0.00    +0.000 A 
ATOM     27  C   UNL     1       2.564   4.893  20.471  0.00  0.00    +0.000 C 
ATOM     28  C   UNL     1       1.262   4.270  19.958  0.00  0.00    +0.000 C 
ATOM     29  C   UNL     1       1.462   3.800  18.506  0.00  0.00    +0.000 C 
ENDBRANCH  17  18
ENDBRANCH   2  17
TORSDOF 5
ENDMDL
