MODEL 1
REMARK VINA RESULT:      -9.5      0.000      0.000
REMARK  Name = 
REMARK  5 active torsions:
REMARK  status: ('A' for Active; 'I' for Inactive)
REMARK    1  A    between atoms: C_1  and  N_2
REMARK    2  A    between atoms: C_3  and  C_5
REMARK    3  A    between atoms: C_8  and  C_9
REMARK    4  A    between atoms: C_16  and  C_17
REMARK    5  A    between atoms: C_20  and  C_21
REMARK                            x       y       z     vdW  Elec       q    Type
REMARK                         _______ _______ _______ _____ _____    ______ ____
ROOT
ATOM      1  C   UNL     1       4.741   3.646  19.212  0.00  0.00    +0.000 C 
ATOM      2  O   UNL     1       5.358   2.894  19.967  0.00  0.00    +0.000 OA
ATOM      3  N   UNL     1       3.538   4.261  19.591  0.00  0.00    +0.000 N 
ATOM      4  C   UNL     1       3.135   4.173  21.002  0.00  0.00    +0.000 C 
ATOM      5  C   UNL     1       1.790   3.473  21.188  0.00  0.00    +0.000 C 
ATOM      6  C   UNL     1       0.702   4.022  20.270  0.00  0.00    +0.000 C 
ATOM      7  C   UNL     1       1.184   4.094  18.822  0.00  0.00    +0.000 C 
ATOM      8  C   UNL     1       2.528   4.823  18.666  0.00  0.00    +0.000 C 
ENDROOT
BRANCH   1  12
ATOM      9  C   UNL     1       6.589   4.492  15.493  0.00  0.00    +0.000 A 
ATOM     10  C   UNL     1       5.308   3.959  15.467  0.00  0.00    +0.000 A 
ATOM     11  C   UNL     1       4.676   3.693  16.678  0.00  0.00    +0.000 A 
ATOM     12  C   UNL     1       5.355   3.883  17.879  0.00  0.00    +0.000 A 
ATOM     13  C   UNL     1       6.633   4.441  17.805  0.00  0.00    +0.000 A 
ATOM     14  N   UNL     1       7.275   4.749  16.642  0.00  0.00    +0.000 NA
BRANCH   9  17
ATOM     15  C   UNL     1       7.332   4.417  11.786  0.00  0.00    +0.000 C 
ATOM     16  N   UNL     1       6.733   4.228  13.080  0.00  0.00    +0.000 N 
ATOM     17  C   UNL     1       7.234   4.866  14.193  0.00  0.00    +0.000 C 
ATOM     18  O   UNL     1       8.158   5.671  14.153  0.00  0.00    +0.000 OA
ATOM     19  H   UNL     1       5.998   3.542  13.226  0.00  0.00    +0.000 HD
ENDBRANCH   9  17
ENDBRANCH   1  12
BRANCH   8  20
ATOM     20  C   UNL     1       2.389   6.310  18.827  0.00  0.00    +0.000 A 
ATOM     21  N   UNL     1       2.798   7.288  18.044  0.00  0.00    +0.000 NA
ATOM     22  N   UNL     1       2.353   8.465  18.622  0.00  0.00    +0.000 NA
ATOM     23  C   UNL     1       1.696   8.123  19.713  0.00  0.00    +0.000 A 
ATOM     24  O   UNL     1       1.697   6.774  19.909  0.00  0.00    +0.000 OA
BRANCH  23  25
ATOM     25  C   UNL     1       0.935   8.926  20.657  0.00  0.00    +0.000 A 
ATOM     26  C   UNL     1       1.076   8.704  22.037  0.00  0.00    +0.000 A 
ATOM     27  C   UNL     1       0.391   9.498  22.963  0.00  0.00    +0.000 A 
ATOM     28  C   UNL     1      -0.446  10.523  22.527  0.00  0.00    +0.000 A 
ATOM     29  C   UNL     1      -0.606  10.748  21.163  0.00  0.00    +0.000 A 
ATOM     30  C   UNL     1       0.079   9.954  20.244  0.00  0.00    +0.000 A 
ATOM     31  F   UNL     1      -0.106  10.219  18.940  0.00  0.00    +0.000 F 
ENDBRANCH  23  25
ENDBRANCH   8  20
TORSDOF 4
ENDMDL
MODEL 2
REMARK VINA RESULT:      -9.1      0.896      1.140
REMARK  Name = 
REMARK  5 active torsions:
REMARK  status: ('A' for Active; 'I' for Inactive)
REMARK    1  A    between atoms: C_1  and  N_2
REMARK    2  A    between atoms: C_3  and  C_5
REMARK    3  A    between atoms: C_8  and  C_9
REMARK    4  A    between atoms: C_16  and  C_17
REMARK    5  A    between atoms: C_20  and  C_21
REMARK                            x       y       z     vdW  Elec       q    Type
REMARK                         _______ _______ _______ _____ _____    ______ ____
ROOT
ATOM      1  C   UNL     1       4.719   3.821  19.172  0.00  0.00    +0.000 C 
ATOM      2  O   UNL     1       5.348   3.059  19.907  0.00  0.00    +0.000 OA
ATOM      3  N   UNL     1       3.504   4.401  19.564  0.00  0.00    +0.000 N 
ATOM      4  C   UNL     1       3.099   4.265  20.970  0.00  0.00    +0.000 C 
ATOM      5  C   UNL     1       1.766   3.536  21.130  0.00  0.00    +0.000 C 
ATOM      6  C   UNL     1       0.670   4.090  20.224  0.00  0.00    +0.000 C 
ATOM      7  C   UNL     1       1.157   4.213  18.781  0.00  0.00    +0.000 C 
ATOM      8  C   UNL     1       2.487   4.972  18.651  0.00  0.00    +0.000 C 
ENDROOT
BRANCH   1  12
ATOM      9  C   UNL     1       6.382   4.461  15.325  0.00  0.00    +0.000 A 
ATOM     10  C   UNL     1       7.132   4.857  16.424  0.00  0.00    +0.000 A 
ATOM     11  C   UNL     1       6.613   4.637  17.696  0.00  0.00    +0.000 A 
ATOM     12  C   UNL     1       5.333   4.108  17.849  0.00  0.00    +0.000 A 
ATOM     13  C   UNL     1       4.663   3.722  16.686  0.00  0.00    +0.000 A 
ATOM     14  N   UNL     1       5.149   3.887  15.422  0.00  0.00    +0.000 NA
BRANCH   9  17
ATOM     15  C   UNL     1       8.568   5.865  12.579  0.00  0.00    +0.000 C 
ATOM     16  N   UNL     1       7.983   5.548  13.854  0.00  0.00    +0.000 N 
ATOM     17  C   UNL     1       6.979   4.612  13.960  0.00  0.00    +0.000 C 
ATOM     18  O   UNL     1       6.569   3.950  13.013  0.00  0.00    +0.000 OA
ATOM     19  H   UNL     1       8.217   6.078  14.689  0.00  0.00    +0.000 HD
ENDBRANCH   9  17
ENDBRANCH   1  12
BRANCH   8  20
ATOM     20  C   UNL     1       2.319   6.451  18.855  0.00  0.00    +0.000 A 
ATOM     21  N   UNL     1       2.692   7.457  18.090  0.00  0.00    +0.000 NA
ATOM     22  N   UNL     1       2.234   8.608  18.708  0.00  0.00    +0.000 NA
ATOM     23  C   UNL     1       1.606   8.224  19.802  0.00  0.00    +0.000 A 
ATOM     24  O   UNL     1       1.639   6.870  19.962  0.00  0.00    +0.000 OA
BRANCH  23  25
ATOM     25  C   UNL     1       0.847   8.985  20.782  0.00  0.00    +0.000 A 
ATOM     26  C   UNL     1       1.018   8.728  22.152  0.00  0.00    +0.000 A 
ATOM     27  C   UNL     1       0.335   9.483  23.112  0.00  0.00    +0.000 A 
ATOM     28  C   UNL     1      -0.531  10.501  22.720  0.00  0.00    +0.000 A 
ATOM     29  C   UNL     1      -0.722  10.760  21.365  0.00  0.00    +0.000 A 
ATOM     30  C   UNL     1      -0.038  10.006  20.413  0.00  0.00    +0.000 A 
ATOM     31  F   UNL     1      -0.254  10.301  19.120  0.00  0.00    +0.000 F 
ENDBRANCH  23  25
ENDBRANCH   8  20
TORSDOF 4
ENDMDL
MODEL 3
REMARK VINA RESULT:      -8.9      0.876      1.240
REMARK  Name = 
REMARK  5 active torsions:
REMARK  status: ('A' for Active; 'I' for Inactive)
REMARK    1  A    between atoms: C_1  and  N_2
REMARK    2  A    between atoms: C_3  and  C_5
REMARK    3  A    between atoms: C_8  and  C_9
REMARK    4  A    between atoms: C_16  and  C_17
REMARK    5  A    between atoms: C_20  and  C_21
REMARK                            x       y       z     vdW  Elec       q    Type
REMARK                         _______ _______ _______ _____ _____    ______ ____
ROOT
ATOM      1  C   UNL     1       4.800   3.898  19.088  0.00  0.00    +0.000 C 
ATOM      2  O   UNL     1       5.414   3.180  19.878  0.00  0.00    +0.000 OA
ATOM      3  N   UNL     1       3.600   4.535  19.436  0.00  0.00    +0.000 N 
ATOM      4  C   UNL     1       3.196   4.517  20.849  0.00  0.00    +0.000 C 
ATOM      5  C   UNL     1       1.847   3.832  21.066  0.00  0.00    +0.000 C 
ATOM      6  C   UNL     1       0.762   4.341  20.122  0.00  0.00    +0.000 C 
ATOM      7  C   UNL     1       1.246   4.342  18.673  0.00  0.00    +0.000 C 
ATOM      8  C   UNL     1       2.593   5.057  18.483  0.00  0.00    +0.000 C 
ENDROOT
BRANCH   1  12
ATOM      9  C   UNL     1       6.641   4.567  15.328  0.00  0.00    +0.000 A 
ATOM     10  C   UNL     1       5.400   3.946  15.335  0.00  0.00    +0.000 A 
ATOM     11  C   UNL     1       4.769   3.736  16.557  0.00  0.00    +0.000 A 
ATOM     12  C   UNL     1       5.416   4.069  17.745  0.00  0.00    +0.000 A 
ATOM     13  C   UNL     1       6.654   4.706  17.637  0.00  0.00    +0.000 A 
ATOM     14  N   UNL     1       7.291   4.963  16.459  0.00  0.00    +0.000 NA
BRANCH   9  17
ATOM     15  C   UNL     1       7.339   4.337  11.620  0.00  0.00    +0.000 C 
ATOM     16  N   UNL     1       6.752   4.209  12.926  0.00  0.00    +0.000 N 
ATOM     17  C   UNL     1       7.278   4.878  14.008  0.00  0.00    +0.000 C 
ATOM     18  O   UNL     1       8.217   5.663  13.928  0.00  0.00    +0.000 OA
ATOM     19  H   UNL     1       6.006   3.544  13.107  0.00  0.00    +0.000 HD
ENDBRANCH   9  17
ENDBRANCH   1  12
BRANCH   8  20
ATOM     20  C   UNL     1       2.460   6.551  18.574  0.00  0.00    +0.000 A 
ATOM     21  N   UNL     1       2.926   7.491  17.776  0.00  0.00    +0.000 NA
ATOM     22  N   UNL     1       2.459   8.695  18.276  0.00  0.00    +0.000 NA
ATOM     23  C   UNL     1       1.734   8.405  19.339  0.00  0.00    +0.000 A 
ATOM     24  O   UNL     1       1.710   7.065  19.592  0.00  0.00    +0.000 OA
BRANCH  23  25
ATOM     25  C   UNL     1       0.927   9.254  20.202  0.00  0.00    +0.000 A 
ATOM     26  C   UNL     1       0.081  10.221  19.637  0.00  0.00    +0.000 A 
ATOM     27  C   UNL     1      -0.741  11.014  20.447  0.00  0.00    +0.000 A 
ATOM     28  C   UNL     1      -0.726  10.855  21.831  0.00  0.00    +0.000 A 
ATOM     29  C   UNL     1       0.118   9.910  22.407  0.00  0.00    +0.000 A 
ATOM     30  C   UNL     1       0.933   9.122  21.596  0.00  0.00    +0.000 A 
ATOM     31  F   UNL     1       1.722   8.221  22.203  0.00  0.00    +0.000 F 
ENDBRANCH  23  25
ENDBRANCH   8  20
TORSDOF 4
ENDMDL
MODEL 4
REMARK VINA RESULT:      -8.6      1.156      1.306
REMARK  Name = 
REMARK  5 active torsions:
REMARK  status: ('A' for Active; 'I' for Inactive)
REMARK    1  A    between atoms: C_1  and  N_2
REMARK    2  A    between atoms: C_3  and  C_5
REMARK    3  A    between atoms: C_8  and  C_9
REMARK    4  A    between atoms: C_16  and  C_17
REMARK    5  A    between atoms: C_20  and  C_21
REMARK                            x       y       z     vdW  Elec       q    Type
REMARK                         _______ _______ _______ _____ _____    ______ ____
ROOT
ATOM      1  C   UNL     1       5.091   4.484  18.814  0.00  0.00    +0.000 C 
ATOM      2  O   UNL     1       5.738   3.898  19.682  0.00  0.00    +0.000 OA
ATOM      3  N   UNL     1       3.849   5.078  19.082  0.00  0.00    +0.000 N 
ATOM      4  C   UNL     1       3.428   5.190  20.486  0.00  0.00    +0.000 C 
ATOM      5  C   UNL     1       2.122   4.449  20.769  0.00  0.00    +0.000 C 
ATOM      6  C   UNL     1       1.020   4.781  19.768  0.00  0.00    +0.000 C 
ATOM      7  C   UNL     1       1.522   4.654  18.330  0.00  0.00    +0.000 C 
ATOM      8  C   UNL     1       2.825   5.428  18.071  0.00  0.00    +0.000 C 
ENDROOT
BRANCH   1  12
ATOM      9  C   UNL     1       6.861   4.870  14.981  0.00  0.00    +0.000 A 
ATOM     10  C   UNL     1       5.981   3.815  15.180  0.00  0.00    +0.000 A 
ATOM     11  C   UNL     1       5.374   3.683  16.425  0.00  0.00    +0.000 A 
ATOM     12  C   UNL     1       5.713   4.545  17.465  0.00  0.00    +0.000 A 
ATOM     13  C   UNL     1       6.593   5.587  17.164  0.00  0.00    +0.000 A 
ATOM     14  N   UNL     1       7.183   5.774  15.948  0.00  0.00    +0.000 NA
BRANCH   9  17
ATOM     15  C   UNL     1       7.383   4.352  11.273  0.00  0.00    +0.000 C 
ATOM     16  N   UNL     1       6.854   4.334  12.609  0.00  0.00    +0.000 N 
ATOM     17  C   UNL     1       7.443   5.068  13.615  0.00  0.00    +0.000 C 
ATOM     18  O   UNL     1       8.394   5.821  13.435  0.00  0.00    +0.000 OA
ATOM     19  H   UNL     1       6.102   3.703  12.872  0.00  0.00    +0.000 HD
ENDBRANCH   9  17
ENDBRANCH   1  12
BRANCH   8  20
ATOM     20  C   UNL     1       2.597   6.911  17.996  0.00  0.00    +0.000 A 
ATOM     21  N   UNL     1       3.094   7.801  17.159  0.00  0.00    +0.000 NA
ATOM     22  N   UNL     1       2.508   9.013  17.484  0.00  0.00    +0.000 NA
ATOM     23  C   UNL     1       1.688   8.776  18.490  0.00  0.00    +0.000 A 
ATOM     24  O   UNL     1       1.712   7.468  18.873  0.00  0.00    +0.000 OA
BRANCH  23  25
ATOM     25  C   UNL     1       0.744   9.647  19.174  0.00  0.00    +0.000 A 
ATOM     26  C   UNL     1       1.006  10.068  20.487  0.00  0.00    +0.000 A 
ATOM     27  C   UNL     1       0.136  10.945  21.145  0.00  0.00    +0.000 A 
ATOM     28  C   UNL     1      -1.009  11.410  20.503  0.00  0.00    +0.000 A 
ATOM     29  C   UNL     1      -1.290  10.992  19.205  0.00  0.00    +0.000 A 
ATOM     30  C   UNL     1      -0.419  10.120  18.554  0.00  0.00    +0.000 A 
ATOM     31  F   UNL     1      -0.735   9.753  17.301  0.00  0.00    +0.000 F 
ENDBRANCH  23  25
ENDBRANCH   8  20
TORSDOF 4
ENDMDL
MODEL 5
REMARK VINA RESULT:      -8.4      4.772     11.047
REMARK  Name = 
REMARK  5 active torsions:
REMARK  status: ('A' for Active; 'I' for Inactive)
REMARK    1  A    between atoms: C_1  and  N_2
REMARK    2  A    between atoms: C_3  and  C_5
REMARK    3  A    between atoms: C_8  and  C_9
REMARK    4  A    between atoms: C_16  and  C_17
REMARK    5  A    between atoms: C_20  and  C_21
REMARK                            x       y       z     vdW  Elec       q    Type
REMARK                         _______ _______ _______ _____ _____    ______ ____
ROOT
ATOM      1  C   UNL     1       0.077  13.878  21.799  0.00  0.00    +0.000 C 
ATOM      2  O   UNL     1       0.479  15.002  22.099  0.00  0.00    +0.000 OA
ATOM      3  N   UNL     1       0.848  12.987  21.038  0.00  0.00    +0.000 N 
ATOM      4  C   UNL     1       2.255  13.333  20.792  0.00  0.00    +0.000 C 
ATOM      5  C   UNL     1       2.576  13.468  19.304  0.00  0.00    +0.000 C 
ATOM      6  C   UNL     1       2.078  12.287  18.477  0.00  0.00    +0.000 C 
ATOM      7  C   UNL     1       0.614  11.974  18.784  0.00  0.00    +0.000 C 
ATOM      8  C   UNL     1       0.328  11.822  20.287  0.00  0.00    +0.000 C 
ENDROOT
BRANCH   1  12
ATOM      9  C   UNL     1      -3.800  13.031  23.290  0.00  0.00    +0.000 A 
ATOM     10  C   UNL     1      -2.802  12.097  23.528  0.00  0.00    +0.000 A 
ATOM     11  C   UNL     1      -1.517  12.366  23.064  0.00  0.00    +0.000 A 
ATOM     12  C   UNL     1      -1.271  13.509  22.308  0.00  0.00    +0.000 A 
ATOM     13  C   UNL     1      -2.333  14.399  22.137  0.00  0.00    +0.000 A 
ATOM     14  N   UNL     1      -3.598  14.192  22.605  0.00  0.00    +0.000 NA
BRANCH   9  17
ATOM     15  C   UNL     1      -7.501  13.507  23.896  0.00  0.00    +0.000 C 
ATOM     16  N   UNL     1      -6.171  13.568  23.355  0.00  0.00    +0.000 N 
ATOM     17  C   UNL     1      -5.160  12.787  23.869  0.00  0.00    +0.000 C 
ATOM     18  O   UNL     1      -5.330  11.957  24.756  0.00  0.00    +0.000 OA
ATOM     19  H   UNL     1      -5.916  14.259  22.656  0.00  0.00    +0.000 HD
ENDBRANCH   9  17
ENDBRANCH   1  12
BRANCH   8  20
ATOM     20  C   UNL     1       0.853  10.524  20.835  0.00  0.00    +0.000 A 
ATOM     21  N   UNL     1       1.021  10.141  22.084  0.00  0.00    +0.000 NA
ATOM     22  N   UNL     1       1.467   8.831  22.035  0.00  0.00    +0.000 NA
ATOM     23  C   UNL     1       1.531   8.504  20.759  0.00  0.00    +0.000 A 
ATOM     24  O   UNL     1       1.172   9.538  19.946  0.00  0.00    +0.000 OA
BRANCH  23  25
ATOM     25  C   UNL     1       1.839   7.236  20.116  0.00  0.00    +0.000 A 
ATOM     26  C   UNL     1       1.494   6.030  20.746  0.00  0.00    +0.000 A 
ATOM     27  C   UNL     1       1.736   4.801  20.122  0.00  0.00    +0.000 A 
ATOM     28  C   UNL     1       2.331   4.758  18.862  0.00  0.00    +0.000 A 
ATOM     29  C   UNL     1       2.691   5.944  18.230  0.00  0.00    +0.000 A 
ATOM     30  C   UNL     1       2.446   7.166  18.856  0.00  0.00    +0.000 A 
ATOM     31  F   UNL     1       2.807   8.280  18.198  0.00  0.00    +0.000 F 
ENDBRANCH  23  25
ENDBRANCH   8  20
TORSDOF 4
ENDMDL
MODEL 6
REMARK VINA RESULT:      -8.3      1.244      1.582
REMARK  Name = 
REMARK  5 active torsions:
REMARK  status: ('A' for Active; 'I' for Inactive)
REMARK    1  A    between atoms: C_1  and  N_2
REMARK    2  A    between atoms: C_3  and  C_5
REMARK    3  A    between atoms: C_8  and  C_9
REMARK    4  A    between atoms: C_16  and  C_17
REMARK    5  A    between atoms: C_20  and  C_21
REMARK                            x       y       z     vdW  Elec       q    Type
REMARK                         _______ _______ _______ _____ _____    ______ ____
ROOT
ATOM      1  C   UNL     1       4.751   3.984  19.083  0.00  0.00    +0.000 C 
ATOM      2  O   UNL     1       5.374   3.253  19.854  0.00  0.00    +0.000 OA
ATOM      3  N   UNL     1       3.525   4.568  19.435  0.00  0.00    +0.000 N 
ATOM      4  C   UNL     1       3.098   4.477  20.838  0.00  0.00    +0.000 C 
ATOM      5  C   UNL     1       1.768   3.742  21.002  0.00  0.00    +0.000 C 
ATOM      6  C   UNL     1       0.684   4.256  20.059  0.00  0.00    +0.000 C 
ATOM      7  C   UNL     1       1.193   4.334  18.621  0.00  0.00    +0.000 C 
ATOM      8  C   UNL     1       2.519   5.098  18.487  0.00  0.00    +0.000 C 
ENDROOT
BRANCH   1  12
ATOM      9  C   UNL     1       6.442   4.527  15.234  0.00  0.00    +0.000 A 
ATOM     10  C   UNL     1       7.258   4.754  16.333  0.00  0.00    +0.000 A 
ATOM     11  C   UNL     1       6.729   4.562  17.605  0.00  0.00    +0.000 A 
ATOM     12  C   UNL     1       5.385   4.230  17.761  0.00  0.00    +0.000 A 
ATOM     13  C   UNL     1       4.647   4.004  16.597  0.00  0.00    +0.000 A 
ATOM     14  N   UNL     1       5.137   4.146  15.332  0.00  0.00    +0.000 NA
BRANCH   9  17
ATOM     15  C   UNL     1       8.591   5.890  12.438  0.00  0.00    +0.000 C 
ATOM     16  N   UNL     1       8.013   5.605  13.724  0.00  0.00    +0.000 N 
ATOM     17  C   UNL     1       7.038   4.643  13.864  0.00  0.00    +0.000 C 
ATOM     18  O   UNL     1       6.649   3.933  12.943  0.00  0.00    +0.000 OA
ATOM     19  H   UNL     1       8.229   6.172  14.538  0.00  0.00    +0.000 HD
ENDBRANCH   9  17
ENDBRANCH   1  12
BRANCH   8  20
ATOM     20  C   UNL     1       2.337   6.582  18.636  0.00  0.00    +0.000 A 
ATOM     21  N   UNL     1       2.639   7.559  17.806  0.00  0.00    +0.000 NA
ATOM     22  N   UNL     1       2.200   8.729  18.401  0.00  0.00    +0.000 NA
ATOM     23  C   UNL     1       1.653   8.384  19.550  0.00  0.00    +0.000 A 
ATOM     24  O   UNL     1       1.724   7.039  19.767  0.00  0.00    +0.000 OA
BRANCH  23  25
ATOM     25  C   UNL     1       0.946   9.176  20.545  0.00  0.00    +0.000 A 
ATOM     26  C   UNL     1       1.026  10.577  20.508  0.00  0.00    +0.000 A 
ATOM     27  C   UNL     1       0.314  11.359  21.425  0.00  0.00    +0.000 A 
ATOM     28  C   UNL     1      -0.484  10.754  22.393  0.00  0.00    +0.000 A 
ATOM     29  C   UNL     1      -0.563   9.365  22.451  0.00  0.00    +0.000 A 
ATOM     30  C   UNL     1       0.147   8.591  21.535  0.00  0.00    +0.000 A 
ATOM     31  F   UNL     1       0.029   7.256  21.631  0.00  0.00    +0.000 F 
ENDBRANCH  23  25
ENDBRANCH   8  20
TORSDOF 4
ENDMDL
MODEL 7
REMARK VINA RESULT:      -8.1      4.647      8.880
REMARK  Name = 
REMARK  5 active torsions:
REMARK  status: ('A' for Active; 'I' for Inactive)
REMARK    1  A    between atoms: C_1  and  N_2
REMARK    2  A    between atoms: C_3  and  C_5
REMARK    3  A    between atoms: C_8  and  C_9
REMARK    4  A    between atoms: C_16  and  C_17
REMARK    5  A    between atoms: C_20  and  C_21
REMARK                            x       y       z     vdW  Elec       q    Type
REMARK                         _______ _______ _______ _____ _____    ______ ____
ROOT
ATOM      1  C   UNL     1      -2.396  11.503  19.040  0.00  0.00    +0.000 C 
ATOM      2  O   UNL     1      -3.411  11.979  19.550  0.00  0.00    +0.000 OA
ATOM      3  N   UNL     1      -1.192  11.378  19.749  0.00  0.00    +0.000 N 
ATOM      4  C   UNL     1      -1.220  11.617  21.199  0.00  0.00    +0.000 C 
ATOM      5  C   UNL     1      -0.305  12.765  21.623  0.00  0.00    +0.000 C 
ATOM      6  C   UNL     1       1.102  12.651  21.045  0.00  0.00    +0.000 C 
ATOM      7  C   UNL     1       1.061  12.396  19.538  0.00  0.00    +0.000 C 
ATOM      8  C   UNL     1       0.151  11.222  19.146  0.00  0.00    +0.000 C 
ENDROOT
BRANCH   1  12
ATOM      9  C   UNL     1      -2.963  10.280  15.020  0.00  0.00    +0.000 A 
ATOM     10  C   UNL     1      -2.177   9.475  15.833  0.00  0.00    +0.000 A 
ATOM     11  C   UNL     1      -1.995   9.848  17.161  0.00  0.00    +0.000 A 
ATOM     12  C   UNL     1      -2.525  11.048  17.630  0.00  0.00    +0.000 A 
ATOM     13  C   UNL     1      -3.318  11.781  16.745  0.00  0.00    +0.000 A 
ATOM     14  N   UNL     1      -3.550  11.434  15.447  0.00  0.00    +0.000 NA
BRANCH   9  17
ATOM     15  C   UNL     1      -4.964   9.400  11.936  0.00  0.00    +0.000 C 
ATOM     16  N   UNL     1      -4.552   9.898  13.220  0.00  0.00    +0.000 N 
ATOM     17  C   UNL     1      -3.235   9.831  13.617  0.00  0.00    +0.000 C 
ATOM     18  O   UNL     1      -2.332   9.415  12.900  0.00  0.00    +0.000 OA
ATOM     19  H   UNL     1      -5.231  10.214  13.908  0.00  0.00    +0.000 HD
ENDBRANCH   9  17
ENDBRANCH   1  12
BRANCH   8  20
ATOM     20  C   UNL     1       0.764   9.892  19.483  0.00  0.00    +0.000 A 
ATOM     21  N   UNL     1       0.593   9.127  20.542  0.00  0.00    +0.000 NA
ATOM     22  N   UNL     1       1.338   7.981  20.321  0.00  0.00    +0.000 NA
ATOM     23  C   UNL     1       1.904   8.123  19.138  0.00  0.00    +0.000 A 
ATOM     24  O   UNL     1       1.595   9.320  18.563  0.00  0.00    +0.000 OA
BRANCH  23  25
ATOM     25  C   UNL     1       2.713   7.203  18.353  0.00  0.00    +0.000 A 
ATOM     26  C   UNL     1       3.691   7.704  17.479  0.00  0.00    +0.000 A 
ATOM     27  C   UNL     1       4.513   6.836  16.752  0.00  0.00    +0.000 A 
ATOM     28  C   UNL     1       4.368   5.456  16.883  0.00  0.00    +0.000 A 
ATOM     29  C   UNL     1       3.394   4.944  17.736  0.00  0.00    +0.000 A 
ATOM     30  C   UNL     1       2.579   5.814  18.459  0.00  0.00    +0.000 A 
ATOM     31  F   UNL     1       1.660   5.266  19.272  0.00  0.00    +0.000 F 
ENDBRANCH  23  25
ENDBRANCH   8  20
TORSDOF 4
ENDMDL
MODEL 8
REMARK VINA RESULT:      -8.1      5.609      9.552
REMARK  Name = 
REMARK  5 active torsions:
REMARK  status: ('A' for Active; 'I' for Inactive)
REMARK    1  A    between atoms: C_1  and  N_2
REMARK    2  A    between atoms: C_3  and  C_5
REMARK    3  A    between atoms: C_8  and  C_9
REMARK    4  A    between atoms: C_16  and  C_17
REMARK    5  A    between atoms: C_20  and  C_21
REMARK                            x       y       z     vdW  Elec       q    Type
REMARK                         _______ _______ _______ _____ _____    ______ ____
ROOT
ATOM      1  C   UNL     1      -4.219  11.958  19.573  0.00  0.00    +0.000 C 
ATOM      2  O   UNL     1      -5.400  11.923  19.921  0.00  0.00    +0.000 OA
ATOM      3  N   UNL     1      -3.202  12.401  20.430  0.00  0.00    +0.000 N 
ATOM      4  C   UNL     1      -3.538  12.611  21.846  0.00  0.00    +0.000 C 
ATOM      5  C   UNL     1      -3.309  14.053  22.297  0.00  0.00    +0.000 C 
ATOM      6  C   UNL     1      -1.936  14.589  21.904  0.00  0.00    +0.000 C 
ATOM      7  C   UNL     1      -1.645  14.334  20.426  0.00  0.00    +0.000 C 
ATOM      8  C   UNL     1      -1.862  12.871  20.008  0.00  0.00    +0.000 C 
ENDROOT
BRANCH   1  12
ATOM      9  C   UNL     1      -3.600  10.627  15.596  0.00  0.00    +0.000 A 
ATOM     10  C   UNL     1      -2.812  10.067  16.592  0.00  0.00    +0.000 A 
ATOM     11  C   UNL     1      -3.014  10.476  17.906  0.00  0.00    +0.000 A 
ATOM     12  C   UNL     1      -3.930  11.485  18.193  0.00  0.00    +0.000 A 
ATOM     13  C   UNL     1      -4.690  11.974  17.129  0.00  0.00    +0.000 A 
ATOM     14  N   UNL     1      -4.550  11.576  15.832  0.00  0.00    +0.000 NA
BRANCH   9  17
ATOM     15  C   UNL     1      -4.618   9.527  12.125  0.00  0.00    +0.000 C 
ATOM     16  N   UNL     1      -4.606  10.088  13.449  0.00  0.00    +0.000 N 
ATOM     17  C   UNL     1      -3.449  10.120  14.194  0.00  0.00    +0.000 C 
ATOM     18  O   UNL     1      -2.361   9.744  13.772  0.00  0.00    +0.000 OA
ATOM     19  H   UNL     1      -5.465  10.378  13.908  0.00  0.00    +0.000 HD
ENDBRANCH   9  17
ENDBRANCH   1  12
BRANCH   8  20
ATOM     20  C   UNL     1      -0.770  11.969  20.510  0.00  0.00    +0.000 A 
ATOM     21  N   UNL     1      -0.227  11.885  21.707  0.00  0.00    +0.000 NA
ATOM     22  N   UNL     1       0.686  10.846  21.651  0.00  0.00    +0.000 NA
ATOM     23  C   UNL     1       0.630  10.362  20.425  0.00  0.00    +0.000 A 
ATOM     24  O   UNL     1      -0.260  11.042  19.647  0.00  0.00    +0.000 OA
BRANCH  23  25
ATOM     25  C   UNL     1       1.289   9.213  19.823  0.00  0.00    +0.000 A 
ATOM     26  C   UNL     1       1.524   8.061  20.591  0.00  0.00    +0.000 A 
ATOM     27  C   UNL     1       2.111   6.927  20.018  0.00  0.00    +0.000 A 
ATOM     28  C   UNL     1       2.476   6.929  18.673  0.00  0.00    +0.000 A 
ATOM     29  C   UNL     1       2.261   8.068  17.902  0.00  0.00    +0.000 A 
ATOM     30  C   UNL     1       1.675   9.194  18.478  0.00  0.00    +0.000 A 
ATOM     31  F   UNL     1       1.484  10.263  17.687  0.00  0.00    +0.000 F 
ENDBRANCH  23  25
ENDBRANCH   8  20
TORSDOF 4
ENDMDL
MODEL 9
REMARK VINA RESULT:      -8.1      4.696      9.156
REMARK  Name = 
REMARK  5 active torsions:
REMARK  status: ('A' for Active; 'I' for Inactive)
REMARK    1  A    between atoms: C_1  and  N_2
REMARK    2  A    between atoms: C_3  and  C_5
REMARK    3  A    between atoms: C_8  and  C_9
REMARK    4  A    between atoms: C_16  and  C_17
REMARK    5  A    between atoms: C_20  and  C_21
REMARK                            x       y       z     vdW  Elec       q    Type
REMARK                         _______ _______ _______ _____ _____    ______ ____
ROOT
ATOM      1  C   UNL     1      -3.045  11.890  19.532  0.00  0.00    +0.000 C 
ATOM      2  O   UNL     1      -4.114  12.323  19.963  0.00  0.00    +0.000 OA
ATOM      3  N   UNL     1      -1.890  11.830  20.325  0.00  0.00    +0.000 N 
ATOM      4  C   UNL     1      -2.031  12.082  21.766  0.00  0.00    +0.000 C 
ATOM      5  C   UNL     1      -1.203  13.277  22.238  0.00  0.00    +0.000 C 
ATOM      6  C   UNL     1       0.245  13.224  21.760  0.00  0.00    +0.000 C 
ATOM      7  C   UNL     1       0.323  12.952  20.259  0.00  0.00    +0.000 C 
ATOM      8  C   UNL     1      -0.502  11.731  19.819  0.00  0.00    +0.000 C 
ENDROOT
BRANCH   1  12
ATOM      9  C   UNL     1      -3.281  10.539  15.520  0.00  0.00    +0.000 A 
ATOM     10  C   UNL     1      -2.249  10.044  16.306  0.00  0.00    +0.000 A 
ATOM     11  C   UNL     1      -2.166  10.459  17.631  0.00  0.00    +0.000 A 
ATOM     12  C   UNL     1      -3.053  11.414  18.123  0.00  0.00    +0.000 A 
ATOM     13  C   UNL     1      -4.069  11.840  17.263  0.00  0.00    +0.000 A 
ATOM     14  N   UNL     1      -4.208  11.432  15.970  0.00  0.00    +0.000 NA
BRANCH   9  17
ATOM     15  C   UNL     1      -5.003   9.381  12.361  0.00  0.00    +0.000 C 
ATOM     16  N   UNL     1      -4.716   9.956  13.647  0.00  0.00    +0.000 N 
ATOM     17  C   UNL     1      -3.426  10.022  14.122  0.00  0.00    +0.000 C 
ATOM     18  O   UNL     1      -2.447   9.666  13.474  0.00  0.00    +0.000 OA
ATOM     19  H   UNL     1      -5.461  10.230  14.281  0.00  0.00    +0.000 HD
ENDBRANCH   9  17
ENDBRANCH   1  12
BRANCH   8  20
ATOM     20  C   UNL     1       0.147  10.436  20.217  0.00  0.00    +0.000 A 
ATOM     21  N   UNL     1      -0.005   9.714  21.308  0.00  0.00    +0.000 NA
ATOM     22  N   UNL     1       0.772   8.581  21.140  0.00  0.00    +0.000 NA
ATOM     23  C   UNL     1       1.338   8.686  19.953  0.00  0.00    +0.000 A 
ATOM     24  O   UNL     1       0.997   9.847  19.325  0.00  0.00    +0.000 OA
BRANCH  23  25
ATOM     25  C   UNL     1       2.175   7.755  19.211  0.00  0.00    +0.000 A 
ATOM     26  C   UNL     1       2.773   8.160  18.007  0.00  0.00    +0.000 A 
ATOM     27  C   UNL     1       3.620   7.297  17.303  0.00  0.00    +0.000 A 
ATOM     28  C   UNL     1       3.880   6.017  17.789  0.00  0.00    +0.000 A 
ATOM     29  C   UNL     1       3.284   5.596  18.974  0.00  0.00    +0.000 A 
ATOM     30  C   UNL     1       2.442   6.460  19.672  0.00  0.00    +0.000 A 
ATOM     31  F   UNL     1       1.899   6.006  20.814  0.00  0.00    +0.000 F 
ENDBRANCH  23  25
ENDBRANCH   8  20
TORSDOF 4
ENDMDL
