MODEL 1
REMARK VINA RESULT:      -8.3      0.000      0.000
REMARK  Name = 
REMARK  4 active torsions:
REMARK  status: ('A' for Active; 'I' for Inactive)
REMARK    1  A    between atoms: C_1  and  C_2
REMARK    2  A    between atoms: C_6  and  N_7
REMARK    3  A    between atoms: C_8  and  C_10
REMARK    4  A    between atoms: C_21  and  C_22
REMARK                            x       y       z     vdW  Elec       q    Type
REMARK                         _______ _______ _______ _____ _____    ______ ____
ROOT
ATOM      1  N   UNL     1       1.403   8.679  19.610  0.00  0.00    +0.000 N 
ATOM      2  C   UNL     1       2.150   8.429  18.455  0.00  0.00    +0.000 C 
ATOM      3  O   UNL     1       2.218   9.214  17.511  0.00  0.00    +0.000 OA
ATOM      4  H   UNL     1       1.619   8.145  20.455  0.00  0.00    +0.000 HD
ENDROOT
BRANCH   2   5
ATOM      5  C   UNL     1       2.863   7.130  18.280  0.00  0.00    +0.000 A 
ATOM      6  C   UNL     1       3.928   7.122  17.349  0.00  0.00    +0.000 A 
ATOM      7  C   UNL     1       4.528   5.935  16.978  0.00  0.00    +0.000 A 
ATOM      8  F   UNL     1       5.621   5.947  16.205  0.00  0.00    +0.000 F 
ATOM      9  C   UNL     1       3.997   4.734  17.404  0.00  0.00    +0.000 A 
ATOM     10  C   UNL     1       3.007   4.754  18.396  0.00  0.00    +0.000 A 
ATOM     11  C   UNL     1       2.546   3.566  18.946  0.00  0.00    +0.000 A 
ATOM     12  C   UNL     1       2.252   3.552  20.288  0.00  0.00    +0.000 A 
ATOM     13  C   UNL     1       1.963   4.771  20.865  0.00  0.00    +0.000 A 
ATOM     14  N   UNL     1       1.945   5.944  20.179  0.00  0.00    +0.000 NA
ATOM     15  C   UNL     1       2.549   5.960  18.971  0.00  0.00    +0.000 A 
ENDBRANCH   2   5
BRANCH   1  21
ATOM     16  C   UNL     1      -1.307  11.988  22.375  0.00  0.00    +0.000 C 
ATOM     17  C   UNL     1      -0.873  11.333  21.063  0.00  0.00    +0.000 A 
ATOM     18  C   UNL     1      -1.393  11.892  19.902  0.00  0.00    +0.000 A 
ATOM     19  C   UNL     1      -0.995  11.415  18.668  0.00  0.00    +0.000 A 
ATOM     20  C   UNL     1      -0.091  10.358  18.585  0.00  0.00    +0.000 A 
ATOM     21  C   UNL     1       0.471   9.773  19.746  0.00  0.00    +0.000 A 
ATOM     22  C   UNL     1       0.035  10.259  21.003  0.00  0.00    +0.000 A 
BRANCH  22  23
ATOM     23  C   UNL     1       0.507   9.645  22.281  0.00  0.00    +0.000 C 
ATOM     24  N   UNL     1      -0.431   9.032  23.047  0.00  0.00    +0.000 N 
ATOM     25  O   UNL     1       1.688   9.680  22.633  0.00  0.00    +0.000 OA
ATOM     26  H   UNL     1      -1.365   8.827  22.705  0.00  0.00    +0.000 HD
ATOM     27  H   UNL     1      -0.105   8.547  23.871  0.00  0.00    +0.000 HD
ENDBRANCH  22  23
ENDBRANCH   1  21
TORSDOF 3
ENDMDL
MODEL 2
REMARK VINA RESULT:      -8.0      1.443      1.705
REMARK  Name = 
REMARK  4 active torsions:
REMARK  status: ('A' for Active; 'I' for Inactive)
REMARK    1  A    between atoms: C_1  and  C_2
REMARK    2  A    between atoms: C_6  and  N_7
REMARK    3  A    between atoms: C_8  and  C_10
REMARK    4  A    between atoms: C_21  and  C_22
REMARK                            x       y       z     vdW  Elec       q    Type
REMARK                         _______ _______ _______ _____ _____    ______ ____
ROOT
ATOM      1  N   UNL     1       1.872   7.743  19.228  0.00  0.00    +0.000 N 
ATOM      2  C   UNL     1       2.857   7.225  18.382  0.00  0.00    +0.000 C 
ATOM      3  O   UNL     1       3.606   7.930  17.706  0.00  0.00    +0.000 OA
ATOM      4  H   UNL     1       1.497   7.140  19.965  0.00  0.00    +0.000 HD
ENDROOT
BRANCH   2   5
ATOM      5  C   UNL     1       3.003   5.752  18.200  0.00  0.00    +0.000 A 
ATOM      6  C   UNL     1       3.973   5.330  17.262  0.00  0.00    +0.000 A 
ATOM      7  C   UNL     1       4.058   4.005  16.885  0.00  0.00    +0.000 A 
ATOM      8  F   UNL     1       5.064   3.590  16.104  0.00  0.00    +0.000 F 
ATOM      9  C   UNL     1       3.101   3.107  17.314  0.00  0.00    +0.000 A 
ATOM     10  C   UNL     1       2.204   3.509  18.312  0.00  0.00    +0.000 A 
ATOM     11  C   UNL     1       1.317   2.595  18.864  0.00  0.00    +0.000 A 
ATOM     12  C   UNL     1       1.049   2.692  20.208  0.00  0.00    +0.000 A 
ATOM     13  C   UNL     1       1.264   3.925  20.789  0.00  0.00    +0.000 A 
ATOM     14  N   UNL     1       1.704   5.014  20.104  0.00  0.00    +0.000 NA
ATOM     15  C   UNL     1       2.259   4.796  18.892  0.00  0.00    +0.000 A 
ENDBRANCH   2   5
BRANCH   1  21
ATOM     16  C   UNL     1      -0.039  11.855  21.549  0.00  0.00    +0.000 C 
ATOM     17  C   UNL     1       0.519  11.099  20.341  0.00  0.00    +0.000 A 
ATOM     18  C   UNL     1       0.711  11.851  19.189  0.00  0.00    +0.000 A 
ATOM     19  C   UNL     1       1.283  11.271  18.073  0.00  0.00    +0.000 A 
ATOM     20  C   UNL     1       1.647   9.926  18.094  0.00  0.00    +0.000 A 
ATOM     21  C   UNL     1       1.481   9.132  19.255  0.00  0.00    +0.000 A 
ATOM     22  C   UNL     1       0.872   9.737  20.381  0.00  0.00    +0.000 A 
BRANCH  22  23
ATOM     23  C   UNL     1       0.577   8.955  21.621  0.00  0.00    +0.000 C 
ATOM     24  N   UNL     1       1.566   8.884  22.548  0.00  0.00    +0.000 N 
ATOM     25  O   UNL     1      -0.509   8.403  21.809  0.00  0.00    +0.000 OA
ATOM     26  H   UNL     1       2.393   9.471  22.508  0.00  0.00    +0.000 HD
ATOM     27  H   UNL     1       1.345   8.425  23.420  0.00  0.00    +0.000 HD
ENDBRANCH  22  23
ENDBRANCH   1  21
TORSDOF 3
ENDMDL
MODEL 3
REMARK VINA RESULT:      -8.0      2.116      3.742
REMARK  Name = 
REMARK  4 active torsions:
REMARK  status: ('A' for Active; 'I' for Inactive)
REMARK    1  A    between atoms: C_1  and  C_2
REMARK    2  A    between atoms: C_6  and  N_7
REMARK    3  A    between atoms: C_8  and  C_10
REMARK    4  A    between atoms: C_21  and  C_22
REMARK                            x       y       z     vdW  Elec       q    Type
REMARK                         _______ _______ _______ _____ _____    ______ ____
ROOT
ATOM      1  N   UNL     1       2.029   7.775  19.865  0.00  0.00    +0.000 N 
ATOM      2  C   UNL     1       1.981   6.394  20.079  0.00  0.00    +0.000 C 
ATOM      3  O   UNL     1       1.120   5.846  20.766  0.00  0.00    +0.000 OA
ATOM      4  H   UNL     1       2.568   8.126  19.070  0.00  0.00    +0.000 HD
ENDROOT
BRANCH   2   5
ATOM      5  C   UNL     1       3.042   5.504  19.526  0.00  0.00    +0.000 A 
ATOM      6  C   UNL     1       3.046   4.169  19.995  0.00  0.00    +0.000 A 
ATOM      7  C   UNL     1       4.091   3.320  19.691  0.00  0.00    +0.000 A 
ATOM      8  F   UNL     1       4.022   2.023  20.020  0.00  0.00    +0.000 F 
ATOM      9  C   UNL     1       5.210   3.811  19.048  0.00  0.00    +0.000 A 
ATOM     10  C   UNL     1       5.160   5.102  18.507  0.00  0.00    +0.000 A 
ATOM     11  C   UNL     1       6.212   5.579  17.739  0.00  0.00    +0.000 A 
ATOM     12  C   UNL     1       5.909   6.370  16.656  0.00  0.00    +0.000 A 
ATOM     13  C   UNL     1       4.694   7.020  16.693  0.00  0.00    +0.000 A 
ATOM     14  N   UNL     1       3.818   6.924  17.728  0.00  0.00    +0.000 NA
ATOM     15  C   UNL     1       3.999   5.904  18.595  0.00  0.00    +0.000 A 
ENDBRANCH   2   5
BRANCH   1  21
ATOM     16  C   UNL     1      -1.102  11.787  20.059  0.00  0.00    +0.000 C 
ATOM     17  C   UNL     1      -0.248  10.685  20.688  0.00  0.00    +0.000 A 
ATOM     18  C   UNL     1      -0.319  10.575  22.072  0.00  0.00    +0.000 A 
ATOM     19  C   UNL     1       0.358   9.560  22.719  0.00  0.00    +0.000 A 
ATOM     20  C   UNL     1       1.130   8.658  21.989  0.00  0.00    +0.000 A 
ATOM     21  C   UNL     1       1.215   8.729  20.578  0.00  0.00    +0.000 A 
ATOM     22  C   UNL     1       0.533   9.791  19.932  0.00  0.00    +0.000 A 
BRANCH  22  23
ATOM     23  C   UNL     1       0.635   9.998  18.455  0.00  0.00    +0.000 C 
ATOM     24  N   UNL     1       1.727  10.667  18.006  0.00  0.00    +0.000 N 
ATOM     25  O   UNL     1      -0.220   9.580  17.671  0.00  0.00    +0.000 OA
ATOM     26  H   UNL     1       2.529  10.860  18.598  0.00  0.00    +0.000 HD
ATOM     27  H   UNL     1       1.840  10.740  17.005  0.00  0.00    +0.000 HD
ENDBRANCH  22  23
ENDBRANCH   1  21
TORSDOF 3
ENDMDL
MODEL 4
REMARK VINA RESULT:      -7.8      2.801      7.230
REMARK  Name = 
REMARK  4 active torsions:
REMARK  status: ('A' for Active; 'I' for Inactive)
REMARK    1  A    between atoms: C_1  and  C_2
REMARK    2  A    between atoms: C_6  and  N_7
REMARK    3  A    between atoms: C_8  and  C_10
REMARK    4  A    between atoms: C_21  and  C_22
REMARK                            x       y       z     vdW  Elec       q    Type
REMARK                         _______ _______ _______ _____ _____    ______ ____
ROOT
ATOM      1  N   UNL     1       2.184   6.651  20.368  0.00  0.00    +0.000 N 
ATOM      2  C   UNL     1       1.799   7.860  19.783  0.00  0.00    +0.000 C 
ATOM      3  O   UNL     1       2.020   8.143  18.606  0.00  0.00    +0.000 OA
ATOM      4  H   UNL     1       1.723   6.360  21.234  0.00  0.00    +0.000 HD
ENDROOT
BRANCH   2   5
ATOM      5  C   UNL     1       1.146   8.924  20.600  0.00  0.00    +0.000 A 
ATOM      6  C   UNL     1       0.980   8.643  21.976  0.00  0.00    +0.000 A 
ATOM      7  C   UNL     1       0.226   9.475  22.779  0.00  0.00    +0.000 A 
ATOM      8  F   UNL     1       0.187   9.280  24.103  0.00  0.00    +0.000 F 
ATOM      9  C   UNL     1      -0.491  10.510  22.212  0.00  0.00    +0.000 A 
ATOM     10  C   UNL     1      -0.248  10.838  20.872  0.00  0.00    +0.000 A 
ATOM     11  C   UNL     1      -0.848  11.955  20.306  0.00  0.00    +0.000 A 
ATOM     12  C   UNL     1      -0.113  12.694  19.410  0.00  0.00    +0.000 A 
ATOM     13  C   UNL     1       0.923  12.038  18.779  0.00  0.00    +0.000 A 
ATOM     14  N   UNL     1       1.228  10.730  18.992  0.00  0.00    +0.000 NA
ATOM     15  C   UNL     1       0.709  10.148  20.095  0.00  0.00    +0.000 A 
ENDBRANCH   2   5
BRANCH   1  21
ATOM     16  C   UNL     1       3.701   1.889  19.385  0.00  0.00    +0.000 C 
ATOM     17  C   UNL     1       3.822   3.411  19.294  0.00  0.00    +0.000 A 
ATOM     18  C   UNL     1       4.837   3.893  18.476  0.00  0.00    +0.000 A 
ATOM     19  C   UNL     1       4.973   5.252  18.273  0.00  0.00    +0.000 A 
ATOM     20  C   UNL     1       4.108   6.144  18.904  0.00  0.00    +0.000 A 
ATOM     21  C   UNL     1       3.053   5.690  19.733  0.00  0.00    +0.000 A 
ATOM     22  C   UNL     1       2.943   4.294  19.949  0.00  0.00    +0.000 A 
BRANCH  22  23
ATOM     23  C   UNL     1       1.916   3.728  20.876  0.00  0.00    +0.000 C 
ATOM     24  N   UNL     1       0.677   3.521  20.361  0.00  0.00    +0.000 N 
ATOM     25  O   UNL     1       2.168   3.451  22.050  0.00  0.00    +0.000 OA
ATOM     26  H   UNL     1       0.487   3.566  19.365  0.00  0.00    +0.000 HD
ATOM     27  H   UNL     1       0.002   3.066  20.959  0.00  0.00    +0.000 HD
ENDBRANCH  22  23
ENDBRANCH   1  21
TORSDOF 3
ENDMDL
MODEL 5
REMARK VINA RESULT:      -7.7      2.543      6.682
REMARK  Name = 
REMARK  4 active torsions:
REMARK  status: ('A' for Active; 'I' for Inactive)
REMARK    1  A    between atoms: C_1  and  C_2
REMARK    2  A    between atoms: C_6  and  N_7
REMARK    3  A    between atoms: C_8  and  C_10
REMARK    4  A    between atoms: C_21  and  C_22
REMARK                            x       y       z     vdW  Elec       q    Type
REMARK                         _______ _______ _______ _____ _____    ______ ____
ROOT
ATOM      1  N   UNL     1       1.663   7.740  18.790  0.00  0.00    +0.000 N 
ATOM      2  C   UNL     1       1.411   9.048  18.363  0.00  0.00    +0.000 C 
ATOM      3  O   UNL     1       2.070   9.614  17.492  0.00  0.00    +0.000 OA
ATOM      4  H   UNL     1       0.921   7.237  19.281  0.00  0.00    +0.000 HD
ENDROOT
BRANCH   2   5
ATOM      5  C   UNL     1       0.343   9.864  19.010  0.00  0.00    +0.000 A 
ATOM      6  C   UNL     1      -0.515  10.576  18.140  0.00  0.00    +0.000 A 
ATOM      7  C   UNL     1      -1.411  11.501  18.637  0.00  0.00    +0.000 A 
ATOM      8  F   UNL     1      -2.313  12.068  17.825  0.00  0.00    +0.000 F 
ATOM      9  C   UNL     1      -1.375  11.842  19.974  0.00  0.00    +0.000 A 
ATOM     10  C   UNL     1      -0.592  11.069  20.842  0.00  0.00    +0.000 A 
ATOM     11  C   UNL     1      -0.635  11.296  22.210  0.00  0.00    +0.000 A 
ATOM     12  C   UNL     1      -0.563  10.206  23.044  0.00  0.00    +0.000 A 
ATOM     13  C   UNL     1       0.023   9.072  22.521  0.00  0.00    +0.000 A 
ATOM     14  N   UNL     1       0.528   8.997  21.261  0.00  0.00    +0.000 NA
ATOM     15  C   UNL     1       0.148   9.954  20.388  0.00  0.00    +0.000 A 
ENDBRANCH   2   5
BRANCH   1  21
ATOM     16  C   UNL     1       4.580   3.568  18.938  0.00  0.00    +0.000 C 
ATOM     17  C   UNL     1       4.268   5.007  18.522  0.00  0.00    +0.000 A 
ATOM     18  C   UNL     1       5.184   5.604  17.664  0.00  0.00    +0.000 A 
ATOM     19  C   UNL     1       4.944   6.874  17.175  0.00  0.00    +0.000 A 
ATOM     20  C   UNL     1       3.797   7.566  17.558  0.00  0.00    +0.000 A 
ATOM     21  C   UNL     1       2.835   6.984  18.418  0.00  0.00    +0.000 A 
ATOM     22  C   UNL     1       3.107   5.691  18.929  0.00  0.00    +0.000 A 
BRANCH  22  23
ATOM     23  C   UNL     1       2.193   5.033  19.911  0.00  0.00    +0.000 C 
ATOM     24  N   UNL     1       2.412   5.300  21.224  0.00  0.00    +0.000 N 
ATOM     25  O   UNL     1       1.276   4.287  19.561  0.00  0.00    +0.000 OA
ATOM     26  H   UNL     1       3.031   6.043  21.532  0.00  0.00    +0.000 HD
ATOM     27  H   UNL     1       1.749   4.922  21.886  0.00  0.00    +0.000 HD
ENDBRANCH  22  23
ENDBRANCH   1  21
TORSDOF 3
ENDMDL
MODEL 6
REMARK VINA RESULT:      -7.7      1.405      1.554
REMARK  Name = 
REMARK  4 active torsions:
REMARK  status: ('A' for Active; 'I' for Inactive)
REMARK    1  A    between atoms: C_1  and  C_2
REMARK    2  A    between atoms: C_6  and  N_7
REMARK    3  A    between atoms: C_8  and  C_10
REMARK    4  A    between atoms: C_21  and  C_22
REMARK                            x       y       z     vdW  Elec       q    Type
REMARK                         _______ _______ _______ _____ _____    ______ ____
ROOT
ATOM      1  N   UNL     1       0.773   9.115  19.016  0.00  0.00    +0.000 N 
ATOM      2  C   UNL     1       1.893   9.025  18.184  0.00  0.00    +0.000 C 
ATOM      3  O   UNL     1       2.232   9.918  17.409  0.00  0.00    +0.000 OA
ATOM      4  H   UNL     1       0.716   8.492  19.825  0.00  0.00    +0.000 HD
ENDROOT
BRANCH   2   5
ATOM      5  C   UNL     1       2.712   7.779  18.147  0.00  0.00    +0.000 A 
ATOM      6  C   UNL     1       3.807   7.776  17.253  0.00  0.00    +0.000 A 
ATOM      7  C   UNL     1       4.512   6.615  17.006  0.00  0.00    +0.000 A 
ATOM      8  F   UNL     1       5.629   6.649  16.268  0.00  0.00    +0.000 F 
ATOM      9  C   UNL     1       4.061   5.416  17.522  0.00  0.00    +0.000 A 
ATOM     10  C   UNL     1       3.037   5.441  18.477  0.00  0.00    +0.000 A 
ATOM     11  C   UNL     1       2.650   4.272  19.117  0.00  0.00    +0.000 A 
ATOM     12  C   UNL     1       2.309   4.350  20.446  0.00  0.00    +0.000 A 
ATOM     13  C   UNL     1       1.904   5.586  20.903  0.00  0.00    +0.000 A 
ATOM     14  N   UNL     1       1.820   6.691  20.115  0.00  0.00    +0.000 NA
ATOM     15  C   UNL     1       2.465   6.651  18.929  0.00  0.00    +0.000 A 
ENDBRANCH   2   5
BRANCH   1  21
ATOM     16  C   UNL     1      -1.248  13.576  20.415  0.00  0.00    +0.000 C 
ATOM     17  C   UNL     1      -1.229  12.272  19.616  0.00  0.00    +0.000 A 
ATOM     18  C   UNL     1      -2.242  12.119  18.676  0.00  0.00    +0.000 A 
ATOM     19  C   UNL     1      -2.260  11.008  17.856  0.00  0.00    +0.000 A 
ATOM     20  C   UNL     1      -1.277  10.029  17.983  0.00  0.00    +0.000 A 
ATOM     21  C   UNL     1      -0.221  10.156  18.918  0.00  0.00    +0.000 A 
ATOM     22  C   UNL     1      -0.231  11.290  19.768  0.00  0.00    +0.000 A 
BRANCH  22  23
ATOM     23  C   UNL     1       0.792  11.467  20.843  0.00  0.00    +0.000 C 
ATOM     24  N   UNL     1       1.776  12.371  20.606  0.00  0.00    +0.000 N 
ATOM     25  O   UNL     1       0.753  10.835  21.900  0.00  0.00    +0.000 OA
ATOM     26  H   UNL     1       1.735  13.032  19.836  0.00  0.00    +0.000 HD
ATOM     27  H   UNL     1       2.424  12.552  21.360  0.00  0.00    +0.000 HD
ENDBRANCH  22  23
ENDBRANCH   1  21
TORSDOF 3
ENDMDL
MODEL 7
REMARK VINA RESULT:      -7.7      2.218      3.777
REMARK  Name = 
REMARK  4 active torsions:
REMARK  status: ('A' for Active; 'I' for Inactive)
REMARK    1  A    between atoms: C_1  and  C_2
REMARK    2  A    between atoms: C_6  and  N_7
REMARK    3  A    between atoms: C_8  and  C_10
REMARK    4  A    between atoms: C_21  and  C_22
REMARK                            x       y       z     vdW  Elec       q    Type
REMARK                         _______ _______ _______ _____ _____    ______ ____
ROOT
ATOM      1  N   UNL     1       1.916   7.458  19.204  0.00  0.00    +0.000 N 
ATOM      2  C   UNL     1       2.011   6.091  19.481  0.00  0.00    +0.000 C 
ATOM      3  O   UNL     1       1.515   5.567  20.477  0.00  0.00    +0.000 OA
ATOM      4  H   UNL     1       2.082   7.773  18.245  0.00  0.00    +0.000 HD
ENDROOT
BRANCH   2   5
ATOM      5  C   UNL     1       2.800   5.190  18.591  0.00  0.00    +0.000 A 
ATOM      6  C   UNL     1       2.231   3.924  18.320  0.00  0.00    +0.000 A 
ATOM      7  C   UNL     1       2.960   2.951  17.665  0.00  0.00    +0.000 A 
ATOM      8  F   UNL     1       2.372   1.807  17.291  0.00  0.00    +0.000 F 
ATOM      9  C   UNL     1       4.298   3.160  17.398  0.00  0.00    +0.000 A 
ATOM     10  C   UNL     1       4.826   4.444  17.582  0.00  0.00    +0.000 A 
ATOM     11  C   UNL     1       6.129   4.726  17.197  0.00  0.00    +0.000 A 
ATOM     12  C   UNL     1       6.385   5.961  16.652  0.00  0.00    +0.000 A 
ATOM     13  C   UNL     1       5.497   6.967  16.971  0.00  0.00    +0.000 A 
ATOM     14  N   UNL     1       4.422   6.794  17.785  0.00  0.00    +0.000 NA
ATOM     15  C   UNL     1       4.028   5.524  18.023  0.00  0.00    +0.000 A 
ENDBRANCH   2   5
BRANCH   1  21
ATOM     16  C   UNL     1      -0.420  11.839  20.342  0.00  0.00    +0.000 C 
ATOM     17  C   UNL     1       0.341  10.560  20.697  0.00  0.00    +0.000 A 
ATOM     18  C   UNL     1       0.508  10.308  22.054  0.00  0.00    +0.000 A 
ATOM     19  C   UNL     1       1.115   9.139  22.469  0.00  0.00    +0.000 A 
ATOM     20  C   UNL     1       1.581   8.221  21.530  0.00  0.00    +0.000 A 
ATOM     21  C   UNL     1       1.415   8.436  20.140  0.00  0.00    +0.000 A 
ATOM     22  C   UNL     1       0.812   9.651  19.731  0.00  0.00    +0.000 A 
BRANCH  22  23
ATOM     23  C   UNL     1       0.674  10.004  18.285  0.00  0.00    +0.000 C 
ATOM     24  N   UNL     1       1.738  10.608  17.699  0.00  0.00    +0.000 N 
ATOM     25  O   UNL     1      -0.348   9.758  17.641  0.00  0.00    +0.000 OA
ATOM     26  H   UNL     1       2.649  10.659  18.145  0.00  0.00    +0.000 HD
ATOM     27  H   UNL     1       1.681  10.777  16.705  0.00  0.00    +0.000 HD
ENDBRANCH  22  23
ENDBRANCH   1  21
TORSDOF 3
ENDMDL
MODEL 8
REMARK VINA RESULT:      -7.7      1.755      2.769
REMARK  Name = 
REMARK  4 active torsions:
REMARK  status: ('A' for Active; 'I' for Inactive)
REMARK    1  A    between atoms: C_1  and  C_2
REMARK    2  A    between atoms: C_6  and  N_7
REMARK    3  A    between atoms: C_8  and  C_10
REMARK    4  A    between atoms: C_21  and  C_22
REMARK                            x       y       z     vdW  Elec       q    Type
REMARK                         _______ _______ _______ _____ _____    ______ ____
ROOT
ATOM      1  N   UNL     1       1.747   8.090  19.578  0.00  0.00    +0.000 N 
ATOM      2  C   UNL     1       2.009   6.734  19.798  0.00  0.00    +0.000 C 
ATOM      3  O   UNL     1       1.515   6.092  20.724  0.00  0.00    +0.000 OA
ATOM      4  H   UNL     1       1.941   8.479  18.652  0.00  0.00    +0.000 HD
ENDROOT
BRANCH   2   5
ATOM      5  C   UNL     1       2.981   6.000  18.936  0.00  0.00    +0.000 A 
ATOM      6  C   UNL     1       3.724   6.784  18.023  0.00  0.00    +0.000 A 
ATOM      7  C   UNL     1       4.509   6.186  17.058  0.00  0.00    +0.000 A 
ATOM      8  F   UNL     1       5.315   6.929  16.289  0.00  0.00    +0.000 F 
ATOM      9  C   UNL     1       4.461   4.817  16.886  0.00  0.00    +0.000 A 
ATOM     10  C   UNL     1       3.800   4.043  17.849  0.00  0.00    +0.000 A 
ATOM     11  C   UNL     1       3.844   2.658  17.784  0.00  0.00    +0.000 A 
ATOM     12  C   UNL     1       3.928   1.961  18.965  0.00  0.00    +0.000 A 
ATOM     13  C   UNL     1       3.475   2.613  20.094  0.00  0.00    +0.000 A 
ATOM     14  N   UNL     1       2.956   3.869  20.081  0.00  0.00    +0.000 NA
ATOM     15  C   UNL     1       3.194   4.623  18.986  0.00  0.00    +0.000 A 
ENDBRANCH   2   5
BRANCH   1  21
ATOM     16  C   UNL     1      -1.300  12.009  20.714  0.00  0.00    +0.000 C 
ATOM     17  C   UNL     1      -0.375  10.845  21.073  0.00  0.00    +0.000 A 
ATOM     18  C   UNL     1      -0.256  10.558  22.428  0.00  0.00    +0.000 A 
ATOM     19  C   UNL     1       0.497   9.476  22.840  0.00  0.00    +0.000 A 
ATOM     20  C   UNL     1       1.156   8.684  21.902  0.00  0.00    +0.000 A 
ATOM     21  C   UNL     1       1.045   8.936  20.512  0.00  0.00    +0.000 A 
ATOM     22  C   UNL     1       0.289  10.063  20.109  0.00  0.00    +0.000 A 
BRANCH  22  23
ATOM     23  C   UNL     1       0.187  10.459  18.671  0.00  0.00    +0.000 C 
ATOM     24  N   UNL     1       1.137  11.307  18.202  0.00  0.00    +0.000 N 
ATOM     25  O   UNL     1      -0.705  10.037  17.932  0.00  0.00    +0.000 OA
ATOM     26  H   UNL     1       1.979  11.526  18.726  0.00  0.00    +0.000 HD
ATOM     27  H   UNL     1       1.120  11.515  17.213  0.00  0.00    +0.000 HD
ENDBRANCH  22  23
ENDBRANCH   1  21
TORSDOF 3
ENDMDL
MODEL 9
REMARK VINA RESULT:      -7.7      1.900      2.744
REMARK  Name = 
REMARK  4 active torsions:
REMARK  status: ('A' for Active; 'I' for Inactive)
REMARK    1  A    between atoms: C_1  and  C_2
REMARK    2  A    between atoms: C_6  and  N_7
REMARK    3  A    between atoms: C_8  and  C_10
REMARK    4  A    between atoms: C_21  and  C_22
REMARK                            x       y       z     vdW  Elec       q    Type
REMARK                         _______ _______ _______ _____ _____    ______ ____
ROOT
ATOM      1  N   UNL     1       1.179   8.101  20.429  0.00  0.00    +0.000 N 
ATOM      2  C   UNL     1       2.076   7.535  19.518  0.00  0.00    +0.000 C 
ATOM      3  O   UNL     1       2.605   8.170  18.606  0.00  0.00    +0.000 OA
ATOM      4  H   UNL     1       1.012   7.617  21.314  0.00  0.00    +0.000 HD
ENDROOT
BRANCH   2   5
ATOM      5  C   UNL     1       2.389   6.077  19.569  0.00  0.00    +0.000 A 
ATOM      6  C   UNL     1       1.610   5.301  20.459  0.00  0.00    +0.000 A 
ATOM      7  C   UNL     1       1.940   3.986  20.719  0.00  0.00    +0.000 A 
ATOM      8  F   UNL     1       1.123   3.219  21.451  0.00  0.00    +0.000 F 
ATOM      9  C   UNL     1       3.118   3.463  20.222  0.00  0.00    +0.000 A 
ATOM     10  C   UNL     1       3.831   4.203  19.271  0.00  0.00    +0.000 A 
ATOM     11  C   UNL     1       4.944   3.655  18.649  0.00  0.00    +0.000 A 
ATOM     12  C   UNL     1       5.146   3.943  17.321  0.00  0.00    +0.000 A 
ATOM     13  C   UNL     1       4.555   5.096  16.848  0.00  0.00    +0.000 A 
ATOM     14  N   UNL     1       3.816   5.936  17.621  0.00  0.00    +0.000 NA
ATOM     15  C   UNL     1       3.376   5.457  18.804  0.00  0.00    +0.000 A 
ENDBRANCH   2   5
BRANCH   1  21
ATOM     16  C   UNL     1      -0.735  12.424  22.325  0.00  0.00    +0.000 C 
ATOM     17  C   UNL     1      -0.354  11.480  21.183  0.00  0.00    +0.000 A 
ATOM     18  C   UNL     1      -0.525  11.980  19.898  0.00  0.00    +0.000 A 
ATOM     19  C   UNL     1      -0.135  11.227  18.807  0.00  0.00    +0.000 A 
ATOM     20  C   UNL     1       0.409   9.958  18.992  0.00  0.00    +0.000 A 
ATOM     21  C   UNL     1       0.613   9.422  20.286  0.00  0.00    +0.000 A 
ATOM     22  C   UNL     1       0.186  10.197  21.392  0.00  0.00    +0.000 A 
BRANCH  22  23
ATOM     23  C   UNL     1       0.281   9.677  22.791  0.00  0.00    +0.000 C 
ATOM     24  N   UNL     1      -0.881   9.297  23.381  0.00  0.00    +0.000 N 
ATOM     25  O   UNL     1       1.355   9.586  23.389  0.00  0.00    +0.000 OA
ATOM     26  H   UNL     1      -1.746   9.188  22.861  0.00  0.00    +0.000 HD
ATOM     27  H   UNL     1      -0.813   8.872  24.295  0.00  0.00    +0.000 HD
ENDBRANCH  22  23
ENDBRANCH   1  21
TORSDOF 3
ENDMDL
