MODEL 1
REMARK VINA RESULT:      -8.7      0.000      0.000
REMARK  Name = 
REMARK  5 active torsions:
REMARK  status: ('A' for Active; 'I' for Inactive)
REMARK    1  A    between atoms: C_2  and  C_13
REMARK    2  A    between atoms: N_3  and  C_4
REMARK    3  A    between atoms: C_17  and  O_18
REMARK    4  A    between atoms: O_18  and  C_19
REMARK    5  A    between atoms: C_19  and  C_20
REMARK                            x       y       z     vdW  Elec       q    Type
REMARK                         _______ _______ _______ _____ _____    ______ ____
ROOT
ATOM      1  O   UNL     1       2.766   8.777  17.352  0.00  0.00    +0.000 OA
ATOM      2  C   UNL     1       2.744   7.792  18.080  0.00  0.00    +0.000 C 
ATOM      3  N   UNL     1       2.080   7.657  19.288  0.00  0.00    +0.000 N 
ATOM      4  H   UNL     1       2.342   6.880  19.881  0.00  0.00    +0.000 HD
ENDROOT
BRANCH   3   5
ATOM      5  C   UNL     1       1.274   8.649  19.888  0.00  0.00    +0.000 A 
ATOM      6  C   UNL     1       1.111   9.919  19.333  0.00  0.00    +0.000 A 
ATOM      7  C   UNL     1       0.411  10.924  20.010  0.00  0.00    +0.000 A 
ATOM      8  C   UNL     1      -0.133  10.647  21.274  0.00  0.00    +0.000 A 
ATOM      9  C   UNL     1      -0.815  11.428  22.243  0.00  0.00    +0.000 A 
ATOM     10  C   UNL     1      -1.093  10.612  23.316  0.00  0.00    +0.000 A 
ATOM     11  N   UNL     1      -0.627   9.358  23.021  0.00  0.00    +0.000 N 
ATOM     12  C   UNL     1      -0.015   9.355  21.788  0.00  0.00    +0.000 A 
ATOM     13  C   UNL     1       0.651   8.328  21.105  0.00  0.00    +0.000 A 
ATOM     14  H   UNL     1      -0.688   8.558  23.635  0.00  0.00    +0.000 HD
ENDBRANCH   3   5
BRANCH   2  15
ATOM     15  C   UNL     1       3.556   6.622  17.668  0.00  0.00    +0.000 A 
ATOM     16  C   UNL     1       4.849   6.833  17.176  0.00  0.00    +0.000 A 
ATOM     17  C   UNL     1       5.611   5.751  16.741  0.00  0.00    +0.000 A 
ATOM     18  C   UNL     1       5.067   4.465  16.768  0.00  0.00    +0.000 A 
ATOM     19  C   UNL     1       3.757   4.261  17.210  0.00  0.00    +0.000 A 
ATOM     20  C   UNL     1       3.011   5.338  17.691  0.00  0.00    +0.000 A 
BRANCH  19  21
ATOM     21  O   UNL     1       3.287   2.978  17.122  0.00  0.00    +0.000 OA
BRANCH  21  22
ATOM     22  C   UNL     1       3.684   2.118  18.197  0.00  0.00    +0.000 C 
BRANCH  22  23
ATOM     23  C   UNL     1       2.850   2.355  19.419  0.00  0.00    +0.000 A 
ATOM     24  C   UNL     1       1.479   2.622  19.360  0.00  0.00    +0.000 A 
ATOM     25  C   UNL     1       0.784   2.907  20.527  0.00  0.00    +0.000 A 
ATOM     26  C   UNL     1       1.484   2.930  21.721  0.00  0.00    +0.000 A 
ATOM     27  N   UNL     1       2.810   2.694  21.820  0.00  0.00    +0.000 NA
ATOM     28  C   UNL     1       3.461   2.419  20.669  0.00  0.00    +0.000 A 
ENDBRANCH  22  23
ENDBRANCH  21  22
ENDBRANCH  19  21
ENDBRANCH   2  15
TORSDOF 5
ENDMDL
MODEL 2
REMARK VINA RESULT:      -8.6      1.253      1.423
REMARK  Name = 
REMARK  5 active torsions:
REMARK  status: ('A' for Active; 'I' for Inactive)
REMARK    1  A    between atoms: C_2  and  C_13
REMARK    2  A    between atoms: N_3  and  C_4
REMARK    3  A    between atoms: C_17  and  O_18
REMARK    4  A    between atoms: O_18  and  C_19
REMARK    5  A    between atoms: C_19  and  C_20
REMARK                            x       y       z     vdW  Elec       q    Type
REMARK                         _______ _______ _______ _____ _____    ______ ____
ROOT
ATOM      1  O   UNL     1       2.680   8.434  17.384  0.00  0.00    +0.000 OA
ATOM      2  C   UNL     1       2.875   7.614  18.271  0.00  0.00    +0.000 C 
ATOM      3  N   UNL     1       2.316   7.600  19.538  0.00  0.00    +0.000 N 
ATOM      4  H   UNL     1       2.744   7.002  20.232  0.00  0.00    +0.000 HD
ENDROOT
BRANCH   3   5
ATOM      5  C   UNL     1       1.381   8.541  20.025  0.00  0.00    +0.000 A 
ATOM      6  C   UNL     1       1.007   9.671  19.296  0.00  0.00    +0.000 A 
ATOM      7  C   UNL     1       0.178  10.651  19.851  0.00  0.00    +0.000 A 
ATOM      8  C   UNL     1      -0.281  10.495  21.169  0.00  0.00    +0.000 A 
ATOM      9  C   UNL     1      -1.050  11.306  22.045  0.00  0.00    +0.000 A 
ATOM     10  C   UNL     1      -1.167  10.634  23.240  0.00  0.00    +0.000 A 
ATOM     11  N   UNL     1      -0.519   9.433  23.111  0.00  0.00    +0.000 N 
ATOM     12  C   UNL     1       0.052   9.332  21.862  0.00  0.00    +0.000 A 
ATOM     13  C   UNL     1       0.851   8.322  21.306  0.00  0.00    +0.000 A 
ATOM     14  H   UNL     1      -0.437   8.738  23.840  0.00  0.00    +0.000 HD
ENDBRANCH   3   5
BRANCH   2  15
ATOM     15  C   UNL     1       3.857   6.537  18.000  0.00  0.00    +0.000 A 
ATOM     16  C   UNL     1       4.401   6.422  16.716  0.00  0.00    +0.000 A 
ATOM     17  C   UNL     1       5.291   5.389  16.429  0.00  0.00    +0.000 A 
ATOM     18  C   UNL     1       5.609   4.454  17.416  0.00  0.00    +0.000 A 
ATOM     19  C   UNL     1       5.026   4.538  18.684  0.00  0.00    +0.000 A 
ATOM     20  C   UNL     1       4.173   5.600  18.985  0.00  0.00    +0.000 A 
BRANCH  19  21
ATOM     21  O   UNL     1       5.337   3.530  19.555  0.00  0.00    +0.000 OA
BRANCH  21  22
ATOM     22  C   UNL     1       4.584   2.325  19.373  0.00  0.00    +0.000 C 
BRANCH  22  23
ATOM     23  C   UNL     1       3.112   2.578  19.512  0.00  0.00    +0.000 A 
ATOM     24  C   UNL     1       2.507   2.868  20.738  0.00  0.00    +0.000 A 
ATOM     25  C   UNL     1       1.129   3.015  20.805  0.00  0.00    +0.000 A 
ATOM     26  C   UNL     1       0.392   2.852  19.644  0.00  0.00    +0.000 A 
ATOM     27  N   UNL     1       0.936   2.554  18.444  0.00  0.00    +0.000 NA
ATOM     28  C   UNL     1       2.279   2.418  18.408  0.00  0.00    +0.000 A 
ENDBRANCH  22  23
ENDBRANCH  21  22
ENDBRANCH  19  21
ENDBRANCH   2  15
TORSDOF 5
ENDMDL
MODEL 3
REMARK VINA RESULT:      -8.5      2.866      8.605
REMARK  Name = 
REMARK  5 active torsions:
REMARK  status: ('A' for Active; 'I' for Inactive)
REMARK    1  A    between atoms: C_2  and  C_13
REMARK    2  A    between atoms: N_3  and  C_4
REMARK    3  A    between atoms: C_17  and  O_18
REMARK    4  A    between atoms: O_18  and  C_19
REMARK    5  A    between atoms: C_19  and  C_20
REMARK                            x       y       z     vdW  Elec       q    Type
REMARK                         _______ _______ _______ _____ _____    ______ ____
ROOT
ATOM      1  O   UNL     1       2.235   8.733  17.379  0.00  0.00    +0.000 OA
ATOM      2  C   UNL     1       2.232   8.182  18.472  0.00  0.00    +0.000 C 
ATOM      3  N   UNL     1       2.768   6.944  18.788  0.00  0.00    +0.000 N 
ATOM      4  H   UNL     1       2.487   6.523  19.664  0.00  0.00    +0.000 HD
ENDROOT
BRANCH   3   5
ATOM      5  C   UNL     1       3.449   6.098  17.885  0.00  0.00    +0.000 A 
ATOM      6  C   UNL     1       3.095   4.761  17.699  0.00  0.00    +0.000 A 
ATOM      7  C   UNL     1       3.862   3.911  16.896  0.00  0.00    +0.000 A 
ATOM      8  C   UNL     1       5.013   4.415  16.269  0.00  0.00    +0.000 A 
ATOM      9  C   UNL     1       6.033   3.833  15.472  0.00  0.00    +0.000 A 
ATOM     10  C   UNL     1       6.932   4.826  15.155  0.00  0.00    +0.000 A 
ATOM     11  N   UNL     1       6.479   5.995  15.709  0.00  0.00    +0.000 N 
ATOM     12  C   UNL     1       5.319   5.768  16.416  0.00  0.00    +0.000 A 
ATOM     13  C   UNL     1       4.539   6.641  17.187  0.00  0.00    +0.000 A 
ATOM     14  H   UNL     1       6.948   6.887  15.643  0.00  0.00    +0.000 HD
ENDBRANCH   3   5
BRANCH   2  15
ATOM     15  C   UNL     1       1.535   8.874  19.582  0.00  0.00    +0.000 A 
ATOM     16  C   UNL     1       1.403   8.220  20.813  0.00  0.00    +0.000 A 
ATOM     17  C   UNL     1       0.711   8.835  21.854  0.00  0.00    +0.000 A 
ATOM     18  C   UNL     1       0.126  10.086  21.654  0.00  0.00    +0.000 A 
ATOM     19  C   UNL     1       0.213  10.717  20.409  0.00  0.00    +0.000 A 
ATOM     20  C   UNL     1       0.946  10.123  19.381  0.00  0.00    +0.000 A 
BRANCH  19  21
ATOM     21  O   UNL     1      -0.462  11.901  20.288  0.00  0.00    +0.000 OA
BRANCH  21  22
ATOM     22  C   UNL     1      -0.826  12.249  18.947  0.00  0.00    +0.000 C 
BRANCH  22  23
ATOM     23  C   UNL     1      -2.146  11.649  18.568  0.00  0.00    +0.000 A 
ATOM     24  C   UNL     1      -2.276  10.667  17.582  0.00  0.00    +0.000 A 
ATOM     25  C   UNL     1      -3.538  10.211  17.229  0.00  0.00    +0.000 A 
ATOM     26  C   UNL     1      -4.638  10.762  17.864  0.00  0.00    +0.000 A 
ATOM     27  N   UNL     1      -4.558  11.724  18.809  0.00  0.00    +0.000 NA
ATOM     28  C   UNL     1      -3.317  12.148  19.132  0.00  0.00    +0.000 A 
ENDBRANCH  22  23
ENDBRANCH  21  22
ENDBRANCH  19  21
ENDBRANCH   2  15
TORSDOF 5
ENDMDL
MODEL 4
REMARK VINA RESULT:      -8.5      0.959      1.372
REMARK  Name = 
REMARK  5 active torsions:
REMARK  status: ('A' for Active; 'I' for Inactive)
REMARK    1  A    between atoms: C_2  and  C_13
REMARK    2  A    between atoms: N_3  and  C_4
REMARK    3  A    between atoms: C_17  and  O_18
REMARK    4  A    between atoms: O_18  and  C_19
REMARK    5  A    between atoms: C_19  and  C_20
REMARK                            x       y       z     vdW  Elec       q    Type
REMARK                         _______ _______ _______ _____ _____    ______ ____
ROOT
ATOM      1  O   UNL     1       2.423   8.913  17.661  0.00  0.00    +0.000 OA
ATOM      2  C   UNL     1       2.501   7.917  18.368  0.00  0.00    +0.000 C 
ATOM      3  N   UNL     1       2.013   7.761  19.655  0.00  0.00    +0.000 N 
ATOM      4  H   UNL     1       2.353   6.974  20.192  0.00  0.00    +0.000 HD
ENDROOT
BRANCH   3   5
ATOM      5  C   UNL     1       1.300   8.742  20.378  0.00  0.00    +0.000 A 
ATOM      6  C   UNL     1       1.255   8.759  21.773  0.00  0.00    +0.000 A 
ATOM      7  C   UNL     1       0.441   9.664  22.462  0.00  0.00    +0.000 A 
ATOM      8  C   UNL     1      -0.349  10.568  21.734  0.00  0.00    +0.000 A 
ATOM      9  C   UNL     1      -1.317  11.541  22.096  0.00  0.00    +0.000 A 
ATOM     10  C   UNL     1      -1.782  12.117  20.936  0.00  0.00    +0.000 A 
ATOM     11  N   UNL     1      -1.113  11.547  19.885  0.00  0.00    +0.000 N 
ATOM     12  C   UNL     1      -0.246  10.580  20.343  0.00  0.00    +0.000 A 
ATOM     13  C   UNL     1       0.594   9.705  19.639  0.00  0.00    +0.000 A 
ATOM     14  H   UNL     1      -1.260  11.774  18.913  0.00  0.00    +0.000 HD
ENDBRANCH   3   5
BRANCH   2  15
ATOM     15  C   UNL     1       3.246   6.754  17.827  0.00  0.00    +0.000 A 
ATOM     16  C   UNL     1       4.509   6.961  17.261  0.00  0.00    +0.000 A 
ATOM     17  C   UNL     1       5.204   5.888  16.706  0.00  0.00    +0.000 A 
ATOM     18  C   UNL     1       4.622   4.620  16.688  0.00  0.00    +0.000 A 
ATOM     19  C   UNL     1       3.338   4.423  17.206  0.00  0.00    +0.000 A 
ATOM     20  C   UNL     1       2.662   5.486  17.805  0.00  0.00    +0.000 A 
BRANCH  19  21
ATOM     21  O   UNL     1       2.822   3.163  17.069  0.00  0.00    +0.000 OA
BRANCH  21  22
ATOM     22  C   UNL     1       3.316   2.206  18.015  0.00  0.00    +0.000 C 
BRANCH  22  23
ATOM     23  C   UNL     1       2.672   2.385  19.357  0.00  0.00    +0.000 A 
ATOM     24  C   UNL     1       1.307   2.641  19.512  0.00  0.00    +0.000 A 
ATOM     25  C   UNL     1       0.792   2.871  20.780  0.00  0.00    +0.000 A 
ATOM     26  C   UNL     1       1.662   2.853  21.857  0.00  0.00    +0.000 A 
ATOM     27  N   UNL     1       2.989   2.627  21.748  0.00  0.00    +0.000 NA
ATOM     28  C   UNL     1       3.462   2.405  20.503  0.00  0.00    +0.000 A 
ENDBRANCH  22  23
ENDBRANCH  21  22
ENDBRANCH  19  21
ENDBRANCH   2  15
TORSDOF 5
ENDMDL
MODEL 5
REMARK VINA RESULT:      -8.4      2.239      2.475
REMARK  Name = 
REMARK  5 active torsions:
REMARK  status: ('A' for Active; 'I' for Inactive)
REMARK    1  A    between atoms: C_2  and  C_13
REMARK    2  A    between atoms: N_3  and  C_4
REMARK    3  A    between atoms: C_17  and  O_18
REMARK    4  A    between atoms: O_18  and  C_19
REMARK    5  A    between atoms: C_19  and  C_20
REMARK                            x       y       z     vdW  Elec       q    Type
REMARK                         _______ _______ _______ _____ _____    ______ ____
ROOT
ATOM      1  O   UNL     1       2.233   7.692  19.772  0.00  0.00    +0.000 OA
ATOM      2  C   UNL     1       2.443   7.783  18.569  0.00  0.00    +0.000 C 
ATOM      3  N   UNL     1       2.001   8.778  17.713  0.00  0.00    +0.000 N 
ATOM      4  H   UNL     1       2.055   8.598  16.719  0.00  0.00    +0.000 HD
ENDROOT
BRANCH   3   5
ATOM      5  C   UNL     1       1.233   9.899  18.098  0.00  0.00    +0.000 A 
ATOM      6  C   UNL     1      -0.163   9.894  18.079  0.00  0.00    +0.000 A 
ATOM      7  C   UNL     1      -0.897  11.055  18.343  0.00  0.00    +0.000 A 
ATOM      8  C   UNL     1      -0.214  12.248  18.627  0.00  0.00    +0.000 A 
ATOM      9  C   UNL     1      -0.627  13.586  18.860  0.00  0.00    +0.000 A 
ATOM     10  C   UNL     1       0.504  14.342  19.066  0.00  0.00    +0.000 A 
ATOM     11  N   UNL     1       1.587  13.506  18.993  0.00  0.00    +0.000 N 
ATOM     12  C   UNL     1       1.179  12.223  18.703  0.00  0.00    +0.000 A 
ATOM     13  C   UNL     1       1.928  11.059  18.478  0.00  0.00    +0.000 A 
ATOM     14  H   UNL     1       2.549  13.793  19.097  0.00  0.00    +0.000 HD
ENDBRANCH   3   5
BRANCH   2  15
ATOM     15  C   UNL     1       3.209   6.688  17.926  0.00  0.00    +0.000 A 
ATOM     16  C   UNL     1       4.410   6.992  17.276  0.00  0.00    +0.000 A 
ATOM     17  C   UNL     1       5.121   5.985  16.626  0.00  0.00    +0.000 A 
ATOM     18  C   UNL     1       4.614   4.684  16.601  0.00  0.00    +0.000 A 
ATOM     19  C   UNL     1       3.389   4.391  17.206  0.00  0.00    +0.000 A 
ATOM     20  C   UNL     1       2.701   5.389  17.898  0.00  0.00    +0.000 A 
BRANCH  19  21
ATOM     21  O   UNL     1       2.938   3.108  17.057  0.00  0.00    +0.000 OA
BRANCH  21  22
ATOM     22  C   UNL     1       3.432   2.181  18.032  0.00  0.00    +0.000 C 
BRANCH  22  23
ATOM     23  C   UNL     1       2.735   2.353  19.349  0.00  0.00    +0.000 A 
ATOM     24  C   UNL     1       1.358   2.566  19.453  0.00  0.00    +0.000 A 
ATOM     25  C   UNL     1       0.792   2.793  20.700  0.00  0.00    +0.000 A 
ATOM     26  C   UNL     1       1.623   2.817  21.806  0.00  0.00    +0.000 A 
ATOM     27  N   UNL     1       2.960   2.634  21.746  0.00  0.00    +0.000 NA
ATOM     28  C   UNL     1       3.484   2.413  20.521  0.00  0.00    +0.000 A 
ENDBRANCH  22  23
ENDBRANCH  21  22
ENDBRANCH  19  21
ENDBRANCH   2  15
TORSDOF 5
ENDMDL
MODEL 6
REMARK VINA RESULT:      -8.4      3.125      8.630
REMARK  Name = 
REMARK  5 active torsions:
REMARK  status: ('A' for Active; 'I' for Inactive)
REMARK    1  A    between atoms: C_2  and  C_13
REMARK    2  A    between atoms: N_3  and  C_4
REMARK    3  A    between atoms: C_17  and  O_18
REMARK    4  A    between atoms: O_18  and  C_19
REMARK    5  A    between atoms: C_19  and  C_20
REMARK                            x       y       z     vdW  Elec       q    Type
REMARK                         _______ _______ _______ _____ _____    ______ ____
ROOT
ATOM      1  O   UNL     1       2.441   6.084  20.422  0.00  0.00    +0.000 OA
ATOM      2  C   UNL     1       2.224   7.037  19.686  0.00  0.00    +0.000 C 
ATOM      3  N   UNL     1       2.642   7.197  18.375  0.00  0.00    +0.000 N 
ATOM      4  H   UNL     1       2.588   8.125  17.976  0.00  0.00    +0.000 HD
ENDROOT
BRANCH   3   5
ATOM      5  C   UNL     1       3.388   6.250  17.638  0.00  0.00    +0.000 A 
ATOM      6  C   UNL     1       3.111   4.883  17.677  0.00  0.00    +0.000 A 
ATOM      7  C   UNL     1       3.941   3.954  17.041  0.00  0.00    +0.000 A 
ATOM      8  C   UNL     1       5.077   4.409  16.355  0.00  0.00    +0.000 A 
ATOM      9  C   UNL     1       6.146   3.759  15.682  0.00  0.00    +0.000 A 
ATOM     10  C   UNL     1       6.997   4.733  15.213  0.00  0.00    +0.000 A 
ATOM     11  N   UNL     1       6.470   5.951  15.554  0.00  0.00    +0.000 N 
ATOM     12  C   UNL     1       5.308   5.783  16.273  0.00  0.00    +0.000 A 
ATOM     13  C   UNL     1       4.464   6.728  16.873  0.00  0.00    +0.000 A 
ATOM     14  H   UNL     1       6.892   6.845  15.344  0.00  0.00    +0.000 HD
ENDBRANCH   3   5
BRANCH   2  15
ATOM     15  C   UNL     1       1.478   8.184  20.257  0.00  0.00    +0.000 A 
ATOM     16  C   UNL     1       1.106   8.147  21.606  0.00  0.00    +0.000 A 
ATOM     17  C   UNL     1       0.365   9.195  22.149  0.00  0.00    +0.000 A 
ATOM     18  C   UNL     1      -0.031  10.259  21.337  0.00  0.00    +0.000 A 
ATOM     19  C   UNL     1       0.296  10.270  19.978  0.00  0.00    +0.000 A 
ATOM     20  C   UNL     1       1.079   9.246  19.444  0.00  0.00    +0.000 A 
BRANCH  19  21
ATOM     21  O   UNL     1      -0.206  11.314  19.249  0.00  0.00    +0.000 OA
BRANCH  21  22
ATOM     22  C   UNL     1      -1.605  11.561  19.439  0.00  0.00    +0.000 C 
BRANCH  22  23
ATOM     23  C   UNL     1      -2.395  11.179  18.224  0.00  0.00    +0.000 A 
ATOM     24  C   UNL     1      -1.853  10.434  17.173  0.00  0.00    +0.000 A 
ATOM     25  C   UNL     1      -2.619  10.182  16.044  0.00  0.00    +0.000 A 
ATOM     26  C   UNL     1      -3.904  10.695  15.992  0.00  0.00    +0.000 A 
ATOM     27  N   UNL     1      -4.459  11.433  16.978  0.00  0.00    +0.000 NA
ATOM     28  C   UNL     1      -3.691  11.662  18.065  0.00  0.00    +0.000 A 
ENDBRANCH  22  23
ENDBRANCH  21  22
ENDBRANCH  19  21
ENDBRANCH   2  15
TORSDOF 5
ENDMDL
MODEL 7
REMARK VINA RESULT:      -8.4      2.067      2.143
REMARK  Name = 
REMARK  5 active torsions:
REMARK  status: ('A' for Active; 'I' for Inactive)
REMARK    1  A    between atoms: C_2  and  C_13
REMARK    2  A    between atoms: N_3  and  C_4
REMARK    3  A    between atoms: C_17  and  O_18
REMARK    4  A    between atoms: O_18  and  C_19
REMARK    5  A    between atoms: C_19  and  C_20
REMARK                            x       y       z     vdW  Elec       q    Type
REMARK                         _______ _______ _______ _____ _____    ______ ____
ROOT
ATOM      1  O   UNL     1       2.171   7.765  19.877  0.00  0.00    +0.000 OA
ATOM      2  C   UNL     1       2.293   7.779  18.659  0.00  0.00    +0.000 C 
ATOM      3  N   UNL     1       1.806   8.731  17.778  0.00  0.00    +0.000 N 
ATOM      4  H   UNL     1       1.783   8.491  16.796  0.00  0.00    +0.000 HD
ENDROOT
BRANCH   3   5
ATOM      5  C   UNL     1       1.089   9.890  18.149  0.00  0.00    +0.000 A 
ATOM      6  C   UNL     1       1.713  11.018  18.684  0.00  0.00    +0.000 A 
ATOM      7  C   UNL     1       0.969  12.102  19.161  0.00  0.00    +0.000 A 
ATOM      8  C   UNL     1      -0.433  12.050  19.102  0.00  0.00    +0.000 A 
ATOM      9  C   UNL     1      -1.469  12.911  19.550  0.00  0.00    +0.000 A 
ATOM     10  C   UNL     1      -2.669  12.321  19.231  0.00  0.00    +0.000 A 
ATOM     11  N   UNL     1      -2.400  11.145  18.581  0.00  0.00    +0.000 N 
ATOM     12  C   UNL     1      -1.039  10.943  18.508  0.00  0.00    +0.000 A 
ATOM     13  C   UNL     1      -0.306   9.865  17.993  0.00  0.00    +0.000 A 
ATOM     14  H   UNL     1      -3.096  10.499  18.239  0.00  0.00    +0.000 HD
ENDBRANCH   3   5
BRANCH   2  15
ATOM     15  C   UNL     1       2.990   6.631  18.030  0.00  0.00    +0.000 A 
ATOM     16  C   UNL     1       4.270   6.823  17.499  0.00  0.00    +0.000 A 
ATOM     17  C   UNL     1       4.922   5.768  16.863  0.00  0.00    +0.000 A 
ATOM     18  C   UNL     1       4.280   4.535  16.731  0.00  0.00    +0.000 A 
ATOM     19  C   UNL     1       2.981   4.359  17.215  0.00  0.00    +0.000 A 
ATOM     20  C   UNL     1       2.347   5.400  17.894  0.00  0.00    +0.000 A 
BRANCH  19  21
ATOM     21  O   UNL     1       2.408   3.141  16.965  0.00  0.00    +0.000 OA
BRANCH  21  22
ATOM     22  C   UNL     1       2.904   2.067  17.773  0.00  0.00    +0.000 C 
BRANCH  22  23
ATOM     23  C   UNL     1       2.573   2.277  19.220  0.00  0.00    +0.000 A 
ATOM     24  C   UNL     1       1.278   2.552  19.668  0.00  0.00    +0.000 A 
ATOM     25  C   UNL     1       1.057   2.811  21.013  0.00  0.00    +0.000 A 
ATOM     26  C   UNL     1       2.143   2.803  21.872  0.00  0.00    +0.000 A 
ATOM     27  N   UNL     1       3.412   2.560  21.477  0.00  0.00    +0.000 NA
ATOM     28  C   UNL     1       3.597   2.310  20.163  0.00  0.00    +0.000 A 
ENDBRANCH  22  23
ENDBRANCH  21  22
ENDBRANCH  19  21
ENDBRANCH   2  15
TORSDOF 5
ENDMDL
MODEL 8
REMARK VINA RESULT:      -8.4      4.600      6.370
REMARK  Name = 
REMARK  5 active torsions:
REMARK  status: ('A' for Active; 'I' for Inactive)
REMARK    1  A    between atoms: C_2  and  C_13
REMARK    2  A    between atoms: N_3  and  C_4
REMARK    3  A    between atoms: C_17  and  O_18
REMARK    4  A    between atoms: O_18  and  C_19
REMARK    5  A    between atoms: C_19  and  C_20
REMARK                            x       y       z     vdW  Elec       q    Type
REMARK                         _______ _______ _______ _____ _____    ______ ____
ROOT
ATOM      1  O   UNL     1       8.350   6.825  18.896  0.00  0.00    +0.000 OA
ATOM      2  C   UNL     1       7.618   7.239  18.007  0.00  0.00    +0.000 C 
ATOM      3  N   UNL     1       7.525   8.538  17.534  0.00  0.00    +0.000 N 
ATOM      4  H   UNL     1       6.720   8.772  16.967  0.00  0.00    +0.000 HD
ENDROOT
BRANCH   3   5
ATOM      5  C   UNL     1       8.298   9.627  17.992  0.00  0.00    +0.000 A 
ATOM      6  C   UNL     1       9.147   9.533  19.096  0.00  0.00    +0.000 A 
ATOM      7  C   UNL     1       9.804  10.657  19.606  0.00  0.00    +0.000 A 
ATOM      8  C   UNL     1       9.598  11.905  18.997  0.00  0.00    +0.000 A 
ATOM      9  C   UNL     1      10.031  13.225  19.291  0.00  0.00    +0.000 A 
ATOM     10  C   UNL     1       9.489  14.062  18.343  0.00  0.00    +0.000 A 
ATOM     11  N   UNL     1       8.765  13.294  17.469  0.00  0.00    +0.000 N 
ATOM     12  C   UNL     1       8.796  11.973  17.859  0.00  0.00    +0.000 A 
ATOM     13  C   UNL     1       8.161  10.848  17.313  0.00  0.00    +0.000 A 
ATOM     14  H   UNL     1       8.249  13.648  16.676  0.00  0.00    +0.000 HD
ENDBRANCH   3   5
BRANCH   2  15
ATOM     15  C   UNL     1       6.679   6.271  17.391  0.00  0.00    +0.000 A 
ATOM     16  C   UNL     1       7.119   5.489  16.317  0.00  0.00    +0.000 A 
ATOM     17  C   UNL     1       6.238   4.606  15.695  0.00  0.00    +0.000 A 
ATOM     18  C   UNL     1       4.913   4.532  16.126  0.00  0.00    +0.000 A 
ATOM     19  C   UNL     1       4.459   5.350  17.164  0.00  0.00    +0.000 A 
ATOM     20  C   UNL     1       5.353   6.199  17.819  0.00  0.00    +0.000 A 
BRANCH  19  21
ATOM     21  O   UNL     1       3.126   5.263  17.459  0.00  0.00    +0.000 OA
BRANCH  21  22
ATOM     22  C   UNL     1       2.770   5.719  18.770  0.00  0.00    +0.000 C 
BRANCH  22  23
ATOM     23  C   UNL     1       2.264   4.592  19.620  0.00  0.00    +0.000 A 
ATOM     24  C   UNL     1       1.332   3.658  19.160  0.00  0.00    +0.000 A 
ATOM     25  C   UNL     1       0.850   2.686  20.026  0.00  0.00    +0.000 A 
ATOM     26  C   UNL     1       1.304   2.685  21.333  0.00  0.00    +0.000 A 
ATOM     27  N   UNL     1       2.190   3.580  21.822  0.00  0.00    +0.000 NA
ATOM     28  C   UNL     1       2.643   4.513  20.957  0.00  0.00    +0.000 A 
ENDBRANCH  22  23
ENDBRANCH  21  22
ENDBRANCH  19  21
ENDBRANCH   2  15
TORSDOF 5
ENDMDL
MODEL 9
REMARK VINA RESULT:      -8.3      4.787      6.433
REMARK  Name = 
REMARK  5 active torsions:
REMARK  status: ('A' for Active; 'I' for Inactive)
REMARK    1  A    between atoms: C_2  and  C_13
REMARK    2  A    between atoms: N_3  and  C_4
REMARK    3  A    between atoms: C_17  and  O_18
REMARK    4  A    between atoms: O_18  and  C_19
REMARK    5  A    between atoms: C_19  and  C_20
REMARK                            x       y       z     vdW  Elec       q    Type
REMARK                         _______ _______ _______ _____ _____    ______ ____
ROOT
ATOM      1  O   UNL     1       8.672   7.213  19.044  0.00  0.00    +0.000 OA
ATOM      2  C   UNL     1       7.835   7.598  18.238  0.00  0.00    +0.000 C 
ATOM      3  N   UNL     1       7.652   8.888  17.769  0.00  0.00    +0.000 N 
ATOM      4  H   UNL     1       6.784   9.094  17.292  0.00  0.00    +0.000 HD
ENDROOT
BRANCH   3   5
ATOM      5  C   UNL     1       8.438  10.004  18.133  0.00  0.00    +0.000 A 
ATOM      6  C   UNL     1       9.366   9.960  19.174  0.00  0.00    +0.000 A 
ATOM      7  C   UNL     1      10.039  11.111  19.597  0.00  0.00    +0.000 A 
ATOM      8  C   UNL     1       9.771  12.333  18.962  0.00  0.00    +0.000 A 
ATOM      9  C   UNL     1      10.202  13.669  19.178  0.00  0.00    +0.000 A 
ATOM     10  C   UNL     1       9.581  14.464  18.242  0.00  0.00    +0.000 A 
ATOM     11  N   UNL     1       8.808  13.655  17.450  0.00  0.00    +0.000 N 
ATOM     12  C   UNL     1       8.888  12.350  17.882  0.00  0.00    +0.000 A 
ATOM     13  C   UNL     1       8.234  11.198  17.422  0.00  0.00    +0.000 A 
ATOM     14  H   UNL     1       8.232  13.974  16.684  0.00  0.00    +0.000 HD
ENDBRANCH   3   5
BRANCH   2  15
ATOM     15  C   UNL     1       6.863   6.597  17.735  0.00  0.00    +0.000 A 
ATOM     16  C   UNL     1       6.140   6.880  16.570  0.00  0.00    +0.000 A 
ATOM     17  C   UNL     1       5.189   5.972  16.107  0.00  0.00    +0.000 A 
ATOM     18  C   UNL     1       4.940   4.802  16.826  0.00  0.00    +0.000 A 
ATOM     19  C   UNL     1       5.625   4.544  18.017  0.00  0.00    +0.000 A 
ATOM     20  C   UNL     1       6.611   5.429  18.455  0.00  0.00    +0.000 A 
BRANCH  19  21
ATOM     21  O   UNL     1       5.253   3.412  18.691  0.00  0.00    +0.000 OA
BRANCH  21  22
ATOM     22  C   UNL     1       3.988   2.868  18.296  0.00  0.00    +0.000 C 
BRANCH  22  23
ATOM     23  C   UNL     1       3.017   2.861  19.438  0.00  0.00    +0.000 A 
ATOM     24  C   UNL     1       1.691   3.281  19.306  0.00  0.00    +0.000 A 
ATOM     25  C   UNL     1       0.869   3.321  20.423  0.00  0.00    +0.000 A 
ATOM     26  C   UNL     1       1.402   2.954  21.646  0.00  0.00    +0.000 A 
ATOM     27  N   UNL     1       2.683   2.559  21.820  0.00  0.00    +0.000 NA
ATOM     28  C   UNL     1       3.459   2.529  20.716  0.00  0.00    +0.000 A 
ENDBRANCH  22  23
ENDBRANCH  21  22
ENDBRANCH  19  21
ENDBRANCH   2  15
TORSDOF 5
ENDMDL
