MODEL 1
REMARK VINA RESULT:      -8.1      0.000      0.000
REMARK  Name = 
REMARK  4 active torsions:
REMARK  status: ('A' for Active; 'I' for Inactive)
REMARK    1  A    between atoms: C_1  and  C_2
REMARK    2  A    between atoms: C_6  and  C_7
REMARK    3  A    between atoms: C_7  and  N_8
REMARK    4  A    between atoms: C_16  and  C_17
REMARK                            x       y       z     vdW  Elec       q    Type
REMARK                         _______ _______ _______ _____ _____    ______ ____
ROOT
ATOM      1  N   UNL     1       2.341   5.720  20.080  0.00  0.00    +0.000 NA
ATOM      2  C   UNL     1       1.109   5.103  20.563  0.00  0.00    +0.000 C 
ATOM      3  C   UNL     1       0.930   3.627  20.220  0.00  0.00    +0.000 C 
ATOM      4  N   UNL     1       1.676   3.216  19.055  0.00  0.00    +0.000 N 
ATOM      5  C   UNL     1       1.734   1.930  18.593  0.00  0.00    +0.000 A 
ATOM      6  C   UNL     1       2.513   1.928  17.460  0.00  0.00    +0.000 A 
ATOM      7  C   UNL     1       2.950   3.258  17.253  0.00  0.00    +0.000 A 
ATOM      8  C   UNL     1       2.486   4.033  18.305  0.00  0.00    +0.000 A 
ATOM      9  C   UNL     1       2.782   5.477  18.695  0.00  0.00    +0.000 C 
ENDROOT
BRANCH   9  10
ATOM     10  C   UNL     1       4.294   5.795  18.485  0.00  0.00    +0.000 A 
ATOM     11  C   UNL     1       5.274   5.231  19.324  0.00  0.00    +0.000 A 
ATOM     12  C   UNL     1       6.640   5.471  19.110  0.00  0.00    +0.000 A 
ATOM     13  C   UNL     1       7.067   6.287  18.061  0.00  0.00    +0.000 A 
ATOM     14  C   UNL     1       6.117   6.865  17.224  0.00  0.00    +0.000 A 
ATOM     15  C   UNL     1       4.753   6.625  17.442  0.00  0.00    +0.000 A 
ENDBRANCH   9  10
BRANCH   1  16
ATOM     16  C   UNL     1       2.579   7.017  20.679  0.00  0.00    +0.000 C 
BRANCH  16  22
ATOM     17  C   UNL     1      -1.361  11.724  23.247  0.00  0.00    +0.000 C 
ATOM     18  C   UNL     1      -0.836  10.698  22.299  0.00  0.00    +0.000 A 
ATOM     19  C   UNL     1      -0.684   9.382  22.710  0.00  0.00    +0.000 A 
ATOM     20  C   UNL     1       0.052   8.498  21.923  0.00  0.00    +0.000 A 
ATOM     21  C   UNL     1       0.701   8.893  20.751  0.00  0.00    +0.000 A 
ATOM     22  C   UNL     1       1.771   8.145  20.048  0.00  0.00    +0.000 A 
ATOM     23  C   UNL     1       2.145   8.599  18.844  0.00  0.00    +0.000 A 
ATOM     24  C   UNL     1       1.581   9.804  18.211  0.00  0.00    +0.000 A 
ATOM     25  O   UNL     1       1.899  10.114  17.071  0.00  0.00    +0.000 OA
ATOM     26  O   UNL     1       0.748  10.583  18.989  0.00  0.00    +0.000 OA
ATOM     27  C   UNL     1       0.343  10.146  20.261  0.00  0.00    +0.000 A 
ATOM     28  C   UNL     1      -0.417  11.046  21.013  0.00  0.00    +0.000 A 
ENDBRANCH  16  22
ENDBRANCH   1  16
TORSDOF 3
ENDMDL
MODEL 2
REMARK VINA RESULT:      -8.0      2.984      7.276
REMARK  Name = 
REMARK  4 active torsions:
REMARK  status: ('A' for Active; 'I' for Inactive)
REMARK    1  A    between atoms: C_1  and  C_2
REMARK    2  A    between atoms: C_6  and  C_7
REMARK    3  A    between atoms: C_7  and  N_8
REMARK    4  A    between atoms: C_16  and  C_17
REMARK                            x       y       z     vdW  Elec       q    Type
REMARK                         _______ _______ _______ _____ _____    ______ ____
ROOT
ATOM      1  N   UNL     1       3.097   4.925  17.928  0.00  0.00    +0.000 NA
ATOM      2  C   UNL     1       3.340   3.540  17.533  0.00  0.00    +0.000 C 
ATOM      3  C   UNL     1       2.622   2.480  18.362  0.00  0.00    +0.000 C 
ATOM      4  N   UNL     1       2.279   2.927  19.690  0.00  0.00    +0.000 N 
ATOM      5  C   UNL     1       1.569   2.185  20.593  0.00  0.00    +0.000 A 
ATOM      6  C   UNL     1       1.460   2.923  21.748  0.00  0.00    +0.000 A 
ATOM      7  C   UNL     1       2.111   4.158  21.516  0.00  0.00    +0.000 A 
ATOM      8  C   UNL     1       2.544   4.176  20.198  0.00  0.00    +0.000 A 
ATOM      9  C   UNL     1       3.148   5.294  19.355  0.00  0.00    +0.000 C 
ENDROOT
BRANCH   9  10
ATOM     10  C   UNL     1       2.425   6.643  19.648  0.00  0.00    +0.000 A 
ATOM     11  C   UNL     1       2.355   7.653  18.670  0.00  0.00    +0.000 A 
ATOM     12  C   UNL     1       1.662   8.850  18.908  0.00  0.00    +0.000 A 
ATOM     13  C   UNL     1       1.028   9.078  20.130  0.00  0.00    +0.000 A 
ATOM     14  C   UNL     1       1.091   8.099  21.118  0.00  0.00    +0.000 A 
ATOM     15  C   UNL     1       1.786   6.906  20.877  0.00  0.00    +0.000 A 
ENDBRANCH   9  10
BRANCH   1  16
ATOM     16  C   UNL     1       3.568   5.871  16.938  0.00  0.00    +0.000 C 
BRANCH  16  22
ATOM     17  C   UNL     1       7.288   4.178  11.688  0.00  0.00    +0.000 C 
ATOM     18  C   UNL     1       6.854   4.336  13.107  0.00  0.00    +0.000 A 
ATOM     19  C   UNL     1       5.665   3.770  13.539  0.00  0.00    +0.000 A 
ATOM     20  C   UNL     1       5.135   4.145  14.772  0.00  0.00    +0.000 A 
ATOM     21  C   UNL     1       5.723   5.118  15.582  0.00  0.00    +0.000 A 
ATOM     22  C   UNL     1       5.074   5.828  16.710  0.00  0.00    +0.000 A 
ATOM     23  C   UNL     1       5.857   6.599  17.478  0.00  0.00    +0.000 A 
ATOM     24  C   UNL     1       7.295   6.803  17.239  0.00  0.00    +0.000 A 
ATOM     25  O   UNL     1       7.973   7.447  18.029  0.00  0.00    +0.000 OA
ATOM     26  O   UNL     1       7.807   6.298  16.060  0.00  0.00    +0.000 OA
ATOM     27  C   UNL     1       7.015   5.494  15.224  0.00  0.00    +0.000 A 
ATOM     28  C   UNL     1       7.586   5.113  14.007  0.00  0.00    +0.000 A 
ENDBRANCH  16  22
ENDBRANCH   1  16
TORSDOF 3
ENDMDL
MODEL 3
REMARK VINA RESULT:      -7.9      5.886     10.279
REMARK  Name = 
REMARK  4 active torsions:
REMARK  status: ('A' for Active; 'I' for Inactive)
REMARK    1  A    between atoms: C_1  and  C_2
REMARK    2  A    between atoms: C_6  and  C_7
REMARK    3  A    between atoms: C_7  and  N_8
REMARK    4  A    between atoms: C_16  and  C_17
REMARK                            x       y       z     vdW  Elec       q    Type
REMARK                         _______ _______ _______ _____ _____    ______ ____
ROOT
ATOM      1  N   UNL     1      -3.135  12.945  21.099  0.00  0.00    +0.000 NA
ATOM      2  C   UNL     1      -2.208  12.867  22.224  0.00  0.00    +0.000 C 
ATOM      3  C   UNL     1      -2.811  12.405  23.547  0.00  0.00    +0.000 C 
ATOM      4  N   UNL     1      -4.230  12.643  23.643  0.00  0.00    +0.000 N 
ATOM      5  C   UNL     1      -5.007  12.251  24.699  0.00  0.00    +0.000 A 
ATOM      6  C   UNL     1      -6.293  12.670  24.450  0.00  0.00    +0.000 A 
ATOM      7  C   UNL     1      -6.284  13.316  23.191  0.00  0.00    +0.000 A 
ATOM      8  C   UNL     1      -5.005  13.216  22.664  0.00  0.00    +0.000 A 
ATOM      9  C   UNL     1      -4.456  13.573  21.287  0.00  0.00    +0.000 C 
ENDROOT
BRANCH   9  10
ATOM     10  C   UNL     1      -5.473  13.168  20.177  0.00  0.00    +0.000 A 
ATOM     11  C   UNL     1      -6.024  11.873  20.140  0.00  0.00    +0.000 A 
ATOM     12  C   UNL     1      -6.979  11.517  19.175  0.00  0.00    +0.000 A 
ATOM     13  C   UNL     1      -7.404  12.436  18.216  0.00  0.00    +0.000 A 
ATOM     14  C   UNL     1      -6.867  13.720  18.225  0.00  0.00    +0.000 A 
ATOM     15  C   UNL     1      -5.912  14.072  19.188  0.00  0.00    +0.000 A 
ENDBRANCH   9  10
BRANCH   1  16
ATOM     16  C   UNL     1      -2.453  13.106  19.831  0.00  0.00    +0.000 C 
BRANCH  16  22
ATOM     17  C   UNL     1      -3.599  10.100  14.007  0.00  0.00    +0.000 C 
ATOM     18  C   UNL     1      -3.337  10.280  15.466  0.00  0.00    +0.000 A 
ATOM     19  C   UNL     1      -4.219  11.010  16.247  0.00  0.00    +0.000 A 
ATOM     20  C   UNL     1      -3.838  11.402  17.529  0.00  0.00    +0.000 A 
ATOM     21  C   UNL     1      -2.570  11.139  18.052  0.00  0.00    +0.000 A 
ATOM     22  C   UNL     1      -1.954  11.799  19.228  0.00  0.00    +0.000 A 
ATOM     23  C   UNL     1      -0.802  11.287  19.683  0.00  0.00    +0.000 A 
ATOM     24  C   UNL     1      -0.110  10.146  19.060  0.00  0.00    +0.000 A 
ATOM     25  O   UNL     1       0.892   9.668  19.576  0.00  0.00    +0.000 OA
ATOM     26  O   UNL     1      -0.605   9.704  17.849  0.00  0.00    +0.000 OA
ATOM     27  C   UNL     1      -1.804  10.224  17.335  0.00  0.00    +0.000 A 
ATOM     28  C   UNL     1      -2.172   9.789  16.059  0.00  0.00    +0.000 A 
ENDBRANCH  16  22
ENDBRANCH   1  16
TORSDOF 3
ENDMDL
MODEL 4
REMARK VINA RESULT:      -7.4      1.678      2.858
REMARK  Name = 
REMARK  4 active torsions:
REMARK  status: ('A' for Active; 'I' for Inactive)
REMARK    1  A    between atoms: C_1  and  C_2
REMARK    2  A    between atoms: C_6  and  C_7
REMARK    3  A    between atoms: C_7  and  N_8
REMARK    4  A    between atoms: C_16  and  C_17
REMARK                            x       y       z     vdW  Elec       q    Type
REMARK                         _______ _______ _______ _____ _____    ______ ____
ROOT
ATOM      1  N   UNL     1       2.415   6.389  19.889  0.00  0.00    +0.000 NA
ATOM      2  C   UNL     1       1.180   6.027  20.578  0.00  0.00    +0.000 C 
ATOM      3  C   UNL     1       0.796   4.552  20.516  0.00  0.00    +0.000 C 
ATOM      4  N   UNL     1       1.357   3.862  19.380  0.00  0.00    +0.000 N 
ATOM      5  C   UNL     1       1.216   2.521  19.147  0.00  0.00    +0.000 A 
ATOM      6  C   UNL     1       1.862   2.232  17.967  0.00  0.00    +0.000 A 
ATOM      7  C   UNL     1       2.424   3.441  17.493  0.00  0.00    +0.000 A 
ATOM      8  C   UNL     1       2.170   4.432  18.431  0.00  0.00    +0.000 A 
ATOM      9  C   UNL     1       2.672   5.868  18.534  0.00  0.00    +0.000 C 
ENDROOT
BRANCH   9  10
ATOM     10  C   UNL     1       4.178   5.944  18.140  0.00  0.00    +0.000 A 
ATOM     11  C   UNL     1       4.591   6.658  17.000  0.00  0.00    +0.000 A 
ATOM     12  C   UNL     1       5.950   6.776  16.667  0.00  0.00    +0.000 A 
ATOM     13  C   UNL     1       6.933   6.176  17.455  0.00  0.00    +0.000 A 
ATOM     14  C   UNL     1       6.550   5.456  18.583  0.00  0.00    +0.000 A 
ATOM     15  C   UNL     1       5.192   5.339  18.911  0.00  0.00    +0.000 A 
ENDBRANCH   9  10
BRANCH   1  16
ATOM     16  C   UNL     1       2.865   7.723  20.228  0.00  0.00    +0.000 C 
BRANCH  16  22
ATOM     17  C   UNL     1      -2.478  10.134  17.081  0.00  0.00    +0.000 C 
ATOM     18  C   UNL     1      -1.300  10.067  17.996  0.00  0.00    +0.000 A 
ATOM     19  C   UNL     1      -0.034   9.826  17.484  0.00  0.00    +0.000 A 
ATOM     20  C   UNL     1       1.005   9.496  18.352  0.00  0.00    +0.000 A 
ATOM     21  C   UNL     1       0.818   9.338  19.726  0.00  0.00    +0.000 A 
ATOM     22  C   UNL     1       1.745   8.660  20.664  0.00  0.00    +0.000 A 
ATOM     23  C   UNL     1       1.476   8.765  21.973  0.00  0.00    +0.000 A 
ATOM     24  C   UNL     1       0.305   9.475  22.515  0.00  0.00    +0.000 A 
ATOM     25  O   UNL     1       0.164   9.611  23.722  0.00  0.00    +0.000 OA
ATOM     26  O   UNL     1      -0.640   9.903  21.603  0.00  0.00    +0.000 OA
ATOM     27  C   UNL     1      -0.398   9.800  20.223  0.00  0.00    +0.000 A 
ATOM     28  C   UNL     1      -1.451  10.165  19.380  0.00  0.00    +0.000 A 
ENDBRANCH  16  22
ENDBRANCH   1  16
TORSDOF 3
ENDMDL
MODEL 5
REMARK VINA RESULT:      -7.3      6.269     11.028
REMARK  Name = 
REMARK  4 active torsions:
REMARK  status: ('A' for Active; 'I' for Inactive)
REMARK    1  A    between atoms: C_1  and  C_2
REMARK    2  A    between atoms: C_6  and  C_7
REMARK    3  A    between atoms: C_7  and  N_8
REMARK    4  A    between atoms: C_16  and  C_17
REMARK                            x       y       z     vdW  Elec       q    Type
REMARK                         _______ _______ _______ _____ _____    ______ ____
ROOT
ATOM      1  N   UNL     1      -5.944  13.025  18.364  0.00  0.00    +0.000 NA
ATOM      2  C   UNL     1      -6.626  13.294  17.101  0.00  0.00    +0.000 C 
ATOM      3  C   UNL     1      -6.876  14.764  16.785  0.00  0.00    +0.000 C 
ATOM      4  N   UNL     1      -6.918  15.603  17.958  0.00  0.00    +0.000 N 
ATOM      5  C   UNL     1      -7.056  16.964  17.927  0.00  0.00    +0.000 A 
ATOM      6  C   UNL     1      -7.080  17.411  19.227  0.00  0.00    +0.000 A 
ATOM      7  C   UNL     1      -6.930  16.277  20.060  0.00  0.00    +0.000 A 
ATOM      8  C   UNL     1      -6.746  15.167  19.249  0.00  0.00    +0.000 A 
ATOM      9  C   UNL     1      -6.372  13.728  19.586  0.00  0.00    +0.000 C 
ENDROOT
BRANCH   9  10
ATOM     10  C   UNL     1      -5.286  13.699  20.704  0.00  0.00    +0.000 A 
ATOM     11  C   UNL     1      -4.166  14.549  20.644  0.00  0.00    +0.000 A 
ATOM     12  C   UNL     1      -3.209  14.566  21.672  0.00  0.00    +0.000 A 
ATOM     13  C   UNL     1      -3.338  13.729  22.781  0.00  0.00    +0.000 A 
ATOM     14  C   UNL     1      -4.431  12.871  22.858  0.00  0.00    +0.000 A 
ATOM     15  C   UNL     1      -5.382  12.856  21.830  0.00  0.00    +0.000 A 
ENDBRANCH   9  10
BRANCH   1  16
ATOM     16  C   UNL     1      -5.487  11.654  18.462  0.00  0.00    +0.000 C 
BRANCH  16  22
ATOM     17  C   UNL     1       0.701   9.862  20.128  0.00  0.00    +0.000 C 
ATOM     18  C   UNL     1      -0.419  10.519  19.391  0.00  0.00    +0.000 A 
ATOM     19  C   UNL     1      -1.272  11.389  20.052  0.00  0.00    +0.000 A 
ATOM     20  C   UNL     1      -2.462  11.780  19.441  0.00  0.00    +0.000 A 
ATOM     21  C   UNL     1      -2.870  11.287  18.201  0.00  0.00    +0.000 A 
ATOM     22  C   UNL     1      -4.240  11.358  17.638  0.00  0.00    +0.000 A 
ATOM     23  C   UNL     1      -4.395  10.987  16.359  0.00  0.00    +0.000 A 
ATOM     24  C   UNL     1      -3.300  10.486  15.512  0.00  0.00    +0.000 A 
ATOM     25  O   UNL     1      -3.489  10.249  14.327  0.00  0.00    +0.000 OA
ATOM     26  O   UNL     1      -2.094  10.235  16.137  0.00  0.00    +0.000 OA
ATOM     27  C   UNL     1      -1.897  10.600  17.479  0.00  0.00    +0.000 A 
ATOM     28  C   UNL     1      -0.682  10.217  18.054  0.00  0.00    +0.000 A 
ENDBRANCH  16  22
ENDBRANCH   1  16
TORSDOF 3
ENDMDL
MODEL 6
REMARK VINA RESULT:      -7.3      4.054      9.531
REMARK  Name = 
REMARK  4 active torsions:
REMARK  status: ('A' for Active; 'I' for Inactive)
REMARK    1  A    between atoms: C_1  and  C_2
REMARK    2  A    between atoms: C_6  and  C_7
REMARK    3  A    between atoms: C_7  and  N_8
REMARK    4  A    between atoms: C_16  and  C_17
REMARK                            x       y       z     vdW  Elec       q    Type
REMARK                         _______ _______ _______ _____ _____    ______ ____
ROOT
ATOM      1  N   UNL     1      -2.445  12.439  20.053  0.00  0.00    +0.000 NA
ATOM      2  C   UNL     1      -2.945  11.678  18.913  0.00  0.00    +0.000 C 
ATOM      3  C   UNL     1      -4.402  11.928  18.538  0.00  0.00    +0.000 C 
ATOM      4  N   UNL     1      -5.199  12.418  19.636  0.00  0.00    +0.000 N 
ATOM      5  C   UNL     1      -6.513  12.785  19.530  0.00  0.00    +0.000 A 
ATOM      6  C   UNL     1      -6.940  13.172  20.778  0.00  0.00    +0.000 A 
ATOM      7  C   UNL     1      -5.835  13.051  21.653  0.00  0.00    +0.000 A 
ATOM      8  C   UNL     1      -4.734  12.658  20.906  0.00  0.00    +0.000 A 
ATOM      9  C   UNL     1      -3.261  12.536  21.277  0.00  0.00    +0.000 C 
ENDROOT
BRANCH   9  10
ATOM     10  C   UNL     1      -2.831  13.726  22.188  0.00  0.00    +0.000 A 
ATOM     11  C   UNL     1      -2.828  15.046  21.698  0.00  0.00    +0.000 A 
ATOM     12  C   UNL     1      -2.493  16.128  22.526  0.00  0.00    +0.000 A 
ATOM     13  C   UNL     1      -2.142  15.925  23.861  0.00  0.00    +0.000 A 
ATOM     14  C   UNL     1      -2.127  14.628  24.367  0.00  0.00    +0.000 A 
ATOM     15  C   UNL     1      -2.461  13.550  23.537  0.00  0.00    +0.000 A 
ENDBRANCH   9  10
BRANCH   1  16
ATOM     16  C   UNL     1      -1.002  12.372  20.171  0.00  0.00    +0.000 C 
BRANCH  16  22
ATOM     17  C   UNL     1       3.170   7.831  17.674  0.00  0.00    +0.000 C 
ATOM     18  C   UNL     1       2.013   8.416  18.413  0.00  0.00    +0.000 A 
ATOM     19  C   UNL     1       1.076   9.187  17.742  0.00  0.00    +0.000 A 
ATOM     20  C   UNL     1       0.165   9.948  18.471  0.00  0.00    +0.000 A 
ATOM     21  C   UNL     1       0.185  10.017  19.866  0.00  0.00    +0.000 A 
ATOM     22  C   UNL     1      -0.487  11.040  20.702  0.00  0.00    +0.000 A 
ATOM     23  C   UNL     1      -0.499  10.835  22.027  0.00  0.00    +0.000 A 
ATOM     24  C   UNL     1       0.144   9.685  22.684  0.00  0.00    +0.000 A 
ATOM     25  O   UNL     1       0.020   9.508  23.889  0.00  0.00    +0.000 OA
ATOM     26  O   UNL     1       0.936   8.878  21.892  0.00  0.00    +0.000 OA
ATOM     27  C   UNL     1       0.983   9.068  20.501  0.00  0.00    +0.000 A 
ATOM     28  C   UNL     1       1.888   8.270  19.796  0.00  0.00    +0.000 A 
ENDBRANCH  16  22
ENDBRANCH   1  16
TORSDOF 3
ENDMDL
MODEL 7
REMARK VINA RESULT:      -7.2      3.968      9.156
REMARK  Name = 
REMARK  4 active torsions:
REMARK  status: ('A' for Active; 'I' for Inactive)
REMARK    1  A    between atoms: C_1  and  C_2
REMARK    2  A    between atoms: C_6  and  C_7
REMARK    3  A    between atoms: C_7  and  N_8
REMARK    4  A    between atoms: C_16  and  C_17
REMARK                            x       y       z     vdW  Elec       q    Type
REMARK                         _______ _______ _______ _____ _____    ______ ____
ROOT
ATOM      1  N   UNL     1      -1.901  12.247  19.557  0.00  0.00    +0.000 NA
ATOM      2  C   UNL     1      -2.396  11.381  18.490  0.00  0.00    +0.000 C 
ATOM      3  C   UNL     1      -3.817  11.663  18.015  0.00  0.00    +0.000 C 
ATOM      4  N   UNL     1      -4.631  12.325  19.006  0.00  0.00    +0.000 N 
ATOM      5  C   UNL     1      -5.915  12.746  18.792  0.00  0.00    +0.000 A 
ATOM      6  C   UNL     1      -6.372  13.305  19.962  0.00  0.00    +0.000 A 
ATOM      7  C   UNL     1      -5.315  13.230  20.900  0.00  0.00    +0.000 A 
ATOM      8  C   UNL     1      -4.208  12.691  20.261  0.00  0.00    +0.000 A 
ATOM      9  C   UNL     1      -2.762  12.535  20.718  0.00  0.00    +0.000 C 
ENDROOT
BRANCH   9  10
ATOM     10  C   UNL     1      -2.303  13.802  21.502  0.00  0.00    +0.000 A 
ATOM     11  C   UNL     1      -2.010  13.734  22.877  0.00  0.00    +0.000 A 
ATOM     12  C   UNL     1      -1.546  14.858  23.579  0.00  0.00    +0.000 A 
ATOM     13  C   UNL     1      -1.372  16.082  22.932  0.00  0.00    +0.000 A 
ATOM     14  C   UNL     1      -1.665  16.178  21.575  0.00  0.00    +0.000 A 
ATOM     15  C   UNL     1      -2.129  15.054  20.878  0.00  0.00    +0.000 A 
ENDBRANCH   9  10
BRANCH   1  16
ATOM     16  C   UNL     1      -0.472  12.117  19.754  0.00  0.00    +0.000 C 
BRANCH  16  22
ATOM     17  C   UNL     1       3.495   7.134  17.828  0.00  0.00    +0.000 C 
ATOM     18  C   UNL     1       2.353   7.850  18.468  0.00  0.00    +0.000 A 
ATOM     19  C   UNL     1       1.487   8.610  17.697  0.00  0.00    +0.000 A 
ATOM     20  C   UNL     1       0.600   9.486  18.321  0.00  0.00    +0.000 A 
ATOM     21  C   UNL     1       0.579   9.679  19.703  0.00  0.00    +0.000 A 
ATOM     22  C   UNL     1      -0.057  10.810  20.420  0.00  0.00    +0.000 A 
ATOM     23  C   UNL     1      -0.124  10.728  21.756  0.00  0.00    +0.000 A 
ATOM     24  C   UNL     1       0.426   9.607  22.536  0.00  0.00    +0.000 A 
ATOM     25  O   UNL     1       0.252   9.547  23.746  0.00  0.00    +0.000 OA
ATOM     26  O   UNL     1       1.193   8.687  21.849  0.00  0.00    +0.000 OA
ATOM     27  C   UNL     1       1.296   8.747  20.450  0.00  0.00    +0.000 A 
ATOM     28  C   UNL     1       2.173   7.838  19.853  0.00  0.00    +0.000 A 
ENDBRANCH  16  22
ENDBRANCH   1  16
TORSDOF 3
ENDMDL
MODEL 8
REMARK VINA RESULT:      -7.2      1.941      4.212
REMARK  Name = 
REMARK  4 active torsions:
REMARK  status: ('A' for Active; 'I' for Inactive)
REMARK    1  A    between atoms: C_1  and  C_2
REMARK    2  A    between atoms: C_6  and  C_7
REMARK    3  A    between atoms: C_7  and  N_8
REMARK    4  A    between atoms: C_16  and  C_17
REMARK                            x       y       z     vdW  Elec       q    Type
REMARK                         _______ _______ _______ _____ _____    ______ ____
ROOT
ATOM      1  N   UNL     1       2.432   6.930  18.655  0.00  0.00    +0.000 NA
ATOM      2  C   UNL     1       3.081   7.975  17.870  0.00  0.00    +0.000 C 
ATOM      3  C   UNL     1       4.342   7.554  17.122  0.00  0.00    +0.000 C 
ATOM      4  N   UNL     1       5.000   6.412  17.708  0.00  0.00    +0.000 N 
ATOM      5  C   UNL     1       6.105   5.804  17.179  0.00  0.00    +0.000 A 
ATOM      6  C   UNL     1       6.460   4.775  18.019  0.00  0.00    +0.000 A 
ATOM      7  C   UNL     1       5.519   4.758  19.076  0.00  0.00    +0.000 A 
ATOM      8  C   UNL     1       4.566   5.734  18.822  0.00  0.00    +0.000 A 
ATOM      9  C   UNL     1       3.247   6.053  19.515  0.00  0.00    +0.000 C 
ENDROOT
BRANCH   9  10
ATOM     10  C   UNL     1       2.505   4.737  19.900  0.00  0.00    +0.000 A 
ATOM     11  C   UNL     1       1.992   3.881  18.908  0.00  0.00    +0.000 A 
ATOM     12  C   UNL     1       1.368   2.669  19.244  0.00  0.00    +0.000 A 
ATOM     13  C   UNL     1       1.230   2.282  20.577  0.00  0.00    +0.000 A 
ATOM     14  C   UNL     1       1.720   3.117  21.578  0.00  0.00    +0.000 A 
ATOM     15  C   UNL     1       2.340   4.327  21.239  0.00  0.00    +0.000 A 
ENDBRANCH   9  10
BRANCH   1  16
ATOM     16  C   UNL     1       1.106   7.315  19.096  0.00  0.00    +0.000 C 
BRANCH  16  22
ATOM     17  C   UNL     1      -2.846  12.655  19.460  0.00  0.00    +0.000 C 
ATOM     18  C   UNL     1      -1.613  11.816  19.518  0.00  0.00    +0.000 A 
ATOM     19  C   UNL     1      -1.174  11.144  18.387  0.00  0.00    +0.000 A 
ATOM     20  C   UNL     1      -0.196  10.159  18.511  0.00  0.00    +0.000 A 
ATOM     21  C   UNL     1       0.331   9.770  19.744  0.00  0.00    +0.000 A 
ATOM     22  C   UNL     1       1.090   8.526  20.020  0.00  0.00    +0.000 A 
ATOM     23  C   UNL     1       1.665   8.415  21.225  0.00  0.00    +0.000 A 
ATOM     24  C   UNL     1       1.552   9.432  22.284  0.00  0.00    +0.000 A 
ATOM     25  O   UNL     1       2.176   9.313  23.330  0.00  0.00    +0.000 OA
ATOM     26  O   UNL     1       0.664  10.466  22.061  0.00  0.00    +0.000 OA
ATOM     27  C   UNL     1       0.034  10.610  20.815  0.00  0.00    +0.000 A 
ATOM     28  C   UNL     1      -0.922  11.625  20.716  0.00  0.00    +0.000 A 
ENDBRANCH  16  22
ENDBRANCH   1  16
TORSDOF 3
ENDMDL
MODEL 9
REMARK VINA RESULT:      -7.2      6.352      9.716
REMARK  Name = 
REMARK  4 active torsions:
REMARK  status: ('A' for Active; 'I' for Inactive)
REMARK    1  A    between atoms: C_1  and  C_2
REMARK    2  A    between atoms: C_6  and  C_7
REMARK    3  A    between atoms: C_7  and  N_8
REMARK    4  A    between atoms: C_16  and  C_17
REMARK                            x       y       z     vdW  Elec       q    Type
REMARK                         _______ _______ _______ _____ _____    ______ ____
ROOT
ATOM      1  N   UNL     1      -2.267  13.520  22.997  0.00  0.00    +0.000 NA
ATOM      2  C   UNL     1      -2.564  14.939  23.171  0.00  0.00    +0.000 C 
ATOM      3  C   UNL     1      -1.773  15.894  22.284  0.00  0.00    +0.000 C 
ATOM      4  N   UNL     1      -0.516  15.348  21.832  0.00  0.00    +0.000 N 
ATOM      5  C   UNL     1       0.335  15.983  20.970  0.00  0.00    +0.000 A 
ATOM      6  C   UNL     1       1.432  15.174  20.792  0.00  0.00    +0.000 A 
ATOM      7  C   UNL     1       1.216  14.006  21.561  0.00  0.00    +0.000 A 
ATOM      8  C   UNL     1      -0.043  14.095  22.138  0.00  0.00    +0.000 A 
ATOM      9  C   UNL     1      -0.864  13.075  22.918  0.00  0.00    +0.000 C 
ENDROOT
BRANCH   9  10
ATOM     10  C   UNL     1      -0.722  11.661  22.276  0.00  0.00    +0.000 A 
ATOM     11  C   UNL     1      -0.722  11.499  20.878  0.00  0.00    +0.000 A 
ATOM     12  C   UNL     1      -0.542  10.237  20.292  0.00  0.00    +0.000 A 
ATOM     13  C   UNL     1      -0.369   9.100  21.082  0.00  0.00    +0.000 A 
ATOM     14  C   UNL     1      -0.376   9.232  22.468  0.00  0.00    +0.000 A 
ATOM     15  C   UNL     1      -0.557  10.494  23.049  0.00  0.00    +0.000 A 
ENDBRANCH   9  10
BRANCH   1  16
ATOM     16  C   UNL     1      -3.241  12.669  23.649  0.00  0.00    +0.000 C 
BRANCH  16  22
ATOM     17  C   UNL     1      -6.283  11.053  17.956  0.00  0.00    +0.000 C 
ATOM     18  C   UNL     1      -5.918  11.822  19.182  0.00  0.00    +0.000 A 
ATOM     19  C   UNL     1      -4.615  12.257  19.370  0.00  0.00    +0.000 A 
ATOM     20  C   UNL     1      -4.222  12.726  20.622  0.00  0.00    +0.000 A 
ATOM     21  C   UNL     1      -5.074  12.728  21.728  0.00  0.00    +0.000 A 
ATOM     22  C   UNL     1      -4.667  12.866  23.147  0.00  0.00    +0.000 A 
ATOM     23  C   UNL     1      -5.644  13.022  24.051  0.00  0.00    +0.000 A 
ATOM     24  C   UNL     1      -7.078  13.025  23.716  0.00  0.00    +0.000 A 
ATOM     25  O   UNL     1      -7.917  13.263  24.575  0.00  0.00    +0.000 OA
ATOM     26  O   UNL     1      -7.415  12.680  22.422  0.00  0.00    +0.000 OA
ATOM     27  C   UNL     1      -6.419  12.498  21.449  0.00  0.00    +0.000 A 
ATOM     28  C   UNL     1      -6.849  12.053  20.196  0.00  0.00    +0.000 A 
ENDBRANCH  16  22
ENDBRANCH   1  16
TORSDOF 3
ENDMDL
