MODEL 1
REMARK VINA RESULT:      -6.8      0.000      0.000
REMARK  Name = 
REMARK  3 active torsions:
REMARK  status: ('A' for Active; 'I' for Inactive)
REMARK    1  A    between atoms: C_2  and  C_3
REMARK    2  A    between atoms: N_7  and  C_8
REMARK    3  A    between atoms: C_19  and  C_20
REMARK                            x       y       z     vdW  Elec       q    Type
REMARK                         _______ _______ _______ _____ _____    ______ ____
ROOT
ATOM      1  C   UNL     1      -4.674  13.529  21.325  0.00  0.00    +0.000 C 
ATOM      2  C   UNL     1      -5.999  12.812  21.150  0.00  0.00    +0.000 C 
ATOM      3  C   UNL     1      -5.751  11.813  20.050  0.00  0.00    +0.000 C 
ATOM      4  O   UNL     1      -6.528  10.904  19.815  0.00  0.00    +0.000 OA
ATOM      5  N   UNL     1      -4.588  12.187  19.373  0.00  0.00    +0.000 N 
ATOM      6  C   UNL     1      -4.029  13.396  19.941  0.00  0.00    +0.000 C 
ENDROOT
BRANCH   5   7
ATOM      7  C   UNL     1      -4.071  11.568  18.200  0.00  0.00    +0.000 A 
ATOM      8  C   UNL     1      -4.719  11.687  16.956  0.00  0.00    +0.000 A 
ATOM      9  C   UNL     1      -4.198  11.093  15.798  0.00  0.00    +0.000 A 
ATOM     10  C   UNL     1      -3.019  10.370  15.872  0.00  0.00    +0.000 A 
ATOM     11  F   UNL     1      -2.519   9.807  14.763  0.00  0.00    +0.000 F 
ATOM     12  C   UNL     1      -2.369  10.231  17.086  0.00  0.00    +0.000 A 
ATOM     13  F   UNL     1      -1.229   9.533  17.165  0.00  0.00    +0.000 F 
ATOM     14  C   UNL     1      -2.886  10.818  18.245  0.00  0.00    +0.000 A 
ENDBRANCH   5   7
BRANCH   1  16
ATOM     15  O   UNL     1      -4.104  12.085  23.156  0.00  0.00    +0.000 OA
ATOM     16  C   UNL     1      -3.744  13.006  22.417  0.00  0.00    +0.000 C 
ATOM     17  N   UNL     1      -2.462  13.462  22.487  0.00  0.00    +0.000 N 
ATOM     18  C   UNL     1      -1.366  12.902  23.271  0.00  0.00    +0.000 C 
ATOM     19  C   UNL     1      -0.433  13.365  22.130  0.00  0.00    +0.000 C 
ATOM     20  C   UNL     1      -1.590  14.293  21.681  0.00  0.00    +0.000 C 
BRANCH  19  21
ATOM     21  C   UNL     1       0.097  12.291  21.068  0.00  0.00    +0.000 A 
ATOM     22  C   UNL     1      -0.234  10.921  21.129  0.00  0.00    +0.000 A 
ATOM     23  C   UNL     1       0.225  10.002  20.178  0.00  0.00    +0.000 A 
ATOM     24  C   UNL     1       1.035  10.426  19.129  0.00  0.00    +0.000 A 
ATOM     25  C   UNL     1       1.384  11.769  19.036  0.00  0.00    +0.000 A 
ATOM     26  C   UNL     1       0.919  12.673  19.992  0.00  0.00    +0.000 A 
ATOM     27  F   UNL     1       1.272  13.960  19.869  0.00  0.00    +0.000 F 
ENDBRANCH  19  21
ENDBRANCH   1  16
TORSDOF 3
ENDMDL
MODEL 2
REMARK VINA RESULT:      -6.8      6.171      8.605
REMARK  Name = 
REMARK  3 active torsions:
REMARK  status: ('A' for Active; 'I' for Inactive)
REMARK    1  A    between atoms: C_2  and  C_3
REMARK    2  A    between atoms: N_7  and  C_8
REMARK    3  A    between atoms: C_19  and  C_20
REMARK                            x       y       z     vdW  Elec       q    Type
REMARK                         _______ _______ _______ _____ _____    ______ ____
ROOT
ATOM      1  C   UNL     1       1.729   7.192  18.901  0.00  0.00    +0.000 C 
ATOM      2  C   UNL     1       2.523   6.486  19.984  0.00  0.00    +0.000 C 
ATOM      3  C   UNL     1       3.762   5.989  19.286  0.00  0.00    +0.000 C 
ATOM      4  O   UNL     1       4.734   5.586  19.902  0.00  0.00    +0.000 OA
ATOM      5  N   UNL     1       3.528   6.009  17.910  0.00  0.00    +0.000 N 
ATOM      6  C   UNL     1       2.189   6.483  17.623  0.00  0.00    +0.000 C 
ENDROOT
BRANCH   5   7
ATOM      7  C   UNL     1       4.408   5.512  16.907  0.00  0.00    +0.000 A 
ATOM      8  C   UNL     1       5.079   6.374  16.019  0.00  0.00    +0.000 A 
ATOM      9  C   UNL     1       5.960   5.883  15.046  0.00  0.00    +0.000 A 
ATOM     10  C   UNL     1       6.179   4.519  14.947  0.00  0.00    +0.000 A 
ATOM     11  F   UNL     1       7.025   4.051  14.020  0.00  0.00    +0.000 F 
ATOM     12  C   UNL     1       5.523   3.650  15.803  0.00  0.00    +0.000 A 
ATOM     13  F   UNL     1       5.730   2.331  15.714  0.00  0.00    +0.000 F 
ATOM     14  C   UNL     1       4.641   4.134  16.774  0.00  0.00    +0.000 A 
ENDBRANCH   5   7
BRANCH   1  16
ATOM     15  O   UNL     1       2.717   9.178  17.983  0.00  0.00    +0.000 OA
ATOM     16  C   UNL     1       1.909   8.704  18.786  0.00  0.00    +0.000 C 
ATOM     17  N   UNL     1       1.076   9.536  19.472  0.00  0.00    +0.000 N 
ATOM     18  C   UNL     1       0.918  10.975  19.291  0.00  0.00    +0.000 C 
ATOM     19  C   UNL     1      -0.564  10.769  19.676  0.00  0.00    +0.000 C 
ATOM     20  C   UNL     1      -0.127   9.406  20.269  0.00  0.00    +0.000 C 
BRANCH  19  21
ATOM     21  C   UNL     1      -1.676  10.744  18.525  0.00  0.00    +0.000 A 
ATOM     22  C   UNL     1      -1.563   9.952  17.363  0.00  0.00    +0.000 A 
ATOM     23  C   UNL     1      -2.558   9.930  16.378  0.00  0.00    +0.000 A 
ATOM     24  C   UNL     1      -3.704  10.705  16.524  0.00  0.00    +0.000 A 
ATOM     25  C   UNL     1      -3.851  11.501  17.655  0.00  0.00    +0.000 A 
ATOM     26  C   UNL     1      -2.851  11.512  18.628  0.00  0.00    +0.000 A 
ATOM     27  F   UNL     1      -3.027  12.287  19.708  0.00  0.00    +0.000 F 
ENDBRANCH  19  21
ENDBRANCH   1  16
TORSDOF 3
ENDMDL
MODEL 3
REMARK VINA RESULT:      -6.8      6.257      8.693
REMARK  Name = 
REMARK  3 active torsions:
REMARK  status: ('A' for Active; 'I' for Inactive)
REMARK    1  A    between atoms: C_2  and  C_3
REMARK    2  A    between atoms: N_7  and  C_8
REMARK    3  A    between atoms: C_19  and  C_20
REMARK                            x       y       z     vdW  Elec       q    Type
REMARK                         _______ _______ _______ _____ _____    ______ ____
ROOT
ATOM      1  C   UNL     1       1.817   7.147  18.786  0.00  0.00    +0.000 C 
ATOM      2  C   UNL     1       2.637   6.548  19.914  0.00  0.00    +0.000 C 
ATOM      3  C   UNL     1       3.835   5.940  19.233  0.00  0.00    +0.000 C 
ATOM      4  O   UNL     1       4.822   5.584  19.855  0.00  0.00    +0.000 OA
ATOM      5  N   UNL     1       3.547   5.809  17.873  0.00  0.00    +0.000 N 
ATOM      6  C   UNL     1       2.210   6.283  17.583  0.00  0.00    +0.000 C 
ENDROOT
BRANCH   5   7
ATOM      7  C   UNL     1       4.375   5.176  16.903  0.00  0.00    +0.000 A 
ATOM      8  C   UNL     1       4.449   3.774  16.796  0.00  0.00    +0.000 A 
ATOM      9  C   UNL     1       5.248   3.153  15.827  0.00  0.00    +0.000 A 
ATOM     10  C   UNL     1       5.989   3.931  14.952  0.00  0.00    +0.000 A 
ATOM     11  F   UNL     1       6.750   3.337  14.022  0.00  0.00    +0.000 F 
ATOM     12  C   UNL     1       5.941   5.311  15.043  0.00  0.00    +0.000 A 
ATOM     13  F   UNL     1       6.653   6.069  14.201  0.00  0.00    +0.000 F 
ATOM     14  C   UNL     1       5.146   5.936  16.010  0.00  0.00    +0.000 A 
ENDBRANCH   5   7
BRANCH   1  16
ATOM     15  O   UNL     1       2.742   8.984  17.549  0.00  0.00    +0.000 OA
ATOM     16  C   UNL     1       2.027   8.630  18.491  0.00  0.00    +0.000 C 
ATOM     17  N   UNL     1       1.313   9.562  19.182  0.00  0.00    +0.000 N 
ATOM     18  C   UNL     1       1.178  10.981  18.869  0.00  0.00    +0.000 C 
ATOM     19  C   UNL     1      -0.249  10.881  19.453  0.00  0.00    +0.000 C 
ATOM     20  C   UNL     1       0.217   9.566  20.129  0.00  0.00    +0.000 C 
BRANCH  19  21
ATOM     21  C   UNL     1      -1.498  10.788  18.456  0.00  0.00    +0.000 A 
ATOM     22  C   UNL     1      -1.521   9.940  17.329  0.00  0.00    +0.000 A 
ATOM     23  C   UNL     1      -2.632   9.859  16.482  0.00  0.00    +0.000 A 
ATOM     24  C   UNL     1      -3.763  10.630  16.736  0.00  0.00    +0.000 A 
ATOM     25  C   UNL     1      -3.777  11.479  17.837  0.00  0.00    +0.000 A 
ATOM     26  C   UNL     1      -2.662  11.548  18.672  0.00  0.00    +0.000 A 
ATOM     27  F   UNL     1      -2.712  12.374  19.727  0.00  0.00    +0.000 F 
ENDBRANCH  19  21
ENDBRANCH   1  16
TORSDOF 3
ENDMDL
MODEL 4
REMARK VINA RESULT:      -6.7      2.825      5.198
REMARK  Name = 
REMARK  3 active torsions:
REMARK  status: ('A' for Active; 'I' for Inactive)
REMARK    1  A    between atoms: C_2  and  C_3
REMARK    2  A    between atoms: N_7  and  C_8
REMARK    3  A    between atoms: C_19  and  C_20
REMARK                            x       y       z     vdW  Elec       q    Type
REMARK                         _______ _______ _______ _____ _____    ______ ____
ROOT
ATOM      1  C   UNL     1      -0.705  12.339  21.947  0.00  0.00    +0.000 C 
ATOM      2  C   UNL     1       0.536  12.609  21.117  0.00  0.00    +0.000 C 
ATOM      3  C   UNL     1       0.085  12.434  19.690  0.00  0.00    +0.000 C 
ATOM      4  O   UNL     1       0.762  12.808  18.748  0.00  0.00    +0.000 OA
ATOM      5  N   UNL     1      -1.123  11.733  19.694  0.00  0.00    +0.000 N 
ATOM      6  C   UNL     1      -1.522  11.406  21.048  0.00  0.00    +0.000 C 
ENDROOT
BRANCH   5   7
ATOM      7  C   UNL     1      -1.821  11.268  18.544  0.00  0.00    +0.000 A 
ATOM      8  C   UNL     1      -1.336  10.199  17.767  0.00  0.00    +0.000 A 
ATOM      9  C   UNL     1      -2.035   9.730  16.646  0.00  0.00    +0.000 A 
ATOM     10  C   UNL     1      -3.231  10.329  16.288  0.00  0.00    +0.000 A 
ATOM     11  F   UNL     1      -3.902   9.877  15.219  0.00  0.00    +0.000 F 
ATOM     12  C   UNL     1      -3.724  11.389  17.030  0.00  0.00    +0.000 A 
ATOM     13  F   UNL     1      -4.879  11.972  16.689  0.00  0.00    +0.000 F 
ATOM     14  C   UNL     1      -3.029  11.862  18.147  0.00  0.00    +0.000 A 
ENDBRANCH   5   7
BRANCH   1  16
ATOM     15  O   UNL     1      -1.326  14.657  21.860  0.00  0.00    +0.000 OA
ATOM     16  C   UNL     1      -1.529  13.552  22.373  0.00  0.00    +0.000 C 
ATOM     17  N   UNL     1      -2.584  13.388  23.219  0.00  0.00    +0.000 N 
ATOM     18  C   UNL     1      -3.631  14.357  23.525  0.00  0.00    +0.000 C 
ATOM     19  C   UNL     1      -4.581  13.148  23.674  0.00  0.00    +0.000 C 
ATOM     20  C   UNL     1      -3.306  12.277  23.805  0.00  0.00    +0.000 C 
BRANCH  19  21
ATOM     21  C   UNL     1      -5.590  12.793  22.484  0.00  0.00    +0.000 A 
ATOM     22  C   UNL     1      -5.176  12.640  21.144  0.00  0.00    +0.000 A 
ATOM     23  C   UNL     1      -6.073  12.310  20.121  0.00  0.00    +0.000 A 
ATOM     24  C   UNL     1      -7.421  12.121  20.408  0.00  0.00    +0.000 A 
ATOM     25  C   UNL     1      -7.868  12.265  21.716  0.00  0.00    +0.000 A 
ATOM     26  C   UNL     1      -6.962  12.594  22.725  0.00  0.00    +0.000 A 
ATOM     27  F   UNL     1      -7.427  12.720  23.976  0.00  0.00    +0.000 F 
ENDBRANCH  19  21
ENDBRANCH   1  16
TORSDOF 3
ENDMDL
MODEL 5
REMARK VINA RESULT:      -6.7      8.818     11.304
REMARK  Name = 
REMARK  3 active torsions:
REMARK  status: ('A' for Active; 'I' for Inactive)
REMARK    1  A    between atoms: C_2  and  C_3
REMARK    2  A    between atoms: N_7  and  C_8
REMARK    3  A    between atoms: C_19  and  C_20
REMARK                            x       y       z     vdW  Elec       q    Type
REMARK                         _______ _______ _______ _____ _____    ______ ____
ROOT
ATOM      1  C   UNL     1       7.181   5.908  17.742  0.00  0.00    +0.000 C 
ATOM      2  C   UNL     1       6.505   7.119  17.126  0.00  0.00    +0.000 C 
ATOM      3  C   UNL     1       5.853   6.596  15.873  0.00  0.00    +0.000 C 
ATOM      4  O   UNL     1       5.024   7.243  15.257  0.00  0.00    +0.000 OA
ATOM      5  N   UNL     1       6.428   5.361  15.563  0.00  0.00    +0.000 N 
ATOM      6  C   UNL     1       7.449   5.012  16.529  0.00  0.00    +0.000 C 
ENDROOT
BRANCH   5   7
ATOM      7  C   UNL     1       6.169   4.591  14.393  0.00  0.00    +0.000 A 
ATOM      8  C   UNL     1       4.927   3.963  14.182  0.00  0.00    +0.000 A 
ATOM      9  C   UNL     1       4.667   3.223  13.021  0.00  0.00    +0.000 A 
ATOM     10  C   UNL     1       5.651   3.099  12.055  0.00  0.00    +0.000 A 
ATOM     11  F   UNL     1       5.401   2.395  10.942  0.00  0.00    +0.000 F 
ATOM     12  C   UNL     1       6.885   3.699  12.244  0.00  0.00    +0.000 A 
ATOM     13  F   UNL     1       7.841   3.585  11.315  0.00  0.00    +0.000 F 
ATOM     14  C   UNL     1       7.150   4.437  13.401  0.00  0.00    +0.000 A 
ENDBRANCH   5   7
BRANCH   1  16
ATOM     15  O   UNL     1       6.878   5.013  19.949  0.00  0.00    +0.000 OA
ATOM     16  C   UNL     1       6.402   5.156  18.819  0.00  0.00    +0.000 C 
ATOM     17  N   UNL     1       5.120   4.764  18.575  0.00  0.00    +0.000 N 
ATOM     18  C   UNL     1       4.143   4.283  19.546  0.00  0.00    +0.000 C 
ATOM     19  C   UNL     1       3.069   4.957  18.663  0.00  0.00    +0.000 C 
ATOM     20  C   UNL     1       4.132   4.968  17.535  0.00  0.00    +0.000 C 
BRANCH  19  21
ATOM     21  C   UNL     1       2.461   6.368  19.110  0.00  0.00    +0.000 A 
ATOM     22  C   UNL     1       2.451   7.502  18.271  0.00  0.00    +0.000 A 
ATOM     23  C   UNL     1       1.896   8.722  18.675  0.00  0.00    +0.000 A 
ATOM     24  C   UNL     1       1.329   8.847  19.939  0.00  0.00    +0.000 A 
ATOM     25  C   UNL     1       1.322   7.752  20.796  0.00  0.00    +0.000 A 
ATOM     26  C   UNL     1       1.879   6.543  20.379  0.00  0.00    +0.000 A 
ATOM     27  F   UNL     1       1.851   5.507  21.229  0.00  0.00    +0.000 F 
ENDBRANCH  19  21
ENDBRANCH   1  16
TORSDOF 3
ENDMDL
MODEL 6
REMARK VINA RESULT:      -6.6      3.607      6.062
REMARK  Name = 
REMARK  3 active torsions:
REMARK  status: ('A' for Active; 'I' for Inactive)
REMARK    1  A    between atoms: C_2  and  C_3
REMARK    2  A    between atoms: N_7  and  C_8
REMARK    3  A    between atoms: C_19  and  C_20
REMARK                            x       y       z     vdW  Elec       q    Type
REMARK                         _______ _______ _______ _____ _____    ______ ____
ROOT
ATOM      1  C   UNL     1      -0.468  12.279  21.056  0.00  0.00    +0.000 C 
ATOM      2  C   UNL     1      -1.252  12.198  19.760  0.00  0.00    +0.000 C 
ATOM      3  C   UNL     1      -0.827  10.895  19.137  0.00  0.00    +0.000 C 
ATOM      4  O   UNL     1      -1.434  10.394  18.206  0.00  0.00    +0.000 OA
ATOM      5  N   UNL     1       0.357  10.481  19.752  0.00  0.00    +0.000 N 
ATOM      6  C   UNL     1       0.776  11.436  20.756  0.00  0.00    +0.000 C 
ENDROOT
BRANCH   5   7
ATOM      7  C   UNL     1       1.143   9.355  19.375  0.00  0.00    +0.000 A 
ATOM      8  C   UNL     1       1.804   9.297  18.133  0.00  0.00    +0.000 A 
ATOM      9  C   UNL     1       2.593   8.196  17.773  0.00  0.00    +0.000 A 
ATOM     10  C   UNL     1       2.728   7.135  18.652  0.00  0.00    +0.000 A 
ATOM     11  F   UNL     1       3.487   6.085  18.309  0.00  0.00    +0.000 F 
ATOM     12  C   UNL     1       2.080   7.164  19.876  0.00  0.00    +0.000 A 
ATOM     13  F   UNL     1       2.206   6.142  20.731  0.00  0.00    +0.000 F 
ATOM     14  C   UNL     1       1.289   8.258  20.239  0.00  0.00    +0.000 A 
ENDBRANCH   5   7
BRANCH   1  16
ATOM     15  O   UNL     1      -0.563  11.111  23.151  0.00  0.00    +0.000 OA
ATOM     16  C   UNL     1      -1.172  11.790  22.320  0.00  0.00    +0.000 C 
ATOM     17  N   UNL     1      -2.433  12.222  22.599  0.00  0.00    +0.000 N 
ATOM     18  C   UNL     1      -3.156  12.085  23.860  0.00  0.00    +0.000 C 
ATOM     19  C   UNL     1      -3.820  13.439  23.522  0.00  0.00    +0.000 C 
ATOM     20  C   UNL     1      -3.361  13.197  22.061  0.00  0.00    +0.000 C 
BRANCH  19  21
ATOM     21  C   UNL     1      -3.297  14.769  24.243  0.00  0.00    +0.000 A 
ATOM     22  C   UNL     1      -1.960  14.946  24.654  0.00  0.00    +0.000 A 
ATOM     23  C   UNL     1      -1.519  16.126  25.265  0.00  0.00    +0.000 A 
ATOM     24  C   UNL     1      -2.409  17.172  25.487  0.00  0.00    +0.000 A 
ATOM     25  C   UNL     1      -3.737  17.035  25.097  0.00  0.00    +0.000 A 
ATOM     26  C   UNL     1      -4.161  15.852  24.489  0.00  0.00    +0.000 A 
ATOM     27  F   UNL     1      -5.446  15.755  24.122  0.00  0.00    +0.000 F 
ENDBRANCH  19  21
ENDBRANCH   1  16
TORSDOF 3
ENDMDL
MODEL 7
REMARK VINA RESULT:      -6.6      1.627      2.414
REMARK  Name = 
REMARK  3 active torsions:
REMARK  status: ('A' for Active; 'I' for Inactive)
REMARK    1  A    between atoms: C_2  and  C_3
REMARK    2  A    between atoms: N_7  and  C_8
REMARK    3  A    between atoms: C_19  and  C_20
REMARK                            x       y       z     vdW  Elec       q    Type
REMARK                         _______ _______ _______ _____ _____    ______ ____
ROOT
ATOM      1  C   UNL     1      -6.368  13.567  22.348  0.00  0.00    +0.000 C 
ATOM      2  C   UNL     1      -7.349  12.506  21.886  0.00  0.00    +0.000 C 
ATOM      3  C   UNL     1      -6.591  11.707  20.858  0.00  0.00    +0.000 C 
ATOM      4  O   UNL     1      -6.991  10.629  20.453  0.00  0.00    +0.000 OA
ATOM      5  N   UNL     1      -5.484  12.454  20.452  0.00  0.00    +0.000 N 
ATOM      6  C   UNL     1      -5.445  13.730  21.136  0.00  0.00    +0.000 C 
ENDROOT
BRANCH   5   7
ATOM      7  C   UNL     1      -4.576  12.102  19.413  0.00  0.00    +0.000 A 
ATOM      8  C   UNL     1      -3.182  12.155  19.600  0.00  0.00    +0.000 A 
ATOM      9  C   UNL     1      -2.290  11.789  18.583  0.00  0.00    +0.000 A 
ATOM     10  C   UNL     1      -2.785  11.365  17.361  0.00  0.00    +0.000 A 
ATOM     11  F   UNL     1      -1.933  11.010  16.389  0.00  0.00    +0.000 F 
ATOM     12  C   UNL     1      -4.153  11.313  17.149  0.00  0.00    +0.000 A 
ATOM     13  F   UNL     1      -4.638  10.904  15.971  0.00  0.00    +0.000 F 
ATOM     14  C   UNL     1      -5.046  11.680  18.160  0.00  0.00    +0.000 A 
ENDBRANCH   5   7
BRANCH   1  16
ATOM     15  O   UNL     1      -5.875  12.309  24.333  0.00  0.00    +0.000 OA
ATOM     16  C   UNL     1      -5.567  13.263  23.612  0.00  0.00    +0.000 C 
ATOM     17  N   UNL     1      -4.425  13.960  23.871  0.00  0.00    +0.000 N 
ATOM     18  C   UNL     1      -3.402  13.644  24.862  0.00  0.00    +0.000 C 
ATOM     19  C   UNL     1      -2.384  14.248  23.870  0.00  0.00    +0.000 C 
ATOM     20  C   UNL     1      -3.594  14.923  23.177  0.00  0.00    +0.000 C 
BRANCH  19  21
ATOM     21  C   UNL     1      -1.482  13.270  22.980  0.00  0.00    +0.000 A 
ATOM     22  C   UNL     1      -1.585  11.864  23.038  0.00  0.00    +0.000 A 
ATOM     23  C   UNL     1      -0.800  11.027  22.236  0.00  0.00    +0.000 A 
ATOM     24  C   UNL     1       0.118  11.573  21.344  0.00  0.00    +0.000 A 
ATOM     25  C   UNL     1       0.249  12.955  21.259  0.00  0.00    +0.000 A 
ATOM     26  C   UNL     1      -0.540  13.776  22.066  0.00  0.00    +0.000 A 
ATOM     27  F   UNL     1      -0.391  15.104  21.955  0.00  0.00    +0.000 F 
ENDBRANCH  19  21
ENDBRANCH   1  16
TORSDOF 3
ENDMDL
MODEL 8
REMARK VINA RESULT:      -6.6      2.614      5.724
REMARK  Name = 
REMARK  3 active torsions:
REMARK  status: ('A' for Active; 'I' for Inactive)
REMARK    1  A    between atoms: C_2  and  C_3
REMARK    2  A    between atoms: N_7  and  C_8
REMARK    3  A    between atoms: C_19  and  C_20
REMARK                            x       y       z     vdW  Elec       q    Type
REMARK                         _______ _______ _______ _____ _____    ______ ____
ROOT
ATOM      1  C   UNL     1      -3.767  13.716  24.192  0.00  0.00    +0.000 C 
ATOM      2  C   UNL     1      -2.438  14.416  24.406  0.00  0.00    +0.000 C 
ATOM      3  C   UNL     1      -1.588  13.988  23.239  0.00  0.00    +0.000 C 
ATOM      4  O   UNL     1      -0.541  14.547  22.961  0.00  0.00    +0.000 OA
ATOM      5  N   UNL     1      -2.173  12.858  22.662  0.00  0.00    +0.000 N 
ATOM      6  C   UNL     1      -3.374  12.479  23.378  0.00  0.00    +0.000 C 
ENDROOT
BRANCH   5   7
ATOM      7  C   UNL     1      -1.620  12.081  21.605  0.00  0.00    +0.000 A 
ATOM      8  C   UNL     1      -0.625  11.114  21.841  0.00  0.00    +0.000 A 
ATOM      9  C   UNL     1      -0.097  10.336  20.802  0.00  0.00    +0.000 A 
ATOM     10  C   UNL     1      -0.559  10.519  19.509  0.00  0.00    +0.000 A 
ATOM     11  F   UNL     1      -0.057   9.771  18.516  0.00  0.00    +0.000 F 
ATOM     12  C   UNL     1      -1.530  11.471  19.249  0.00  0.00    +0.000 A 
ATOM     13  F   UNL     1      -1.981  11.653  18.003  0.00  0.00    +0.000 F 
ATOM     14  C   UNL     1      -2.058  12.251  20.282  0.00  0.00    +0.000 A 
ENDBRANCH   5   7
BRANCH   1  16
ATOM     15  O   UNL     1      -4.627  15.641  23.043  0.00  0.00    +0.000 OA
ATOM     16  C   UNL     1      -4.862  14.513  23.486  0.00  0.00    +0.000 C 
ATOM     17  N   UNL     1      -6.061  13.923  23.221  0.00  0.00    +0.000 N 
ATOM     18  C   UNL     1      -7.114  14.418  22.341  0.00  0.00    +0.000 C 
ATOM     19  C   UNL     1      -7.423  12.937  22.029  0.00  0.00    +0.000 C 
ATOM     20  C   UNL     1      -6.628  12.593  23.314  0.00  0.00    +0.000 C 
BRANCH  19  21
ATOM     21  C   UNL     1      -6.904  12.301  20.655  0.00  0.00    +0.000 A 
ATOM     22  C   UNL     1      -6.129  13.018  19.720  0.00  0.00    +0.000 A 
ATOM     23  C   UNL     1      -5.668  12.437  18.533  0.00  0.00    +0.000 A 
ATOM     24  C   UNL     1      -5.971  11.110  18.241  0.00  0.00    +0.000 A 
ATOM     25  C   UNL     1      -6.735  10.371  19.137  0.00  0.00    +0.000 A 
ATOM     26  C   UNL     1      -7.186  10.965  20.316  0.00  0.00    +0.000 A 
ATOM     27  F   UNL     1      -7.917  10.221  21.159  0.00  0.00    +0.000 F 
ENDBRANCH  19  21
ENDBRANCH   1  16
TORSDOF 3
ENDMDL
MODEL 9
REMARK VINA RESULT:      -6.5      3.543      6.099
REMARK  Name = 
REMARK  3 active torsions:
REMARK  status: ('A' for Active; 'I' for Inactive)
REMARK    1  A    between atoms: C_2  and  C_3
REMARK    2  A    between atoms: N_7  and  C_8
REMARK    3  A    between atoms: C_19  and  C_20
REMARK                            x       y       z     vdW  Elec       q    Type
REMARK                         _______ _______ _______ _____ _____    ______ ____
ROOT
ATOM      1  C   UNL     1      -0.830  12.298  21.181  0.00  0.00    +0.000 C 
ATOM      2  C   UNL     1      -1.564  12.107  19.867  0.00  0.00    +0.000 C 
ATOM      3  C   UNL     1      -1.080  10.779  19.349  0.00  0.00    +0.000 C 
ATOM      4  O   UNL     1      -1.639  10.198  18.434  0.00  0.00    +0.000 OA
ATOM      5  N   UNL     1       0.093  10.444  20.029  0.00  0.00    +0.000 N 
ATOM      6  C   UNL     1       0.448  11.477  20.980  0.00  0.00    +0.000 C 
ENDROOT
BRANCH   5   7
ATOM      7  C   UNL     1       0.924   9.320  19.756  0.00  0.00    +0.000 A 
ATOM      8  C   UNL     1       1.115   8.296  20.702  0.00  0.00    +0.000 A 
ATOM      9  C   UNL     1       1.918   7.181  20.423  0.00  0.00    +0.000 A 
ATOM     10  C   UNL     1       2.542   7.079  19.191  0.00  0.00    +0.000 A 
ATOM     11  F   UNL     1       3.305   6.010  18.923  0.00  0.00    +0.000 F 
ATOM     12  C   UNL     1       2.377   8.079  18.247  0.00  0.00    +0.000 A 
ATOM     13  F   UNL     1       2.977   7.987  17.055  0.00  0.00    +0.000 F 
ATOM     14  C   UNL     1       1.580   9.194  18.521  0.00  0.00    +0.000 A 
ENDBRANCH   5   7
BRANCH   1  16
ATOM     15  O   UNL     1      -0.987  11.199  23.309  0.00  0.00    +0.000 OA
ATOM     16  C   UNL     1      -1.563  11.873  22.450  0.00  0.00    +0.000 C 
ATOM     17  N   UNL     1      -2.812  12.357  22.702  0.00  0.00    +0.000 N 
ATOM     18  C   UNL     1      -3.552  12.284  23.957  0.00  0.00    +0.000 C 
ATOM     19  C   UNL     1      -4.165  13.648  23.571  0.00  0.00    +0.000 C 
ATOM     20  C   UNL     1      -3.699  13.346  22.124  0.00  0.00    +0.000 C 
BRANCH  19  21
ATOM     21  C   UNL     1      -3.604  14.981  24.257  0.00  0.00    +0.000 A 
ATOM     22  C   UNL     1      -2.249  15.153  24.610  0.00  0.00    +0.000 A 
ATOM     23  C   UNL     1      -1.776  16.335  25.192  0.00  0.00    +0.000 A 
ATOM     24  C   UNL     1      -2.648  17.390  25.441  0.00  0.00    +0.000 A 
ATOM     25  C   UNL     1      -3.992  17.258  25.108  0.00  0.00    +0.000 A 
ATOM     26  C   UNL     1      -4.449  16.073  24.529  0.00  0.00    +0.000 A 
ATOM     27  F   UNL     1      -5.749  15.982  24.217  0.00  0.00    +0.000 F 
ENDBRANCH  19  21
ENDBRANCH   1  16
TORSDOF 3
ENDMDL
