MODEL 1
REMARK VINA RESULT:      -7.4      0.000      0.000
REMARK  Name = 
REMARK  4 active torsions:
REMARK  status: ('A' for Active; 'I' for Inactive)
REMARK    1  A    between atoms: C_1  and  C_2
REMARK    2  A    between atoms: C_4  and  N_5
REMARK    3  A    between atoms: C_7  and  C_8
REMARK    4  A    between atoms: N_10  and  C_11
REMARK                            x       y       z     vdW  Elec       q    Type
REMARK                         _______ _______ _______ _____ _____    ______ ____
ROOT
ATOM      1  N   UNL     1      -5.351  13.538  22.796  0.00  0.00    +0.000 N 
ATOM      2  C   UNL     1      -4.835  13.095  21.529  0.00  0.00    +0.000 C 
ATOM      3  C   UNL     1      -6.019  12.488  20.821  0.00  0.00    +0.000 C 
ATOM      4  C   UNL     1      -6.914  12.009  21.971  0.00  0.00    +0.000 C 
ATOM      5  C   UNL     1      -6.546  12.904  23.117  0.00  0.00    +0.000 C 
ATOM      6  O   UNL     1      -7.214  12.955  24.138  0.00  0.00    +0.000 OA
ENDROOT
BRANCH   3   7
ATOM      7  C   UNL     1      -6.765  13.422  19.838  0.00  0.00    +0.000 C 
ATOM      8  O   UNL     1      -7.531  14.284  20.270  0.00  0.00    +0.000 OA
ATOM      9  N   UNL     1      -6.546  13.263  18.465  0.00  0.00    +0.000 N 
ATOM     10  C   UNL     1      -7.273  14.075  17.495  0.00  0.00    +0.000 C 
ATOM     11  C   UNL     1      -5.522  12.450  18.026  0.00  0.00    +0.000 A 
ATOM     12  N   UNL     1      -4.563  11.929  18.751  0.00  0.00    +0.000 NA
ATOM     13  C   UNL     1      -3.820  11.214  17.880  0.00  0.00    +0.000 A 
ATOM     14  C   UNL     1      -2.677  10.453  18.111  0.00  0.00    +0.000 A 
ATOM     15  C   UNL     1      -2.082   9.852  16.996  0.00  0.00    +0.000 A 
ATOM     16  C   UNL     1      -2.632  10.006  15.718  0.00  0.00    +0.000 A 
ATOM     17  C   UNL     1      -3.804  10.743  15.489  0.00  0.00    +0.000 A 
ATOM     18  C   UNL     1      -4.353  11.333  16.615  0.00  0.00    +0.000 A 
ATOM     19  O   UNL     1      -5.460  12.131  16.695  0.00  0.00    +0.000 OA
ENDBRANCH   3   7
BRANCH   1  23
ATOM     20  C   UNL     1      -5.037  17.882  25.175  0.00  0.00    +0.000 C 
ATOM     21  C   UNL     1      -4.455  16.557  24.797  0.00  0.00    +0.000 A 
ATOM     22  C   UNL     1      -5.162  15.674  23.979  0.00  0.00    +0.000 A 
ATOM     23  C   UNL     1      -4.634  14.423  23.630  0.00  0.00    +0.000 A 
ATOM     24  C   UNL     1      -3.366  14.071  24.119  0.00  0.00    +0.000 A 
ATOM     25  C   UNL     1      -2.642  14.951  24.923  0.00  0.00    +0.000 A 
ATOM     26  C   UNL     1      -3.192  16.182  25.250  0.00  0.00    +0.000 A 
ATOM     27  F   UNL     1      -2.481  17.022  26.018  0.00  0.00    +0.000 F 
ENDBRANCH   1  23
TORSDOF 2
ENDMDL
MODEL 2
REMARK VINA RESULT:      -7.4      5.005      8.737
REMARK  Name = 
REMARK  4 active torsions:
REMARK  status: ('A' for Active; 'I' for Inactive)
REMARK    1  A    between atoms: C_1  and  C_2
REMARK    2  A    between atoms: C_4  and  N_5
REMARK    3  A    between atoms: C_7  and  C_8
REMARK    4  A    between atoms: N_10  and  C_11
REMARK                            x       y       z     vdW  Elec       q    Type
REMARK                         _______ _______ _______ _____ _____    ______ ____
ROOT
ATOM      1  N   UNL     1       0.077  10.302  21.045  0.00  0.00    +0.000 N 
ATOM      2  C   UNL     1      -0.961  11.231  20.690  0.00  0.00    +0.000 C 
ATOM      3  C   UNL     1      -1.271  11.970  21.967  0.00  0.00    +0.000 C 
ATOM      4  C   UNL     1      -0.907  10.959  23.061  0.00  0.00    +0.000 C 
ATOM      5  C   UNL     1       0.125  10.080  22.418  0.00  0.00    +0.000 C 
ATOM      6  O   UNL     1       0.801   9.297  23.065  0.00  0.00    +0.000 OA
ENDROOT
BRANCH   3   7
ATOM      7  C   UNL     1      -0.550  13.327  22.148  0.00  0.00    +0.000 C 
ATOM      8  O   UNL     1       0.636  13.440  21.834  0.00  0.00    +0.000 OA
ATOM      9  N   UNL     1      -1.271  14.406  22.670  0.00  0.00    +0.000 N 
ATOM     10  C   UNL     1      -0.621  15.687  22.921  0.00  0.00    +0.000 C 
ATOM     11  C   UNL     1      -2.641  14.313  22.800  0.00  0.00    +0.000 A 
ATOM     12  N   UNL     1      -3.418  13.382  22.304  0.00  0.00    +0.000 NA
ATOM     13  C   UNL     1      -4.662  13.720  22.703  0.00  0.00    +0.000 A 
ATOM     14  C   UNL     1      -5.873  13.077  22.461  0.00  0.00    +0.000 A 
ATOM     15  C   UNL     1      -7.026  13.690  22.965  0.00  0.00    +0.000 A 
ATOM     16  C   UNL     1      -6.946  14.885  23.691  0.00  0.00    +0.000 A 
ATOM     17  C   UNL     1      -5.723  15.515  23.967  0.00  0.00    +0.000 A 
ATOM     18  C   UNL     1      -4.609  14.884  23.439  0.00  0.00    +0.000 A 
ATOM     19  O   UNL     1      -3.302  15.280  23.511  0.00  0.00    +0.000 OA
ENDBRANCH   3   7
BRANCH   1  23
ATOM     20  C   UNL     1       2.671   6.316  19.626  0.00  0.00    +0.000 C 
ATOM     21  C   UNL     1       2.139   7.688  19.360  0.00  0.00    +0.000 A 
ATOM     22  C   UNL     1       1.367   8.353  20.315  0.00  0.00    +0.000 A 
ATOM     23  C   UNL     1       0.850   9.633  20.072  0.00  0.00    +0.000 A 
ATOM     24  C   UNL     1       1.128  10.245  18.839  0.00  0.00    +0.000 A 
ATOM     25  C   UNL     1       1.911   9.598  17.883  0.00  0.00    +0.000 A 
ATOM     26  C   UNL     1       2.409   8.332  18.154  0.00  0.00    +0.000 A 
ATOM     27  F   UNL     1       3.168   7.727  17.229  0.00  0.00    +0.000 F 
ENDBRANCH   1  23
TORSDOF 2
ENDMDL
MODEL 3
REMARK VINA RESULT:      -7.4      5.395      9.367
REMARK  Name = 
REMARK  4 active torsions:
REMARK  status: ('A' for Active; 'I' for Inactive)
REMARK    1  A    between atoms: C_1  and  C_2
REMARK    2  A    between atoms: C_4  and  N_5
REMARK    3  A    between atoms: C_7  and  C_8
REMARK    4  A    between atoms: N_10  and  C_11
REMARK                            x       y       z     vdW  Elec       q    Type
REMARK                         _______ _______ _______ _____ _____    ______ ____
ROOT
ATOM      1  N   UNL     1       1.448   9.389  19.067  0.00  0.00    +0.000 N 
ATOM      2  C   UNL     1       0.426   9.671  20.039  0.00  0.00    +0.000 C 
ATOM      3  C   UNL     1      -0.195  10.966  19.582  0.00  0.00    +0.000 C 
ATOM      4  C   UNL     1       0.944  11.658  18.822  0.00  0.00    +0.000 C 
ATOM      5  C   UNL     1       1.812  10.527  18.356  0.00  0.00    +0.000 C 
ATOM      6  O   UNL     1       2.698  10.689  17.532  0.00  0.00    +0.000 OA
ENDROOT
BRANCH   3   7
ATOM      7  C   UNL     1      -1.480  10.829  18.730  0.00  0.00    +0.000 C 
ATOM      8  O   UNL     1      -1.519  10.021  17.801  0.00  0.00    +0.000 OA
ATOM      9  N   UNL     1      -2.579  11.637  19.040  0.00  0.00    +0.000 N 
ATOM     10  C   UNL     1      -3.790  11.594  18.228  0.00  0.00    +0.000 C 
ATOM     11  C   UNL     1      -2.584  12.363  20.213  0.00  0.00    +0.000 A 
ATOM     12  N   UNL     1      -1.746  12.250  21.213  0.00  0.00    +0.000 NA
ATOM     13  C   UNL     1      -2.155  13.168  22.114  0.00  0.00    +0.000 A 
ATOM     14  C   UNL     1      -1.622  13.480  23.362  0.00  0.00    +0.000 A 
ATOM     15  C   UNL     1      -2.292  14.456  24.109  0.00  0.00    +0.000 A 
ATOM     16  C   UNL     1      -3.433  15.091  23.604  0.00  0.00    +0.000 A 
ATOM     17  C   UNL     1      -3.951  14.802  22.331  0.00  0.00    +0.000 A 
ATOM     18  C   UNL     1      -3.268  13.822  21.631  0.00  0.00    +0.000 A 
ATOM     19  O   UNL     1      -3.557  13.310  20.396  0.00  0.00    +0.000 OA
ENDBRANCH   3   7
BRANCH   1  23
ATOM     20  C   UNL     1       2.262   4.862  20.930  0.00  0.00    +0.000 C 
ATOM     21  C   UNL     1       2.481   5.895  19.871  0.00  0.00    +0.000 A 
ATOM     22  C   UNL     1       1.874   7.149  19.960  0.00  0.00    +0.000 A 
ATOM     23  C   UNL     1       2.059   8.120  18.967  0.00  0.00    +0.000 A 
ATOM     24  C   UNL     1       2.878   7.809  17.869  0.00  0.00    +0.000 A 
ATOM     25  C   UNL     1       3.504   6.566  17.777  0.00  0.00    +0.000 A 
ATOM     26  C   UNL     1       3.301   5.626  18.777  0.00  0.00    +0.000 A 
ATOM     27  F   UNL     1       3.916   4.438  18.679  0.00  0.00    +0.000 F 
ENDBRANCH   1  23
TORSDOF 2
ENDMDL
MODEL 4
REMARK VINA RESULT:      -7.3      5.689      8.921
REMARK  Name = 
REMARK  4 active torsions:
REMARK  status: ('A' for Active; 'I' for Inactive)
REMARK    1  A    between atoms: C_1  and  C_2
REMARK    2  A    between atoms: C_4  and  N_5
REMARK    3  A    between atoms: C_7  and  C_8
REMARK    4  A    between atoms: N_10  and  C_11
REMARK                            x       y       z     vdW  Elec       q    Type
REMARK                         _______ _______ _______ _____ _____    ______ ____
ROOT
ATOM      1  N   UNL     1       0.741   9.314  20.520  0.00  0.00    +0.000 N 
ATOM      2  C   UNL     1      -0.364   9.952  19.855  0.00  0.00    +0.000 C 
ATOM      3  C   UNL     1      -0.593  11.228  20.625  0.00  0.00    +0.000 C 
ATOM      4  C   UNL     1      -0.092  10.889  22.034  0.00  0.00    +0.000 C 
ATOM      5  C   UNL     1       0.917   9.801  21.812  0.00  0.00    +0.000 C 
ATOM      6  O   UNL     1       1.680   9.436  22.691  0.00  0.00    +0.000 OA
ENDROOT
BRANCH   3   7
ATOM      7  C   UNL     1       0.083  12.493  20.043  0.00  0.00    +0.000 C 
ATOM      8  O   UNL     1       1.210  12.417  19.552  0.00  0.00    +0.000 OA
ATOM      9  N   UNL     1      -0.612  13.706  20.090  0.00  0.00    +0.000 N 
ATOM     10  C   UNL     1       0.006  14.939  19.615  0.00  0.00    +0.000 C 
ATOM     11  C   UNL     1      -1.947  13.716  20.437  0.00  0.00    +0.000 A 
ATOM     12  N   UNL     1      -2.739  12.679  20.551  0.00  0.00    +0.000 NA
ATOM     13  C   UNL     1      -3.934  13.193  20.912  0.00  0.00    +0.000 A 
ATOM     14  C   UNL     1      -5.135  12.539  21.172  0.00  0.00    +0.000 A 
ATOM     15  C   UNL     1      -6.238  13.343  21.482  0.00  0.00    +0.000 A 
ATOM     16  C   UNL     1      -6.118  14.737  21.540  0.00  0.00    +0.000 A 
ATOM     17  C   UNL     1      -4.899  15.395  21.314  0.00  0.00    +0.000 A 
ATOM     18  C   UNL     1      -3.837  14.565  20.996  0.00  0.00    +0.000 A 
ATOM     19  O   UNL     1      -2.552  14.919  20.692  0.00  0.00    +0.000 OA
ENDBRANCH   3   7
BRANCH   1  23
ATOM     20  C   UNL     1       2.388   4.638  20.714  0.00  0.00    +0.000 C 
ATOM     21  C   UNL     1       2.283   5.955  20.014  0.00  0.00    +0.000 A 
ATOM     22  C   UNL     1       1.573   7.012  20.586  0.00  0.00    +0.000 A 
ATOM     23  C   UNL     1       1.454   8.247  19.934  0.00  0.00    +0.000 A 
ATOM     24  C   UNL     1       2.073   8.407  18.683  0.00  0.00    +0.000 A 
ATOM     25  C   UNL     1       2.800   7.364  18.109  0.00  0.00    +0.000 A 
ATOM     26  C   UNL     1       2.899   6.154  18.781  0.00  0.00    +0.000 A 
ATOM     27  F   UNL     1       3.609   5.163  18.221  0.00  0.00    +0.000 F 
ENDBRANCH   1  23
TORSDOF 2
ENDMDL
MODEL 5
REMARK VINA RESULT:      -7.3      5.371      9.442
REMARK  Name = 
REMARK  4 active torsions:
REMARK  status: ('A' for Active; 'I' for Inactive)
REMARK    1  A    between atoms: C_1  and  C_2
REMARK    2  A    between atoms: C_4  and  N_5
REMARK    3  A    between atoms: C_7  and  C_8
REMARK    4  A    between atoms: N_10  and  C_11
REMARK                            x       y       z     vdW  Elec       q    Type
REMARK                         _______ _______ _______ _____ _____    ______ ____
ROOT
ATOM      1  N   UNL     1       1.479   9.428  19.024  0.00  0.00    +0.000 N 
ATOM      2  C   UNL     1       0.406   9.666  19.952  0.00  0.00    +0.000 C 
ATOM      3  C   UNL     1      -0.237  10.945  19.480  0.00  0.00    +0.000 C 
ATOM      4  C   UNL     1       0.910  11.683  18.778  0.00  0.00    +0.000 C 
ATOM      5  C   UNL     1       1.835  10.586  18.339  0.00  0.00    +0.000 C 
ATOM      6  O   UNL     1       2.750  10.786  17.557  0.00  0.00    +0.000 OA
ENDROOT
BRANCH   3   7
ATOM      7  C   UNL     1      -1.478  10.776  18.571  0.00  0.00    +0.000 C 
ATOM      8  O   UNL     1      -1.443   9.993  17.621  0.00  0.00    +0.000 OA
ATOM      9  N   UNL     1      -2.625  11.525  18.856  0.00  0.00    +0.000 N 
ATOM     10  C   UNL     1      -3.798  11.450  17.992  0.00  0.00    +0.000 C 
ATOM     11  C   UNL     1      -2.712  12.216  20.046  0.00  0.00    +0.000 A 
ATOM     12  N   UNL     1      -1.910  12.112  21.078  0.00  0.00    +0.000 NA
ATOM     13  C   UNL     1      -2.398  12.985  21.984  0.00  0.00    +0.000 A 
ATOM     14  C   UNL     1      -1.932  13.286  23.262  0.00  0.00    +0.000 A 
ATOM     15  C   UNL     1      -2.675  14.210  24.005  0.00  0.00    +0.000 A 
ATOM     16  C   UNL     1      -3.822  14.807  23.468  0.00  0.00    +0.000 A 
ATOM     17  C   UNL     1      -4.274  14.532  22.168  0.00  0.00    +0.000 A 
ATOM     18  C   UNL     1      -3.518  13.603  21.472  0.00  0.00    +0.000 A 
ATOM     19  O   UNL     1      -3.733  13.114  20.213  0.00  0.00    +0.000 OA
ENDBRANCH   3   7
BRANCH   1  23
ATOM     20  C   UNL     1       4.580   6.368  16.650  0.00  0.00    +0.000 C 
ATOM     21  C   UNL     1       3.647   6.658  17.782  0.00  0.00    +0.000 A 
ATOM     22  C   UNL     1       3.000   7.892  17.876  0.00  0.00    +0.000 A 
ATOM     23  C   UNL     1       2.135   8.182  18.939  0.00  0.00    +0.000 A 
ATOM     24  C   UNL     1       1.924   7.198  19.919  0.00  0.00    +0.000 A 
ATOM     25  C   UNL     1       2.550   5.955  19.827  0.00  0.00    +0.000 A 
ATOM     26  C   UNL     1       3.401   5.699  18.761  0.00  0.00    +0.000 A 
ATOM     27  F   UNL     1       3.990   4.496  18.682  0.00  0.00    +0.000 F 
ENDBRANCH   1  23
TORSDOF 2
ENDMDL
MODEL 6
REMARK VINA RESULT:      -7.1     11.674     15.918
REMARK  Name = 
REMARK  4 active torsions:
REMARK  status: ('A' for Active; 'I' for Inactive)
REMARK    1  A    between atoms: C_1  and  C_2
REMARK    2  A    between atoms: C_4  and  N_5
REMARK    3  A    between atoms: C_7  and  C_8
REMARK    4  A    between atoms: N_10  and  C_11
REMARK                            x       y       z     vdW  Elec       q    Type
REMARK                         _______ _______ _______ _____ _____    ______ ____
ROOT
ATOM      1  N   UNL     1       6.170   4.389  14.538  0.00  0.00    +0.000 N 
ATOM      2  C   UNL     1       5.329   4.200  15.690  0.00  0.00    +0.000 C 
ATOM      3  C   UNL     1       5.659   5.355  16.602  0.00  0.00    +0.000 C 
ATOM      4  C   UNL     1       7.108   5.697  16.234  0.00  0.00    +0.000 C 
ATOM      5  C   UNL     1       7.246   5.226  14.816  0.00  0.00    +0.000 C 
ATOM      6  O   UNL     1       8.203   5.532  14.123  0.00  0.00    +0.000 OA
ENDROOT
BRANCH   3   7
ATOM      7  C   UNL     1       4.717   6.578  16.502  0.00  0.00    +0.000 C 
ATOM      8  O   UNL     1       4.819   7.358  15.554  0.00  0.00    +0.000 OA
ATOM      9  N   UNL     1       3.759   6.771  17.504  0.00  0.00    +0.000 N 
ATOM     10  C   UNL     1       2.891   7.943  17.491  0.00  0.00    +0.000 C 
ATOM     11  C   UNL     1       3.520   5.770  18.422  0.00  0.00    +0.000 A 
ATOM     12  N   UNL     1       3.952   4.534  18.370  0.00  0.00    +0.000 NA
ATOM     13  C   UNL     1       3.464   3.950  19.485  0.00  0.00    +0.000 A 
ATOM     14  C   UNL     1       3.618   2.642  19.937  0.00  0.00    +0.000 A 
ATOM     15  C   UNL     1       2.951   2.299  21.118  0.00  0.00    +0.000 A 
ATOM     16  C   UNL     1       2.182   3.243  21.811  0.00  0.00    +0.000 A 
ATOM     17  C   UNL     1       2.056   4.572  21.376  0.00  0.00    +0.000 A 
ATOM     18  C   UNL     1       2.720   4.866  20.196  0.00  0.00    +0.000 A 
ATOM     19  O   UNL     1       2.748   6.053  19.518  0.00  0.00    +0.000 OA
ENDBRANCH   3   7
BRANCH   1  23
ATOM     20  C   UNL     1       3.189   3.182  10.760  0.00  0.00    +0.000 C 
ATOM     21  C   UNL     1       4.501   3.079  11.470  0.00  0.00    +0.000 A 
ATOM     22  C   UNL     1       4.724   3.770  12.662  0.00  0.00    +0.000 A 
ATOM     23  C   UNL     1       5.954   3.694  13.329  0.00  0.00    +0.000 A 
ATOM     24  C   UNL     1       6.969   2.898  12.774  0.00  0.00    +0.000 A 
ATOM     25  C   UNL     1       6.753   2.189  11.593  0.00  0.00    +0.000 A 
ATOM     26  C   UNL     1       5.524   2.285  10.957  0.00  0.00    +0.000 A 
ATOM     27  F   UNL     1       5.328   1.591   9.826  0.00  0.00    +0.000 F 
ENDBRANCH   1  23
TORSDOF 2
ENDMDL
MODEL 7
REMARK VINA RESULT:      -7.1      4.240      7.962
REMARK  Name = 
REMARK  4 active torsions:
REMARK  status: ('A' for Active; 'I' for Inactive)
REMARK    1  A    between atoms: C_1  and  C_2
REMARK    2  A    between atoms: C_4  and  N_5
REMARK    3  A    between atoms: C_7  and  C_8
REMARK    4  A    between atoms: N_10  and  C_11
REMARK                            x       y       z     vdW  Elec       q    Type
REMARK                         _______ _______ _______ _____ _____    ______ ____
ROOT
ATOM      1  N   UNL     1      -0.167  10.813  19.479  0.00  0.00    +0.000 N 
ATOM      2  C   UNL     1      -1.480  10.871  20.062  0.00  0.00    +0.000 C 
ATOM      3  C   UNL     1      -2.138  12.062  19.413  0.00  0.00    +0.000 C 
ATOM      4  C   UNL     1      -0.957  12.972  19.057  0.00  0.00    +0.000 C 
ATOM      5  C   UNL     1       0.200  12.028  18.911  0.00  0.00    +0.000 C 
ATOM      6  O   UNL     1       1.261  12.377  18.418  0.00  0.00    +0.000 OA
ENDROOT
BRANCH   3   7
ATOM      7  C   UNL     1      -3.035  11.749  18.191  0.00  0.00    +0.000 C 
ATOM      8  O   UNL     1      -2.553  11.206  17.196  0.00  0.00    +0.000 OA
ATOM      9  N   UNL     1      -4.390  12.094  18.248  0.00  0.00    +0.000 N 
ATOM     10  C   UNL     1      -5.264  11.880  17.099  0.00  0.00    +0.000 C 
ATOM     11  C   UNL     1      -4.945  12.490  19.447  0.00  0.00    +0.000 A 
ATOM     12  N   UNL     1      -4.398  12.404  20.634  0.00  0.00    +0.000 NA
ATOM     13  C   UNL     1      -5.318  12.920  21.477  0.00  0.00    +0.000 A 
ATOM     14  C   UNL     1      -5.259  13.078  22.860  0.00  0.00    +0.000 A 
ATOM     15  C   UNL     1      -6.395  13.605  23.484  0.00  0.00    +0.000 A 
ATOM     16  C   UNL     1      -7.523  13.968  22.737  0.00  0.00    +0.000 A 
ATOM     17  C   UNL     1      -7.570  13.843  21.340  0.00  0.00    +0.000 A 
ATOM     18  C   UNL     1      -6.432  13.304  20.763  0.00  0.00    +0.000 A 
ATOM     19  O   UNL     1      -6.203  13.032  19.443  0.00  0.00    +0.000 OA
ENDBRANCH   3   7
BRANCH   1  23
ATOM     20  C   UNL     1       3.093   7.651  17.480  0.00  0.00    +0.000 C 
ATOM     21  C   UNL     1       2.250   8.101  18.631  0.00  0.00    +0.000 A 
ATOM     22  C   UNL     1       1.439   9.232  18.522  0.00  0.00    +0.000 A 
ATOM     23  C   UNL     1       0.656   9.672  19.597  0.00  0.00    +0.000 A 
ATOM     24  C   UNL     1       0.698   8.946  20.799  0.00  0.00    +0.000 A 
ATOM     25  C   UNL     1       1.491   7.805  20.914  0.00  0.00    +0.000 A 
ATOM     26  C   UNL     1       2.254   7.394  19.831  0.00  0.00    +0.000 A 
ATOM     27  F   UNL     1       3.005   6.290  19.954  0.00  0.00    +0.000 F 
ENDBRANCH   1  23
TORSDOF 2
ENDMDL
MODEL 8
REMARK VINA RESULT:      -7.1     11.141     12.646
REMARK  Name = 
REMARK  4 active torsions:
REMARK  status: ('A' for Active; 'I' for Inactive)
REMARK    1  A    between atoms: C_1  and  C_2
REMARK    2  A    between atoms: C_4  and  N_5
REMARK    3  A    between atoms: C_7  and  C_8
REMARK    4  A    between atoms: N_10  and  C_11
REMARK                            x       y       z     vdW  Elec       q    Type
REMARK                         _______ _______ _______ _____ _____    ______ ____
ROOT
ATOM      1  N   UNL     1       4.600  16.299  19.395  0.00  0.00    +0.000 N 
ATOM      2  C   UNL     1       5.320  15.070  19.199  0.00  0.00    +0.000 C 
ATOM      3  C   UNL     1       6.587  15.232  20.001  0.00  0.00    +0.000 C 
ATOM      4  C   UNL     1       6.810  16.749  20.011  0.00  0.00    +0.000 C 
ATOM      5  C   UNL     1       5.435  17.322  19.834  0.00  0.00    +0.000 C 
ATOM      6  O   UNL     1       5.200  18.506  20.012  0.00  0.00    +0.000 OA
ENDROOT
BRANCH   3   7
ATOM      7  C   UNL     1       6.561  14.626  21.424  0.00  0.00    +0.000 C 
ATOM      8  O   UNL     1       5.608  14.851  22.172  0.00  0.00    +0.000 OA
ATOM      9  N   UNL     1       7.634  13.826  21.833  0.00  0.00    +0.000 N 
ATOM     10  C   UNL     1       7.689  13.285  23.186  0.00  0.00    +0.000 C 
ATOM     11  C   UNL     1       8.568  13.412  20.907  0.00  0.00    +0.000 A 
ATOM     12  N   UNL     1       8.483  13.511  19.603  0.00  0.00    +0.000 NA
ATOM     13  C   UNL     1       9.633  12.977  19.139  0.00  0.00    +0.000 A 
ATOM     14  C   UNL     1      10.071  12.827  17.825  0.00  0.00    +0.000 A 
ATOM     15  C   UNL     1      11.300  12.186  17.639  0.00  0.00    +0.000 A 
ATOM     16  C   UNL     1      12.051  11.737  18.733  0.00  0.00    +0.000 A 
ATOM     17  C   UNL     1      11.627  11.919  20.058  0.00  0.00    +0.000 A 
ATOM     18  C   UNL     1      10.399  12.545  20.199  0.00  0.00    +0.000 A 
ATOM     19  O   UNL     1       9.721  12.822  21.353  0.00  0.00    +0.000 OA
ENDBRANCH   3   7
BRANCH   1  23
ATOM     20  C   UNL     1       1.059  18.331  16.575  0.00  0.00    +0.000 C 
ATOM     21  C   UNL     1       1.480  17.428  17.690  0.00  0.00    +0.000 A 
ATOM     22  C   UNL     1       2.828  17.286  18.025  0.00  0.00    +0.000 A 
ATOM     23  C   UNL     1       3.236  16.432  19.058  0.00  0.00    +0.000 A 
ATOM     24  C   UNL     1       2.255  15.715  19.762  0.00  0.00    +0.000 A 
ATOM     25  C   UNL     1       0.904  15.860  19.449  0.00  0.00    +0.000 A 
ATOM     26  C   UNL     1       0.532  16.715  18.421  0.00  0.00    +0.000 A 
ATOM     27  F   UNL     1      -0.772  16.851  18.137  0.00  0.00    +0.000 F 
ENDBRANCH   1  23
TORSDOF 2
ENDMDL
MODEL 9
REMARK VINA RESULT:      -7.1      6.346     10.174
REMARK  Name = 
REMARK  4 active torsions:
REMARK  status: ('A' for Active; 'I' for Inactive)
REMARK    1  A    between atoms: C_1  and  C_2
REMARK    2  A    between atoms: C_4  and  N_5
REMARK    3  A    between atoms: C_7  and  C_8
REMARK    4  A    between atoms: N_10  and  C_11
REMARK                            x       y       z     vdW  Elec       q    Type
REMARK                         _______ _______ _______ _____ _____    ______ ____
ROOT
ATOM      1  N   UNL     1       1.721   8.397  18.680  0.00  0.00    +0.000 N 
ATOM      2  C   UNL     1       0.991   9.284  17.815  0.00  0.00    +0.000 C 
ATOM      3  C   UNL     1       0.617  10.454  18.688  0.00  0.00    +0.000 C 
ATOM      4  C   UNL     1       0.547   9.843  20.093  0.00  0.00    +0.000 C 
ATOM      5  C   UNL     1       1.466   8.659  20.023  0.00  0.00    +0.000 C 
ATOM      6  O   UNL     1       1.826   8.059  21.023  0.00  0.00    +0.000 OA
ENDROOT
BRANCH   3   7
ATOM      7  C   UNL     1       1.569  11.673  18.618  0.00  0.00    +0.000 C 
ATOM      8  O   UNL     1       2.677  11.559  18.094  0.00  0.00    +0.000 OA
ATOM      9  N   UNL     1       1.140  12.890  19.159  0.00  0.00    +0.000 N 
ATOM     10  C   UNL     1       2.022  14.052  19.177  0.00  0.00    +0.000 C 
ATOM     11  C   UNL     1      -0.179  13.045  19.532  0.00  0.00    +0.000 A 
ATOM     12  N   UNL     1      -1.174  12.236  19.265  0.00  0.00    +0.000 NA
ATOM     13  C   UNL     1      -2.251  12.809  19.842  0.00  0.00    +0.000 A 
ATOM     14  C   UNL     1      -3.574  12.373  19.872  0.00  0.00    +0.000 A 
ATOM     15  C   UNL     1      -4.499  13.206  20.512  0.00  0.00    +0.000 A 
ATOM     16  C   UNL     1      -4.094  14.410  21.102  0.00  0.00    +0.000 A 
ATOM     17  C   UNL     1      -2.756  14.833  21.104  0.00  0.00    +0.000 A 
ATOM     18  C   UNL     1      -1.876  13.987  20.449  0.00  0.00    +0.000 A 
ATOM     19  O   UNL     1      -0.532  14.153  20.257  0.00  0.00    +0.000 OA
ENDBRANCH   3   7
BRANCH   1  23
ATOM     20  C   UNL     1       2.309   3.540  17.848  0.00  0.00    +0.000 C 
ATOM     21  C   UNL     1       2.811   4.947  17.771  0.00  0.00    +0.000 A 
ATOM     22  C   UNL     1       2.045   6.007  18.259  0.00  0.00    +0.000 A 
ATOM     23  C   UNL     1       2.498   7.330  18.179  0.00  0.00    +0.000 A 
ATOM     24  C   UNL     1       3.753   7.575  17.597  0.00  0.00    +0.000 A 
ATOM     25  C   UNL     1       4.535   6.523  17.122  0.00  0.00    +0.000 A 
ATOM     26  C   UNL     1       4.059   5.224  17.217  0.00  0.00    +0.000 A 
ATOM     27  F   UNL     1       4.826   4.222  16.764  0.00  0.00    +0.000 F 
ENDBRANCH   1  23
TORSDOF 2
ENDMDL
