MODEL 1
REMARK VINA RESULT:      -9.0      0.000      0.000
REMARK  Name = 
REMARK  4 active torsions:
REMARK  status: ('A' for Active; 'I' for Inactive)
REMARK    1  A    between atoms: C_2  and  C_15
REMARK    2  A    between atoms: N_3  and  C_4
REMARK    3  A    between atoms: C_6  and  C_7
REMARK    4  A    between atoms: C_19  and  C_20
REMARK                            x       y       z     vdW  Elec       q    Type
REMARK                         _______ _______ _______ _____ _____    ______ ____
ROOT
ATOM      1  O   UNL     1       2.565   7.331  18.894  0.00  0.00    +0.000 OA
ATOM      2  C   UNL     1       2.128   6.688  19.842  0.00  0.00    +0.000 C 
ATOM      3  N   UNL     1       1.641   7.291  20.983  0.00  0.00    +0.000 N 
ATOM      4  H   UNL     1       1.381   6.663  21.738  0.00  0.00    +0.000 HD
ENDROOT
BRANCH   2   5
ATOM      5  C   UNL     1       2.068   5.231  19.867  0.00  0.00    +0.000 A 
ATOM      6  N   UNL     1       1.043   4.512  20.474  0.00  0.00    +0.000 NA
ATOM      7  C   UNL     1       1.416   3.262  20.315  0.00  0.00    +0.000 A 
ATOM      8  O   UNL     1       2.573   3.082  19.628  0.00  0.00    +0.000 OA
ATOM      9  C   UNL     1       2.983   4.352  19.311  0.00  0.00    +0.000 A 
BRANCH   9  10
ATOM     10  C   UNL     1       4.158   4.453  18.455  0.00  0.00    +0.000 A 
ATOM     11  C   UNL     1       5.441   4.624  18.997  0.00  0.00    +0.000 A 
ATOM     12  C   UNL     1       6.567   4.673  18.166  0.00  0.00    +0.000 A 
ATOM     13  C   UNL     1       6.420   4.552  16.786  0.00  0.00    +0.000 A 
ATOM     14  C   UNL     1       5.151   4.368  16.238  0.00  0.00    +0.000 A 
ATOM     15  C   UNL     1       4.031   4.328  17.065  0.00  0.00    +0.000 A 
ATOM     16  O   UNL     1       4.921   4.213  14.895  0.00  0.00    +0.000 OA
ATOM     17  C   UNL     1       6.125   3.885  14.198  0.00  0.00    +0.000 C 
ATOM     18  C   UNL     1       7.266   4.787  14.641  0.00  0.00    +0.000 C 
ATOM     19  O   UNL     1       7.563   4.602  16.030  0.00  0.00    +0.000 OA
ENDBRANCH   9  10
ENDBRANCH   2   5
BRANCH   3  20
ATOM     20  C   UNL     1       1.706   8.758  21.160  0.00  0.00    +0.000 C 
ATOM     21  C   UNL     1       0.751   9.586  20.266  0.00  0.00    +0.000 C 
ATOM     22  C   UNL     1      -0.269   9.612  21.436  0.00  0.00    +0.000 C 
ATOM     23  C   UNL     1       0.927   9.279  22.376  0.00  0.00    +0.000 C 
BRANCH  22  24
ATOM     24  C   UNL     1      -1.111  10.914  21.782  0.00  0.00    +0.000 A 
ATOM     25  C   UNL     1      -1.467  11.304  23.089  0.00  0.00    +0.000 A 
ATOM     26  C   UNL     1      -2.189  12.480  23.340  0.00  0.00    +0.000 A 
ATOM     27  C   UNL     1      -2.580  13.306  22.288  0.00  0.00    +0.000 A 
ATOM     28  C   UNL     1      -2.251  12.952  20.986  0.00  0.00    +0.000 A 
ATOM     29  C   UNL     1      -1.531  11.781  20.754  0.00  0.00    +0.000 A 
ATOM     30  F   UNL     1      -1.221  11.476  19.484  0.00  0.00    +0.000 F 
ENDBRANCH  22  24
ENDBRANCH   3  20
TORSDOF 4
ENDMDL
MODEL 2
REMARK VINA RESULT:      -9.0      0.840      1.215
REMARK  Name = 
REMARK  4 active torsions:
REMARK  status: ('A' for Active; 'I' for Inactive)
REMARK    1  A    between atoms: C_2  and  C_15
REMARK    2  A    between atoms: N_3  and  C_4
REMARK    3  A    between atoms: C_6  and  C_7
REMARK    4  A    between atoms: C_19  and  C_20
REMARK                            x       y       z     vdW  Elec       q    Type
REMARK                         _______ _______ _______ _____ _____    ______ ____
ROOT
ATOM      1  O   UNL     1       2.740   7.400  18.898  0.00  0.00    +0.000 OA
ATOM      2  C   UNL     1       2.270   6.778  19.845  0.00  0.00    +0.000 C 
ATOM      3  N   UNL     1       1.744   7.406  20.954  0.00  0.00    +0.000 N 
ATOM      4  H   UNL     1       1.457   6.796  21.714  0.00  0.00    +0.000 HD
ENDROOT
BRANCH   2   5
ATOM      5  C   UNL     1       2.209   5.322  19.901  0.00  0.00    +0.000 A 
ATOM      6  N   UNL     1       1.197   4.617  20.546  0.00  0.00    +0.000 NA
ATOM      7  C   UNL     1       1.564   3.363  20.404  0.00  0.00    +0.000 A 
ATOM      8  O   UNL     1       2.704   3.168  19.693  0.00  0.00    +0.000 OA
ATOM      9  C   UNL     1       3.109   4.430  19.341  0.00  0.00    +0.000 A 
BRANCH   9  10
ATOM     10  C   UNL     1       4.263   4.512  18.456  0.00  0.00    +0.000 A 
ATOM     11  C   UNL     1       5.563   4.653  18.965  0.00  0.00    +0.000 A 
ATOM     12  C   UNL     1       6.668   4.683  18.105  0.00  0.00    +0.000 A 
ATOM     13  C   UNL     1       6.483   4.574  16.729  0.00  0.00    +0.000 A 
ATOM     14  C   UNL     1       5.197   4.419  16.214  0.00  0.00    +0.000 A 
ATOM     15  C   UNL     1       4.098   4.398  17.069  0.00  0.00    +0.000 A 
ATOM     16  O   UNL     1       4.929   4.277  14.876  0.00  0.00    +0.000 OA
ATOM     17  C   UNL     1       6.108   3.928  14.147  0.00  0.00    +0.000 C 
ATOM     18  C   UNL     1       7.278   4.804  14.565  0.00  0.00    +0.000 C 
ATOM     19  O   UNL     1       7.607   4.605  15.945  0.00  0.00    +0.000 OA
ENDBRANCH   9  10
ENDBRANCH   2   5
BRANCH   3  20
ATOM     20  C   UNL     1       1.802   8.877  21.100  0.00  0.00    +0.000 C 
ATOM     21  C   UNL     1       0.916   9.686  20.123  0.00  0.00    +0.000 C 
ATOM     22  C   UNL     1      -0.182   9.743  21.217  0.00  0.00    +0.000 C 
ATOM     23  C   UNL     1       0.943   9.430  22.246  0.00  0.00    +0.000 C 
BRANCH  22  24
ATOM     24  C   UNL     1      -1.041  11.056  21.472  0.00  0.00    +0.000 A 
ATOM     25  C   UNL     1      -1.278  12.049  20.499  0.00  0.00    +0.000 A 
ATOM     26  C   UNL     1      -2.068  13.176  20.770  0.00  0.00    +0.000 A 
ATOM     27  C   UNL     1      -2.646  13.347  22.026  0.00  0.00    +0.000 A 
ATOM     28  C   UNL     1      -2.431  12.392  23.010  0.00  0.00    +0.000 A 
ATOM     29  C   UNL     1      -1.646  11.276  22.725  0.00  0.00    +0.000 A 
ATOM     30  F   UNL     1      -1.469  10.368  23.697  0.00  0.00    +0.000 F 
ENDBRANCH  22  24
ENDBRANCH   3  20
TORSDOF 4
ENDMDL
MODEL 3
REMARK VINA RESULT:      -8.9      5.662      8.559
REMARK  Name = 
REMARK  4 active torsions:
REMARK  status: ('A' for Active; 'I' for Inactive)
REMARK    1  A    between atoms: C_2  and  C_15
REMARK    2  A    between atoms: N_3  and  C_4
REMARK    3  A    between atoms: C_6  and  C_7
REMARK    4  A    between atoms: C_19  and  C_20
REMARK                            x       y       z     vdW  Elec       q    Type
REMARK                         _______ _______ _______ _____ _____    ______ ____
ROOT
ATOM      1  O   UNL     1       7.462   6.446  18.733  0.00  0.00    +0.000 OA
ATOM      2  C   UNL     1       7.265   6.868  17.598  0.00  0.00    +0.000 C 
ATOM      3  N   UNL     1       7.394   8.202  17.272  0.00  0.00    +0.000 N 
ATOM      4  H   UNL     1       7.128   8.454  16.325  0.00  0.00    +0.000 HD
ENDROOT
BRANCH   2   5
ATOM      5  C   UNL     1       6.884   6.015  16.478  0.00  0.00    +0.000 A 
ATOM      6  N   UNL     1       7.701   5.778  15.376  0.00  0.00    +0.000 NA
ATOM      7  C   UNL     1       6.953   5.025  14.602  0.00  0.00    +0.000 A 
ATOM      8  O   UNL     1       5.731   4.709  15.102  0.00  0.00    +0.000 OA
ATOM      9  C   UNL     1       5.693   5.324  16.327  0.00  0.00    +0.000 A 
BRANCH   9  10
ATOM     10  C   UNL     1       4.522   5.049  17.148  0.00  0.00    +0.000 A 
ATOM     11  C   UNL     1       3.712   6.088  17.633  0.00  0.00    +0.000 A 
ATOM     12  C   UNL     1       2.563   5.807  18.382  0.00  0.00    +0.000 A 
ATOM     13  C   UNL     1       2.212   4.487  18.654  0.00  0.00    +0.000 A 
ATOM     14  C   UNL     1       3.002   3.447  18.164  0.00  0.00    +0.000 A 
ATOM     15  C   UNL     1       4.149   3.727  17.427  0.00  0.00    +0.000 A 
ATOM     16  O   UNL     1       2.714   2.120  18.362  0.00  0.00    +0.000 OA
ATOM     17  C   UNL     1       1.357   1.941  18.774  0.00  0.00    +0.000 C 
ATOM     18  C   UNL     1       0.991   2.934  19.865  0.00  0.00    +0.000 C 
ATOM     19  O   UNL     1       1.072   4.282  19.386  0.00  0.00    +0.000 OA
ENDBRANCH   9  10
ENDBRANCH   2   5
BRANCH   3  20
ATOM     20  C   UNL     1       7.692   9.216  18.306  0.00  0.00    +0.000 C 
ATOM     21  C   UNL     1       9.136   9.205  18.863  0.00  0.00    +0.000 C 
ATOM     22  C   UNL     1       9.503  10.315  17.842  0.00  0.00    +0.000 C 
ATOM     23  C   UNL     1       7.979  10.617  17.748  0.00  0.00    +0.000 C 
BRANCH  22  24
ATOM     24  C   UNL     1      10.452  11.529  18.232  0.00  0.00    +0.000 A 
ATOM     25  C   UNL     1      11.405  12.100  17.364  0.00  0.00    +0.000 A 
ATOM     26  C   UNL     1      12.198  13.191  17.751  0.00  0.00    +0.000 A 
ATOM     27  C   UNL     1      12.064  13.745  19.023  0.00  0.00    +0.000 A 
ATOM     28  C   UNL     1      11.138  13.206  19.905  0.00  0.00    +0.000 A 
ATOM     29  C   UNL     1      10.356  12.125  19.505  0.00  0.00    +0.000 A 
ATOM     30  F   UNL     1       9.463  11.636  20.381  0.00  0.00    +0.000 F 
ENDBRANCH  22  24
ENDBRANCH   3  20
TORSDOF 4
ENDMDL
MODEL 4
REMARK VINA RESULT:      -8.7      5.511      8.555
REMARK  Name = 
REMARK  4 active torsions:
REMARK  status: ('A' for Active; 'I' for Inactive)
REMARK    1  A    between atoms: C_2  and  C_15
REMARK    2  A    between atoms: N_3  and  C_4
REMARK    3  A    between atoms: C_6  and  C_7
REMARK    4  A    between atoms: C_19  and  C_20
REMARK                            x       y       z     vdW  Elec       q    Type
REMARK                         _______ _______ _______ _____ _____    ______ ____
ROOT
ATOM      1  O   UNL     1       7.150   6.217  18.665  0.00  0.00    +0.000 OA
ATOM      2  C   UNL     1       7.114   6.621  17.508  0.00  0.00    +0.000 C 
ATOM      3  N   UNL     1       7.352   7.938  17.176  0.00  0.00    +0.000 N 
ATOM      4  H   UNL     1       7.215   8.180  16.199  0.00  0.00    +0.000 HD
ENDROOT
BRANCH   2   5
ATOM      5  C   UNL     1       6.825   5.762  16.365  0.00  0.00    +0.000 A 
ATOM      6  N   UNL     1       7.618   5.706  15.223  0.00  0.00    +0.000 NA
ATOM      7  C   UNL     1       6.968   4.871  14.444  0.00  0.00    +0.000 A 
ATOM      8  O   UNL     1       5.838   4.339  14.975  0.00  0.00    +0.000 OA
ATOM      9  C   UNL     1       5.757   4.891  16.229  0.00  0.00    +0.000 A 
BRANCH   9  10
ATOM     10  C   UNL     1       4.685   4.395  17.081  0.00  0.00    +0.000 A 
ATOM     11  C   UNL     1       4.374   3.027  17.139  0.00  0.00    +0.000 A 
ATOM     12  C   UNL     1       3.372   2.558  17.998  0.00  0.00    +0.000 A 
ATOM     13  C   UNL     1       2.671   3.451  18.805  0.00  0.00    +0.000 A 
ATOM     14  C   UNL     1       2.983   4.810  18.766  0.00  0.00    +0.000 A 
ATOM     15  C   UNL     1       3.973   5.277  17.906  0.00  0.00    +0.000 A 
ATOM     16  O   UNL     1       2.362   5.752  19.547  0.00  0.00    +0.000 OA
ATOM     17  C   UNL     1       1.665   5.143  20.636  0.00  0.00    +0.000 C 
ATOM     18  C   UNL     1       0.857   3.949  20.158  0.00  0.00    +0.000 C 
ATOM     19  O   UNL     1       1.708   2.926  19.627  0.00  0.00    +0.000 OA
ENDBRANCH   9  10
ENDBRANCH   2   5
BRANCH   3  20
ATOM     20  C   UNL     1       7.577   8.961  18.220  0.00  0.00    +0.000 C 
ATOM     21  C   UNL     1       8.968   8.934  18.899  0.00  0.00    +0.000 C 
ATOM     22  C   UNL     1       9.440  10.025  17.901  0.00  0.00    +0.000 C 
ATOM     23  C   UNL     1       7.935  10.350  17.673  0.00  0.00    +0.000 C 
BRANCH  22  24
ATOM     24  C   UNL     1      10.372  11.229  18.358  0.00  0.00    +0.000 A 
ATOM     25  C   UNL     1      11.167  11.992  17.479  0.00  0.00    +0.000 A 
ATOM     26  C   UNL     1      11.951  13.064  17.932  0.00  0.00    +0.000 A 
ATOM     27  C   UNL     1      11.965  13.406  19.283  0.00  0.00    +0.000 A 
ATOM     28  C   UNL     1      11.197  12.673  20.178  0.00  0.00    +0.000 A 
ATOM     29  C   UNL     1      10.422  11.613  19.712  0.00  0.00    +0.000 A 
ATOM     30  F   UNL     1       9.684  10.934  20.605  0.00  0.00    +0.000 F 
ENDBRANCH  22  24
ENDBRANCH   3  20
TORSDOF 4
ENDMDL
MODEL 5
REMARK VINA RESULT:      -8.6      2.218      2.367
REMARK  Name = 
REMARK  4 active torsions:
REMARK  status: ('A' for Active; 'I' for Inactive)
REMARK    1  A    between atoms: C_2  and  C_15
REMARK    2  A    between atoms: N_3  and  C_4
REMARK    3  A    between atoms: C_6  and  C_7
REMARK    4  A    between atoms: C_19  and  C_20
REMARK                            x       y       z     vdW  Elec       q    Type
REMARK                         _______ _______ _______ _____ _____    ______ ____
ROOT
ATOM      1  O   UNL     1       2.289   5.416  21.213  0.00  0.00    +0.000 OA
ATOM      2  C   UNL     1       2.163   5.308  19.998  0.00  0.00    +0.000 C 
ATOM      3  N   UNL     1       2.201   6.396  19.151  0.00  0.00    +0.000 N 
ATOM      4  H   UNL     1       2.004   6.202  18.173  0.00  0.00    +0.000 HD
ENDROOT
BRANCH   2   5
ATOM      5  C   UNL     1       1.971   4.031  19.320  0.00  0.00    +0.000 A 
ATOM      6  N   UNL     1       0.856   3.220  19.506  0.00  0.00    +0.000 NA
ATOM      7  C   UNL     1       1.122   2.167  18.767  0.00  0.00    +0.000 A 
ATOM      8  O   UNL     1       2.291   2.219  18.078  0.00  0.00    +0.000 OA
ATOM      9  C   UNL     1       2.829   3.435  18.411  0.00  0.00    +0.000 A 
BRANCH   9  10
ATOM     10  C   UNL     1       4.050   3.811  17.710  0.00  0.00    +0.000 A 
ATOM     11  C   UNL     1       5.230   4.107  18.409  0.00  0.00    +0.000 A 
ATOM     12  C   UNL     1       6.408   4.422  17.721  0.00  0.00    +0.000 A 
ATOM     13  C   UNL     1       6.418   4.444  16.328  0.00  0.00    +0.000 A 
ATOM     14  C   UNL     1       5.255   4.137  15.624  0.00  0.00    +0.000 A 
ATOM     15  C   UNL     1       4.081   3.833  16.308  0.00  0.00    +0.000 A 
ATOM     16  O   UNL     1       5.184   4.108  14.254  0.00  0.00    +0.000 OA
ATOM     17  C   UNL     1       6.488   4.048  13.670  0.00  0.00    +0.000 C 
ATOM     18  C   UNL     1       7.419   5.053  14.329  0.00  0.00    +0.000 C 
ATOM     19  O   UNL     1       7.605   4.753  15.718  0.00  0.00    +0.000 OA
ENDBRANCH   9  10
ENDBRANCH   2   5
BRANCH   3  20
ATOM     20  C   UNL     1       2.304   7.773  19.679  0.00  0.00    +0.000 C 
ATOM     21  C   UNL     1       2.471   8.889  18.620  0.00  0.00    +0.000 C 
ATOM     22  C   UNL     1       0.937   9.117  18.665  0.00  0.00    +0.000 C 
ATOM     23  C   UNL     1       0.956   8.407  20.050  0.00  0.00    +0.000 C 
BRANCH  22  24
ATOM     24  C   UNL     1       0.307  10.576  18.616  0.00  0.00    +0.000 A 
ATOM     25  C   UNL     1       1.027  11.759  18.877  0.00  0.00    +0.000 A 
ATOM     26  C   UNL     1       0.427  13.024  18.792  0.00  0.00    +0.000 A 
ATOM     27  C   UNL     1      -0.917  13.146  18.443  0.00  0.00    +0.000 A 
ATOM     28  C   UNL     1      -1.658  12.001  18.182  0.00  0.00    +0.000 A 
ATOM     29  C   UNL     1      -1.047  10.752  18.268  0.00  0.00    +0.000 A 
ATOM     30  F   UNL     1      -1.792   9.668  17.999  0.00  0.00    +0.000 F 
ENDBRANCH  22  24
ENDBRANCH   3  20
TORSDOF 4
ENDMDL
MODEL 6
REMARK VINA RESULT:      -8.6      1.322      1.498
REMARK  Name = 
REMARK  4 active torsions:
REMARK  status: ('A' for Active; 'I' for Inactive)
REMARK    1  A    between atoms: C_2  and  C_15
REMARK    2  A    between atoms: N_3  and  C_4
REMARK    3  A    between atoms: C_6  and  C_7
REMARK    4  A    between atoms: C_19  and  C_20
REMARK                            x       y       z     vdW  Elec       q    Type
REMARK                         _______ _______ _______ _____ _____    ______ ____
ROOT
ATOM      1  O   UNL     1       2.408   5.027  21.605  0.00  0.00    +0.000 OA
ATOM      2  C   UNL     1       2.047   5.113  20.437  0.00  0.00    +0.000 C 
ATOM      3  N   UNL     1       1.848   6.325  19.810  0.00  0.00    +0.000 N 
ATOM      4  H   UNL     1       1.470   6.280  18.868  0.00  0.00    +0.000 HD
ENDROOT
BRANCH   2   5
ATOM      5  C   UNL     1       1.797   3.955  19.585  0.00  0.00    +0.000 A 
ATOM      6  N   UNL     1       0.635   3.191  19.644  0.00  0.00    +0.000 NA
ATOM      7  C   UNL     1       0.856   2.236  18.769  0.00  0.00    +0.000 A 
ATOM      8  O   UNL     1       2.039   2.316  18.107  0.00  0.00    +0.000 OA
ATOM      9  C   UNL     1       2.638   3.442  18.612  0.00  0.00    +0.000 A 
BRANCH   9  10
ATOM     10  C   UNL     1       3.890   3.840  17.983  0.00  0.00    +0.000 A 
ATOM     11  C   UNL     1       5.027   4.140  18.750  0.00  0.00    +0.000 A 
ATOM     12  C   UNL     1       6.238   4.476  18.131  0.00  0.00    +0.000 A 
ATOM     13  C   UNL     1       6.323   4.517  16.742  0.00  0.00    +0.000 A 
ATOM     14  C   UNL     1       5.203   4.207  15.971  0.00  0.00    +0.000 A 
ATOM     15  C   UNL     1       3.997   3.881  16.586  0.00  0.00    +0.000 A 
ATOM     16  O   UNL     1       5.208   4.196  14.599  0.00  0.00    +0.000 OA
ATOM     17  C   UNL     1       6.542   4.158  14.086  0.00  0.00    +0.000 C 
ATOM     18  C   UNL     1       7.424   5.164  14.808  0.00  0.00    +0.000 C 
ATOM     19  O   UNL     1       7.538   4.847  16.201  0.00  0.00    +0.000 OA
ENDBRANCH   9  10
ENDBRANCH   2   5
BRANCH   3  20
ATOM     20  C   UNL     1       1.975   7.599  20.552  0.00  0.00    +0.000 C 
ATOM     21  C   UNL     1       1.872   8.886  19.699  0.00  0.00    +0.000 C 
ATOM     22  C   UNL     1       0.365   8.966  20.061  0.00  0.00    +0.000 C 
ATOM     23  C   UNL     1       0.690   8.039  21.268  0.00  0.00    +0.000 C 
BRANCH  22  24
ATOM     24  C   UNL     1      -0.343  10.351  20.391  0.00  0.00    +0.000 A 
ATOM     25  C   UNL     1      -0.114  11.098  21.564  0.00  0.00    +0.000 A 
ATOM     26  C   UNL     1      -0.745  12.330  21.792  0.00  0.00    +0.000 A 
ATOM     27  C   UNL     1      -1.631  12.853  20.852  0.00  0.00    +0.000 A 
ATOM     28  C   UNL     1      -1.885  12.143  19.686  0.00  0.00    +0.000 A 
ATOM     29  C   UNL     1      -1.247  10.922  19.473  0.00  0.00    +0.000 A 
ATOM     30  F   UNL     1      -1.508  10.268  18.330  0.00  0.00    +0.000 F 
ENDBRANCH  22  24
ENDBRANCH   3  20
TORSDOF 4
ENDMDL
MODEL 7
REMARK VINA RESULT:      -8.6      1.940      2.522
REMARK  Name = 
REMARK  4 active torsions:
REMARK  status: ('A' for Active; 'I' for Inactive)
REMARK    1  A    between atoms: C_2  and  C_15
REMARK    2  A    between atoms: N_3  and  C_4
REMARK    3  A    between atoms: C_6  and  C_7
REMARK    4  A    between atoms: C_19  and  C_20
REMARK                            x       y       z     vdW  Elec       q    Type
REMARK                         _______ _______ _______ _____ _____    ______ ____
ROOT
ATOM      1  O   UNL     1       4.022   6.069  19.809  0.00  0.00    +0.000 OA
ATOM      2  C   UNL     1       3.267   5.785  18.886  0.00  0.00    +0.000 C 
ATOM      3  N   UNL     1       2.495   6.730  18.244  0.00  0.00    +0.000 N 
ATOM      4  H   UNL     1       1.845   6.374  17.549  0.00  0.00    +0.000 HD
ENDROOT
BRANCH   2   5
ATOM      5  C   UNL     1       3.107   4.432  18.364  0.00  0.00    +0.000 A 
ATOM      6  N   UNL     1       2.132   3.544  18.808  0.00  0.00    +0.000 NA
ATOM      7  C   UNL     1       2.388   2.449  18.130  0.00  0.00    +0.000 A 
ATOM      8  O   UNL     1       3.418   2.537  17.250  0.00  0.00    +0.000 OA
ATOM      9  C   UNL     1       3.868   3.827  17.378  0.00  0.00    +0.000 A 
BRANCH   9  10
ATOM     10  C   UNL     1       4.911   4.239  16.448  0.00  0.00    +0.000 A 
ATOM     11  C   UNL     1       6.009   5.001  16.876  0.00  0.00    +0.000 A 
ATOM     12  C   UNL     1       7.028   5.351  15.982  0.00  0.00    +0.000 A 
ATOM     13  C   UNL     1       6.960   4.943  14.652  0.00  0.00    +0.000 A 
ATOM     14  C   UNL     1       5.880   4.173  14.220  0.00  0.00    +0.000 A 
ATOM     15  C   UNL     1       4.863   3.833  15.107  0.00  0.00    +0.000 A 
ATOM     16  O   UNL     1       5.749   3.707  12.936  0.00  0.00    +0.000 OA
ATOM     17  C   UNL     1       6.991   3.773  12.232  0.00  0.00    +0.000 C 
ATOM     18  C   UNL     1       7.663   5.119  12.451  0.00  0.00    +0.000 C 
ATOM     19  O   UNL     1       7.993   5.314  13.832  0.00  0.00    +0.000 OA
ENDBRANCH   9  10
ENDBRANCH   2   5
BRANCH   3  20
ATOM     20  C   UNL     1       2.471   8.137  18.701  0.00  0.00    +0.000 C 
ATOM     21  C   UNL     1       1.733   9.133  17.773  0.00  0.00    +0.000 C 
ATOM     22  C   UNL     1       0.463   8.955  18.647  0.00  0.00    +0.000 C 
ATOM     23  C   UNL     1       1.408   8.433  19.768  0.00  0.00    +0.000 C 
BRANCH  22  24
ATOM     24  C   UNL     1      -0.477  10.182  19.016  0.00  0.00    +0.000 A 
ATOM     25  C   UNL     1      -0.432  10.873  20.243  0.00  0.00    +0.000 A 
ATOM     26  C   UNL     1      -1.267  11.970  20.506  0.00  0.00    +0.000 A 
ATOM     27  C   UNL     1      -2.176  12.410  19.546  0.00  0.00    +0.000 A 
ATOM     28  C   UNL     1      -2.251  11.751  18.326  0.00  0.00    +0.000 A 
ATOM     29  C   UNL     1      -1.413  10.666  18.080  0.00  0.00    +0.000 A 
ATOM     30  F   UNL     1      -1.505  10.059  16.885  0.00  0.00    +0.000 F 
ENDBRANCH  22  24
ENDBRANCH   3  20
TORSDOF 4
ENDMDL
MODEL 8
REMARK VINA RESULT:      -8.5      3.175      9.471
REMARK  Name = 
REMARK  4 active torsions:
REMARK  status: ('A' for Active; 'I' for Inactive)
REMARK    1  A    between atoms: C_2  and  C_15
REMARK    2  A    between atoms: N_3  and  C_4
REMARK    3  A    between atoms: C_6  and  C_7
REMARK    4  A    between atoms: C_19  and  C_20
REMARK                            x       y       z     vdW  Elec       q    Type
REMARK                         _______ _______ _______ _____ _____    ______ ____
ROOT
ATOM      1  O   UNL     1       5.600   5.398  19.786  0.00  0.00    +0.000 OA
ATOM      2  C   UNL     1       4.509   5.225  19.253  0.00  0.00    +0.000 C 
ATOM      3  N   UNL     1       4.351   5.202  17.883  0.00  0.00    +0.000 N 
ATOM      4  H   UNL     1       3.393   5.134  17.549  0.00  0.00    +0.000 HD
ENDROOT
BRANCH   2   5
ATOM      5  C   UNL     1       3.273   5.017  19.999  0.00  0.00    +0.000 A 
ATOM      6  N   UNL     1       2.988   3.856  20.711  0.00  0.00    +0.000 NA
ATOM      7  C   UNL     1       1.773   4.069  21.164  0.00  0.00    +0.000 A 
ATOM      8  O   UNL     1       1.239   5.278  20.850  0.00  0.00    +0.000 OA
ATOM      9  C   UNL     1       2.217   5.905  20.121  0.00  0.00    +0.000 A 
BRANCH   9  10
ATOM     10  C   UNL     1       1.953   7.289  19.749  0.00  0.00    +0.000 A 
ATOM     11  C   UNL     1       2.228   7.761  18.456  0.00  0.00    +0.000 A 
ATOM     12  C   UNL     1       1.927   9.081  18.099  0.00  0.00    +0.000 A 
ATOM     13  C   UNL     1       1.349   9.941  19.029  0.00  0.00    +0.000 A 
ATOM     14  C   UNL     1       1.059   9.477  20.312  0.00  0.00    +0.000 A 
ATOM     15  C   UNL     1       1.366   8.167  20.670  0.00  0.00    +0.000 A 
ATOM     16  O   UNL     1       0.466  10.249  21.279  0.00  0.00    +0.000 OA
ATOM     17  C   UNL     1      -0.147  11.409  20.712  0.00  0.00    +0.000 C 
ATOM     18  C   UNL     1       0.788  12.080  19.719  0.00  0.00    +0.000 C 
ATOM     19  O   UNL     1       1.074  11.217  18.613  0.00  0.00    +0.000 OA
ENDBRANCH   9  10
ENDBRANCH   2   5
BRANCH   3  20
ATOM     20  C   UNL     1       5.486   5.480  16.977  0.00  0.00    +0.000 C 
ATOM     21  C   UNL     1       6.240   4.238  16.443  0.00  0.00    +0.000 C 
ATOM     22  C   UNL     1       5.363   4.296  15.164  0.00  0.00    +0.000 C 
ATOM     23  C   UNL     1       5.076   5.782  15.529  0.00  0.00    +0.000 C 
BRANCH  22  24
ATOM     24  C   UNL     1       5.970   4.017  13.722  0.00  0.00    +0.000 A 
ATOM     25  C   UNL     1       5.384   3.161  12.768  0.00  0.00    +0.000 A 
ATOM     26  C   UNL     1       5.947   2.971  11.497  0.00  0.00    +0.000 A 
ATOM     27  C   UNL     1       7.120   3.635  11.140  0.00  0.00    +0.000 A 
ATOM     28  C   UNL     1       7.728   4.484  12.055  0.00  0.00    +0.000 A 
ATOM     29  C   UNL     1       7.153   4.663  13.312  0.00  0.00    +0.000 A 
ATOM     30  F   UNL     1       7.763   5.499  14.168  0.00  0.00    +0.000 F 
ENDBRANCH  22  24
ENDBRANCH   3  20
TORSDOF 4
ENDMDL
MODEL 9
REMARK VINA RESULT:      -8.5      6.019      8.679
REMARK  Name = 
REMARK  4 active torsions:
REMARK  status: ('A' for Active; 'I' for Inactive)
REMARK    1  A    between atoms: C_2  and  C_15
REMARK    2  A    between atoms: N_3  and  C_4
REMARK    3  A    between atoms: C_6  and  C_7
REMARK    4  A    between atoms: C_19  and  C_20
REMARK                            x       y       z     vdW  Elec       q    Type
REMARK                         _______ _______ _______ _____ _____    ______ ____
ROOT
ATOM      1  O   UNL     1       7.782   6.601  18.809  0.00  0.00    +0.000 OA
ATOM      2  C   UNL     1       7.445   7.014  17.705  0.00  0.00    +0.000 C 
ATOM      3  N   UNL     1       7.487   8.351  17.370  0.00  0.00    +0.000 N 
ATOM      4  H   UNL     1       7.108   8.592  16.459  0.00  0.00    +0.000 HD
ENDROOT
BRANCH   2   5
ATOM      5  C   UNL     1       6.973   6.147  16.631  0.00  0.00    +0.000 A 
ATOM      6  N   UNL     1       7.717   5.856  15.491  0.00  0.00    +0.000 NA
ATOM      7  C   UNL     1       6.902   5.109  14.781  0.00  0.00    +0.000 A 
ATOM      8  O   UNL     1       5.702   4.844  15.359  0.00  0.00    +0.000 OA
ATOM      9  C   UNL     1       5.755   5.490  16.568  0.00  0.00    +0.000 A 
BRANCH   9  10
ATOM     10  C   UNL     1       4.626   5.272  17.462  0.00  0.00    +0.000 A 
ATOM     11  C   UNL     1       3.707   6.296  17.738  0.00  0.00    +0.000 A 
ATOM     12  C   UNL     1       2.601   6.061  18.563  0.00  0.00    +0.000 A 
ATOM     13  C   UNL     1       2.402   4.800  19.120  0.00  0.00    +0.000 A 
ATOM     14  C   UNL     1       3.301   3.771  18.840  0.00  0.00    +0.000 A 
ATOM     15  C   UNL     1       4.406   4.008  18.027  0.00  0.00    +0.000 A 
ATOM     16  O   UNL     1       3.165   2.494  19.324  0.00  0.00    +0.000 OA
ATOM     17  C   UNL     1       1.839   2.262  19.805  0.00  0.00    +0.000 C 
ATOM     18  C   UNL     1       1.369   3.420  20.669  0.00  0.00    +0.000 C 
ATOM     19  O   UNL     1       1.296   4.635  19.912  0.00  0.00    +0.000 OA
ENDBRANCH   9  10
ENDBRANCH   2   5
BRANCH   3  20
ATOM     20  C   UNL     1       7.861   9.378  18.367  0.00  0.00    +0.000 C 
ATOM     21  C   UNL     1       9.380   9.581  18.586  0.00  0.00    +0.000 C 
ATOM     22  C   UNL     1       9.334  10.756  17.574  0.00  0.00    +0.000 C 
ATOM     23  C   UNL     1       7.802  10.818  17.839  0.00  0.00    +0.000 C 
BRANCH  22  24
ATOM     24  C   UNL     1      10.157  12.096  17.810  0.00  0.00    +0.000 A 
ATOM     25  C   UNL     1       9.582  13.382  17.848  0.00  0.00    +0.000 A 
ATOM     26  C   UNL     1      10.352  14.530  18.089  0.00  0.00    +0.000 A 
ATOM     27  C   UNL     1      11.726  14.427  18.299  0.00  0.00    +0.000 A 
ATOM     28  C   UNL     1      12.327  13.176  18.264  0.00  0.00    +0.000 A 
ATOM     29  C   UNL     1      11.548  12.046  18.027  0.00  0.00    +0.000 A 
ATOM     30  F   UNL     1      12.162  10.851  18.012  0.00  0.00    +0.000 F 
ENDBRANCH  22  24
ENDBRANCH   3  20
TORSDOF 4
ENDMDL
