MODEL 1
REMARK VINA RESULT:      -9.3      0.000      0.000
REMARK  Name = 
REMARK  7 active torsions:
REMARK  status: ('A' for Active; 'I' for Inactive)
REMARK    1  A    between atoms: C_1  and  C_2
REMARK    2  A    between atoms: C_10  and  S_11
REMARK    3  A    between atoms: S_11  and  N_14
REMARK    4  A    between atoms: N_14  and  C_15
REMARK    5  A    between atoms: C_15  and  C_16
REMARK    6  A    between atoms: C_16  and  C_17
REMARK    7  A    between atoms: C_17  and  C_18
REMARK                            x       y       z     vdW  Elec       q    Type
REMARK                         _______ _______ _______ _____ _____    ______ ____
ROOT
ATOM      1  S   UNL     1       2.949   3.213  18.061  0.00  0.00    +0.000 S 
ATOM      2  O   UNL     1       2.723   2.142  19.004  0.00  0.00    +0.000 OA
ATOM      3  O   UNL     1       2.362   3.218  16.743  0.00  0.00    +0.000 OA
ENDROOT
BRANCH   1  13
ATOM      4  C   UNL     1       1.203  12.152  20.584  0.00  0.00    +0.000 C 
ATOM      5  C   UNL     1       1.338  11.437  19.260  0.00  0.00    +0.000 C 
ATOM      6  O   UNL     1       1.760  12.050  18.280  0.00  0.00    +0.000 OA
ATOM      7  N   UNL     1       0.989  10.092  19.213  0.00  0.00    +0.000 N 
ATOM      8  C   UNL     1       0.530   9.305  20.360  0.00  0.00    +0.000 C 
ATOM      9  C   UNL     1       1.622   8.407  20.935  0.00  0.00    +0.000 C 
ATOM     10  C   UNL     1       1.863   7.143  20.136  0.00  0.00    +0.000 A 
ATOM     11  C   UNL     1       1.692   5.906  20.786  0.00  0.00    +0.000 A 
ATOM     12  C   UNL     1       2.015   4.712  20.149  0.00  0.00    +0.000 A 
ATOM     13  C   UNL     1       2.506   4.747  18.843  0.00  0.00    +0.000 A 
ATOM     14  C   UNL     1       2.645   5.961  18.165  0.00  0.00    +0.000 A 
ATOM     15  C   UNL     1       2.314   7.175  18.800  0.00  0.00    +0.000 A 
ATOM     16  C   UNL     1       2.501   8.475  18.041  0.00  0.00    +0.000 C 
ATOM     17  C   UNL     1       1.238   9.347  17.975  0.00  0.00    +0.000 C 
ENDBRANCH   1  13
BRANCH   1  18
ATOM     18  N   UNL     1       4.609   3.369  17.846  0.00  0.00    +0.000 NA
ATOM     19  H   UNL     1       4.865   3.234  16.869  0.00  0.00    +0.000 HD
BRANCH  18  20
ATOM     20  C   UNL     1       5.306   4.401  18.604  0.00  0.00    +0.000 C 
BRANCH  20  21
ATOM     21  C   UNL     1       6.312   5.132  17.727  0.00  0.00    +0.000 C 
ATOM     22  C   UNL     1       7.711   4.543  17.661  0.00  0.00    +0.000 C 
ATOM     23  C   UNL     1       7.479   5.815  18.419  0.00  0.00    +0.000 C 
BRANCH  21  24
ATOM     24  C   UNL     1       5.787   5.756  16.441  0.00  0.00    +0.000 C 
BRANCH  24  25
ATOM     25  C   UNL     1       6.191   5.073  15.149  0.00  0.00    +0.000 A 
ATOM     26  C   UNL     1       5.398   4.111  14.505  0.00  0.00    +0.000 A 
ATOM     27  C   UNL     1       5.771   3.599  13.258  0.00  0.00    +0.000 A 
ATOM     28  C   UNL     1       6.923   4.063  12.639  0.00  0.00    +0.000 A 
ATOM     29  F   UNL     1       7.261   3.592  11.431  0.00  0.00    +0.000 F 
ATOM     30  C   UNL     1       7.720   5.022  13.248  0.00  0.00    +0.000 A 
ATOM     31  C   UNL     1       7.355   5.523  14.498  0.00  0.00    +0.000 A 
ENDBRANCH  24  25
ENDBRANCH  21  24
ENDBRANCH  20  21
ENDBRANCH  18  20
ENDBRANCH   1  18
TORSDOF 6
ENDMDL
MODEL 2
REMARK VINA RESULT:      -8.6      1.990      3.199
REMARK  Name = 
REMARK  7 active torsions:
REMARK  status: ('A' for Active; 'I' for Inactive)
REMARK    1  A    between atoms: C_1  and  C_2
REMARK    2  A    between atoms: C_10  and  S_11
REMARK    3  A    between atoms: S_11  and  N_14
REMARK    4  A    between atoms: N_14  and  C_15
REMARK    5  A    between atoms: C_15  and  C_16
REMARK    6  A    between atoms: C_16  and  C_17
REMARK    7  A    between atoms: C_17  and  C_18
REMARK                            x       y       z     vdW  Elec       q    Type
REMARK                         _______ _______ _______ _____ _____    ______ ____
ROOT
ATOM      1  S   UNL     1       3.216   3.184  18.118  0.00  0.00    +0.000 S 
ATOM      2  O   UNL     1       3.169   2.134  19.109  0.00  0.00    +0.000 OA
ATOM      3  O   UNL     1       2.525   3.088  16.856  0.00  0.00    +0.000 OA
ENDROOT
BRANCH   1  13
ATOM      4  C   UNL     1       1.084  12.052  20.598  0.00  0.00    +0.000 C 
ATOM      5  C   UNL     1       1.277  11.343  19.278  0.00  0.00    +0.000 C 
ATOM      6  O   UNL     1       1.700  11.973  18.308  0.00  0.00    +0.000 OA
ATOM      7  N   UNL     1       0.978   9.986  19.223  0.00  0.00    +0.000 N 
ATOM      8  C   UNL     1       0.521   9.182  20.358  0.00  0.00    +0.000 C 
ATOM      9  C   UNL     1       1.631   8.324  20.959  0.00  0.00    +0.000 C 
ATOM     10  C   UNL     1       1.937   7.071  20.167  0.00  0.00    +0.000 A 
ATOM     11  C   UNL     1       1.796   5.827  20.812  0.00  0.00    +0.000 A 
ATOM     12  C   UNL     1       2.177   4.647  20.183  0.00  0.00    +0.000 A 
ATOM     13  C   UNL     1       2.699   4.701  18.890  0.00  0.00    +0.000 A 
ATOM     14  C   UNL     1       2.810   5.920  18.215  0.00  0.00    +0.000 A 
ATOM     15  C   UNL     1       2.419   7.120  18.842  0.00  0.00    +0.000 A 
ATOM     16  C   UNL     1       2.577   8.427  18.088  0.00  0.00    +0.000 C 
ATOM     17  C   UNL     1       1.285   9.252  17.991  0.00  0.00    +0.000 C 
ENDBRANCH   1  13
BRANCH   1  18
ATOM     18  N   UNL     1       4.831   3.481  17.758  0.00  0.00    +0.000 NA
ATOM     19  H   UNL     1       5.433   3.223  18.538  0.00  0.00    +0.000 HD
BRANCH  18  20
ATOM     20  C   UNL     1       5.296   3.196  16.405  0.00  0.00    +0.000 C 
BRANCH  20  21
ATOM     21  C   UNL     1       5.622   4.483  15.662  0.00  0.00    +0.000 C 
ATOM     22  C   UNL     1       5.482   4.449  14.150  0.00  0.00    +0.000 C 
ATOM     23  C   UNL     1       6.848   4.484  14.765  0.00  0.00    +0.000 C 
BRANCH  21  24
ATOM     24  C   UNL     1       5.240   5.792  16.340  0.00  0.00    +0.000 C 
BRANCH  24  25
ATOM     25  C   UNL     1       6.357   6.533  17.047  0.00  0.00    +0.000 A 
ATOM     26  C   UNL     1       6.603   7.905  16.875  0.00  0.00    +0.000 A 
ATOM     27  C   UNL     1       7.576   8.555  17.639  0.00  0.00    +0.000 A 
ATOM     28  C   UNL     1       8.290   7.846  18.595  0.00  0.00    +0.000 A 
ATOM     29  F   UNL     1       9.201   8.480  19.346  0.00  0.00    +0.000 F 
ATOM     30  C   UNL     1       8.060   6.493  18.794  0.00  0.00    +0.000 A 
ATOM     31  C   UNL     1       7.099   5.840  18.022  0.00  0.00    +0.000 A 
ENDBRANCH  24  25
ENDBRANCH  21  24
ENDBRANCH  20  21
ENDBRANCH  18  20
ENDBRANCH   1  18
TORSDOF 6
ENDMDL
MODEL 3
REMARK VINA RESULT:      -8.3      3.957      8.702
REMARK  Name = 
REMARK  7 active torsions:
REMARK  status: ('A' for Active; 'I' for Inactive)
REMARK    1  A    between atoms: C_1  and  C_2
REMARK    2  A    between atoms: C_10  and  S_11
REMARK    3  A    between atoms: S_11  and  N_14
REMARK    4  A    between atoms: N_14  and  C_15
REMARK    5  A    between atoms: C_15  and  C_16
REMARK    6  A    between atoms: C_16  and  C_17
REMARK    7  A    between atoms: C_17  and  C_18
REMARK                            x       y       z     vdW  Elec       q    Type
REMARK                         _______ _______ _______ _____ _____    ______ ____
ROOT
ATOM      1  S   UNL     1       0.732   9.193  21.144  0.00  0.00    +0.000 S 
ATOM      2  O   UNL     1      -0.654   8.811  21.286  0.00  0.00    +0.000 OA
ATOM      3  O   UNL     1       1.543   9.592  22.269  0.00  0.00    +0.000 OA
ENDROOT
BRANCH   1  13
ATOM      4  C   UNL     1       5.777   3.545  15.489  0.00  0.00    +0.000 C 
ATOM      5  C   UNL     1       5.765   5.032  15.756  0.00  0.00    +0.000 C 
ATOM      6  O   UNL     1       6.083   5.812  14.859  0.00  0.00    +0.000 OA
ATOM      7  N   UNL     1       5.374   5.459  17.021  0.00  0.00    +0.000 N 
ATOM      8  C   UNL     1       4.940   4.576  18.105  0.00  0.00    +0.000 C 
ATOM      9  C   UNL     1       3.423   4.552  18.277  0.00  0.00    +0.000 C 
ATOM     10  C   UNL     1       2.868   5.757  19.005  0.00  0.00    +0.000 A 
ATOM     11  C   UNL     1       2.149   5.539  20.197  0.00  0.00    +0.000 A 
ATOM     12  C   UNL     1       1.509   6.587  20.849  0.00  0.00    +0.000 A 
ATOM     13  C   UNL     1       1.590   7.874  20.316  0.00  0.00    +0.000 A 
ATOM     14  C   UNL     1       2.332   8.121  19.157  0.00  0.00    +0.000 A 
ATOM     15  C   UNL     1       2.990   7.066  18.493  0.00  0.00    +0.000 A 
ATOM     16  C   UNL     1       3.765   7.367  17.224  0.00  0.00    +0.000 C 
ATOM     17  C   UNL     1       5.227   6.898  17.259  0.00  0.00    +0.000 C 
ENDBRANCH   1  13
BRANCH   1  18
ATOM     18  N   UNL     1       0.810  10.448  20.029  0.00  0.00    +0.000 NA
ATOM     19  H   UNL     1       0.424  10.163  19.130  0.00  0.00    +0.000 HD
BRANCH  18  20
ATOM     20  C   UNL     1       0.536  11.801  20.498  0.00  0.00    +0.000 C 
BRANCH  20  21
ATOM     21  C   UNL     1      -0.636  12.410  19.741  0.00  0.00    +0.000 C 
ATOM     22  C   UNL     1      -0.316  13.078  18.415  0.00  0.00    +0.000 C 
ATOM     23  C   UNL     1      -0.671  13.922  19.601  0.00  0.00    +0.000 C 
BRANCH  21  24
ATOM     24  C   UNL     1      -1.967  11.675  19.816  0.00  0.00    +0.000 C 
BRANCH  24  25
ATOM     25  C   UNL     1      -2.534  11.173  18.502  0.00  0.00    +0.000 A 
ATOM     26  C   UNL     1      -3.679  11.716  17.898  0.00  0.00    +0.000 A 
ATOM     27  C   UNL     1      -4.088  11.286  16.632  0.00  0.00    +0.000 A 
ATOM     28  C   UNL     1      -3.343  10.332  15.954  0.00  0.00    +0.000 A 
ATOM     29  F   UNL     1      -3.721   9.945  14.728  0.00  0.00    +0.000 F 
ATOM     30  C   UNL     1      -2.200   9.786  16.522  0.00  0.00    +0.000 A 
ATOM     31  C   UNL     1      -1.799  10.205  17.791  0.00  0.00    +0.000 A 
ENDBRANCH  24  25
ENDBRANCH  21  24
ENDBRANCH  20  21
ENDBRANCH  18  20
ENDBRANCH   1  18
TORSDOF 6
ENDMDL
MODEL 4
REMARK VINA RESULT:      -8.3      5.620     10.508
REMARK  Name = 
REMARK  7 active torsions:
REMARK  status: ('A' for Active; 'I' for Inactive)
REMARK    1  A    between atoms: C_1  and  C_2
REMARK    2  A    between atoms: C_10  and  S_11
REMARK    3  A    between atoms: S_11  and  N_14
REMARK    4  A    between atoms: N_14  and  C_15
REMARK    5  A    between atoms: C_15  and  C_16
REMARK    6  A    between atoms: C_16  and  C_17
REMARK    7  A    between atoms: C_17  and  C_18
REMARK                            x       y       z     vdW  Elec       q    Type
REMARK                         _______ _______ _______ _____ _____    ______ ____
ROOT
ATOM      1  S   UNL     1       0.306  11.121  19.598  0.00  0.00    +0.000 S 
ATOM      2  O   UNL     1      -0.806  10.826  20.473  0.00  0.00    +0.000 OA
ATOM      3  O   UNL     1       1.313  12.098  19.930  0.00  0.00    +0.000 OA
ENDROOT
BRANCH   1  13
ATOM      4  C   UNL     1       4.219   2.519  19.435  0.00  0.00    +0.000 C 
ATOM      5  C   UNL     1       3.085   3.148  20.210  0.00  0.00    +0.000 C 
ATOM      6  O   UNL     1       2.832   2.746  21.346  0.00  0.00    +0.000 OA
ATOM      7  N   UNL     1       2.378   4.178  19.600  0.00  0.00    +0.000 N 
ATOM      8  C   UNL     1       2.670   4.725  18.274  0.00  0.00    +0.000 C 
ATOM      9  C   UNL     1       3.422   6.052  18.334  0.00  0.00    +0.000 C 
ATOM     10  C   UNL     1       2.543   7.242  18.655  0.00  0.00    +0.000 A 
ATOM     11  C   UNL     1       2.486   8.295  17.722  0.00  0.00    +0.000 A 
ATOM     12  C   UNL     1       1.798   9.469  18.008  0.00  0.00    +0.000 A 
ATOM     13  C   UNL     1       1.147   9.597  19.236  0.00  0.00    +0.000 A 
ATOM     14  C   UNL     1       1.156   8.549  20.161  0.00  0.00    +0.000 A 
ATOM     15  C   UNL     1       1.845   7.353  19.876  0.00  0.00    +0.000 A 
ATOM     16  C   UNL     1       1.854   6.246  20.914  0.00  0.00    +0.000 C 
ATOM     17  C   UNL     1       1.363   4.890  20.384  0.00  0.00    +0.000 C 
ENDBRANCH   1  13
BRANCH   1  18
ATOM     18  N   UNL     1      -0.319  11.567  18.102  0.00  0.00    +0.000 NA
ATOM     19  H   UNL     1       0.010  10.943  17.368  0.00  0.00    +0.000 HD
BRANCH  18  20
ATOM     20  C   UNL     1      -1.701  12.028  18.045  0.00  0.00    +0.000 C 
BRANCH  20  21
ATOM     21  C   UNL     1      -2.601  10.968  17.426  0.00  0.00    +0.000 C 
ATOM     22  C   UNL     1      -1.908   9.774  16.792  0.00  0.00    +0.000 C 
ATOM     23  C   UNL     1      -2.555  10.804  15.916  0.00  0.00    +0.000 C 
BRANCH  21  24
ATOM     24  C   UNL     1      -3.920  10.680  18.130  0.00  0.00    +0.000 C 
BRANCH  24  25
ATOM     25  C   UNL     1      -4.897  11.835  18.225  0.00  0.00    +0.000 A 
ATOM     26  C   UNL     1      -5.671  12.282  17.142  0.00  0.00    +0.000 A 
ATOM     27  C   UNL     1      -6.636  13.278  17.320  0.00  0.00    +0.000 A 
ATOM     28  C   UNL     1      -6.849  13.815  18.582  0.00  0.00    +0.000 A 
ATOM     29  F   UNL     1      -7.795  14.748  18.754  0.00  0.00    +0.000 F 
ATOM     30  C   UNL     1      -6.106  13.385  19.672  0.00  0.00    +0.000 A 
ATOM     31  C   UNL     1      -5.133  12.400  19.493  0.00  0.00    +0.000 A 
ENDBRANCH  24  25
ENDBRANCH  21  24
ENDBRANCH  20  21
ENDBRANCH  18  20
ENDBRANCH   1  18
TORSDOF 6
ENDMDL
MODEL 5
REMARK VINA RESULT:      -8.2      5.587     10.444
REMARK  Name = 
REMARK  7 active torsions:
REMARK  status: ('A' for Active; 'I' for Inactive)
REMARK    1  A    between atoms: C_1  and  C_2
REMARK    2  A    between atoms: C_10  and  S_11
REMARK    3  A    between atoms: S_11  and  N_14
REMARK    4  A    between atoms: N_14  and  C_15
REMARK    5  A    between atoms: C_15  and  C_16
REMARK    6  A    between atoms: C_16  and  C_17
REMARK    7  A    between atoms: C_17  and  C_18
REMARK                            x       y       z     vdW  Elec       q    Type
REMARK                         _______ _______ _______ _____ _____    ______ ____
ROOT
ATOM      1  S   UNL     1       0.199  11.767  19.843  0.00  0.00    +0.000 S 
ATOM      2  O   UNL     1       0.175  12.243  21.206  0.00  0.00    +0.000 OA
ATOM      3  O   UNL     1       0.839  12.501  18.779  0.00  0.00    +0.000 OA
ENDROOT
BRANCH   1  13
ATOM      4  C   UNL     1       4.290   3.448  18.003  0.00  0.00    +0.000 C 
ATOM      5  C   UNL     1       4.399   4.832  17.406  0.00  0.00    +0.000 C 
ATOM      6  O   UNL     1       4.674   4.957  16.213  0.00  0.00    +0.000 OA
ATOM      7  N   UNL     1       4.163   5.916  18.243  0.00  0.00    +0.000 N 
ATOM      8  C   UNL     1       3.784   5.820  19.654  0.00  0.00    +0.000 C 
ATOM      9  C   UNL     1       2.293   6.056  19.883  0.00  0.00    +0.000 C 
ATOM     10  C   UNL     1       1.890   7.515  19.852  0.00  0.00    +0.000 A 
ATOM     11  C   UNL     1       1.282   8.059  21.000  0.00  0.00    +0.000 A 
ATOM     12  C   UNL     1       0.777   9.355  20.996  0.00  0.00    +0.000 A 
ATOM     13  C   UNL     1       0.886  10.127  19.839  0.00  0.00    +0.000 A 
ATOM     14  C   UNL     1       1.522   9.621  18.701  0.00  0.00    +0.000 A 
ATOM     15  C   UNL     1       2.043   8.312  18.698  0.00  0.00    +0.000 A 
ATOM     16  C   UNL     1       2.706   7.788  17.438  0.00  0.00    +0.000 C 
ATOM     17  C   UNL     1       4.131   7.259  17.655  0.00  0.00    +0.000 C 
ENDBRANCH   1  13
BRANCH   1  18
ATOM     18  N   UNL     1      -1.389  11.508  19.358  0.00  0.00    +0.000 NA
ATOM     19  H   UNL     1      -2.032  11.610  20.142  0.00  0.00    +0.000 HD
BRANCH  18  20
ATOM     20  C   UNL     1      -1.803  12.022  18.057  0.00  0.00    +0.000 C 
BRANCH  20  21
ATOM     21  C   UNL     1      -2.890  11.147  17.450  0.00  0.00    +0.000 C 
ATOM     22  C   UNL     1      -2.805   9.658  17.738  0.00  0.00    +0.000 C 
ATOM     23  C   UNL     1      -2.476  10.165  16.367  0.00  0.00    +0.000 C 
BRANCH  21  24
ATOM     24  C   UNL     1      -4.292  11.735  17.374  0.00  0.00    +0.000 C 
BRANCH  24  25
ATOM     25  C   UNL     1      -5.138  11.621  18.627  0.00  0.00    +0.000 A 
ATOM     26  C   UNL     1      -4.897  12.367  19.792  0.00  0.00    +0.000 A 
ATOM     27  C   UNL     1      -5.778  12.301  20.875  0.00  0.00    +0.000 A 
ATOM     28  C   UNL     1      -6.915  11.509  20.792  0.00  0.00    +0.000 A 
ATOM     29  F   UNL     1      -7.772  11.471  21.821  0.00  0.00    +0.000 F 
ATOM     30  C   UNL     1      -7.184  10.769  19.649  0.00  0.00    +0.000 A 
ATOM     31  C   UNL     1      -6.297  10.824  18.573  0.00  0.00    +0.000 A 
ENDBRANCH  24  25
ENDBRANCH  21  24
ENDBRANCH  20  21
ENDBRANCH  18  20
ENDBRANCH   1  18
TORSDOF 6
ENDMDL
MODEL 6
REMARK VINA RESULT:      -8.2      2.657      3.967
REMARK  Name = 
REMARK  7 active torsions:
REMARK  status: ('A' for Active; 'I' for Inactive)
REMARK    1  A    between atoms: C_1  and  C_2
REMARK    2  A    between atoms: C_10  and  S_11
REMARK    3  A    between atoms: S_11  and  N_14
REMARK    4  A    between atoms: N_14  and  C_15
REMARK    5  A    between atoms: C_15  and  C_16
REMARK    6  A    between atoms: C_16  and  C_17
REMARK    7  A    between atoms: C_17  and  C_18
REMARK                            x       y       z     vdW  Elec       q    Type
REMARK                         _______ _______ _______ _____ _____    ______ ____
ROOT
ATOM      1  S   UNL     1       3.450   4.713  19.061  0.00  0.00    +0.000 S 
ATOM      2  O   UNL     1       4.783   4.821  19.606  0.00  0.00    +0.000 OA
ATOM      3  O   UNL     1       2.497   3.741  19.538  0.00  0.00    +0.000 OA
ENDROOT
BRANCH   1  13
ATOM      4  C   UNL     1      -1.320  12.555  21.316  0.00  0.00    +0.000 C 
ATOM      5  C   UNL     1      -0.725  11.417  22.112  0.00  0.00    +0.000 C 
ATOM      6  O   UNL     1      -1.245  11.084  23.176  0.00  0.00    +0.000 OA
ATOM      7  N   UNL     1       0.393  10.777  21.588  0.00  0.00    +0.000 N 
ATOM      8  C   UNL     1       1.019  11.101  20.304  0.00  0.00    +0.000 C 
ATOM      9  C   UNL     1       0.651  10.112  19.201  0.00  0.00    +0.000 C 
ATOM     10  C   UNL     1       1.412   8.805  19.267  0.00  0.00    +0.000 A 
ATOM     11  C   UNL     1       2.197   8.438  18.158  0.00  0.00    +0.000 A 
ATOM     12  C   UNL     1       2.822   7.197  18.102  0.00  0.00    +0.000 A 
ATOM     13  C   UNL     1       2.674   6.310  19.169  0.00  0.00    +0.000 A 
ATOM     14  C   UNL     1       1.933   6.669  20.298  0.00  0.00    +0.000 A 
ATOM     15  C   UNL     1       1.302   7.928  20.366  0.00  0.00    +0.000 A 
ATOM     16  C   UNL     1       0.486   8.274  21.597  0.00  0.00    +0.000 C 
ATOM     17  C   UNL     1       0.904   9.587  22.275  0.00  0.00    +0.000 C 
ENDBRANCH   1  13
BRANCH   1  18
ATOM     18  N   UNL     1       3.587   4.476  17.403  0.00  0.00    +0.000 NA
ATOM     19  H   UNL     1       3.211   5.270  16.887  0.00  0.00    +0.000 HD
BRANCH  18  20
ATOM     20  C   UNL     1       4.798   3.839  16.899  0.00  0.00    +0.000 C 
BRANCH  20  21
ATOM     21  C   UNL     1       5.466   4.706  15.840  0.00  0.00    +0.000 C 
ATOM     22  C   UNL     1       5.398   4.204  14.408  0.00  0.00    +0.000 C 
ATOM     23  C   UNL     1       6.698   4.145  15.150  0.00  0.00    +0.000 C 
BRANCH  21  24
ATOM     24  C   UNL     1       5.382   6.215  16.026  0.00  0.00    +0.000 C 
BRANCH  24  25
ATOM     25  C   UNL     1       6.372   6.828  16.996  0.00  0.00    +0.000 A 
ATOM     26  C   UNL     1       7.147   6.072  17.889  0.00  0.00    +0.000 A 
ATOM     27  C   UNL     1       8.123   6.685  18.681  0.00  0.00    +0.000 A 
ATOM     28  C   UNL     1       8.345   8.050  18.567  0.00  0.00    +0.000 A 
ATOM     29  F   UNL     1       9.302   8.629  19.306  0.00  0.00    +0.000 F 
ATOM     30  C   UNL     1       7.602   8.820  17.685  0.00  0.00    +0.000 A 
ATOM     31  C   UNL     1       6.618   8.211  16.904  0.00  0.00    +0.000 A 
ENDBRANCH  24  25
ENDBRANCH  21  24
ENDBRANCH  20  21
ENDBRANCH  18  20
ENDBRANCH   1  18
TORSDOF 6
ENDMDL
MODEL 7
REMARK VINA RESULT:      -8.2      1.690      2.572
REMARK  Name = 
REMARK  7 active torsions:
REMARK  status: ('A' for Active; 'I' for Inactive)
REMARK    1  A    between atoms: C_1  and  C_2
REMARK    2  A    between atoms: C_10  and  S_11
REMARK    3  A    between atoms: S_11  and  N_14
REMARK    4  A    between atoms: N_14  and  C_15
REMARK    5  A    between atoms: C_15  and  C_16
REMARK    6  A    between atoms: C_16  and  C_17
REMARK    7  A    between atoms: C_17  and  C_18
REMARK                            x       y       z     vdW  Elec       q    Type
REMARK                         _______ _______ _______ _____ _____    ______ ____
ROOT
ATOM      1  S   UNL     1       2.805   4.758  19.217  0.00  0.00    +0.000 S 
ATOM      2  O   UNL     1       3.481   4.448  20.456  0.00  0.00    +0.000 OA
ATOM      3  O   UNL     1       1.722   3.954  18.706  0.00  0.00    +0.000 OA
ENDROOT
BRANCH   1  13
ATOM      4  C   UNL     1      -1.029  13.123  21.376  0.00  0.00    +0.000 C 
ATOM      5  C   UNL     1      -0.577  11.929  22.185  0.00  0.00    +0.000 C 
ATOM      6  O   UNL     1      -1.141  11.669  23.247  0.00  0.00    +0.000 OA
ATOM      7  N   UNL     1       0.462  11.159  21.674  0.00  0.00    +0.000 N 
ATOM      8  C   UNL     1       1.131  11.396  20.394  0.00  0.00    +0.000 C 
ATOM      9  C   UNL     1       0.657  10.449  19.295  0.00  0.00    +0.000 C 
ATOM     10  C   UNL     1       1.260   9.062  19.377  0.00  0.00    +0.000 A 
ATOM     11  C   UNL     1       2.004   8.596  18.276  0.00  0.00    +0.000 A 
ATOM     12  C   UNL     1       2.480   7.290  18.235  0.00  0.00    +0.000 A 
ATOM     13  C   UNL     1       2.221   6.435  19.307  0.00  0.00    +0.000 A 
ATOM     14  C   UNL     1       1.519   6.888  20.428  0.00  0.00    +0.000 A 
ATOM     15  C   UNL     1       1.039   8.212  20.481  0.00  0.00    +0.000 A 
ATOM     16  C   UNL     1       0.260   8.662  21.703  0.00  0.00    +0.000 C 
ATOM     17  C   UNL     1       0.825   9.923  22.375  0.00  0.00    +0.000 C 
ENDBRANCH   1  13
BRANCH   1  18
ATOM     18  N   UNL     1       3.963   4.830  18.001  0.00  0.00    +0.000 NA
ATOM     19  H   UNL     1       3.902   5.709  17.490  0.00  0.00    +0.000 HD
BRANCH  18  20
ATOM     20  C   UNL     1       5.287   4.287  18.281  0.00  0.00    +0.000 C 
BRANCH  20  21
ATOM     21  C   UNL     1       6.369   5.129  17.619  0.00  0.00    +0.000 C 
ATOM     22  C   UNL     1       7.771   4.546  17.608  0.00  0.00    +0.000 C 
ATOM     23  C   UNL     1       7.458   5.698  18.513  0.00  0.00    +0.000 C 
BRANCH  21  24
ATOM     24  C   UNL     1       5.967   5.933  16.391  0.00  0.00    +0.000 C 
BRANCH  24  25
ATOM     25  C   UNL     1       6.206   5.273  15.047  0.00  0.00    +0.000 A 
ATOM     26  C   UNL     1       7.364   5.479  14.281  0.00  0.00    +0.000 A 
ATOM     27  C   UNL     1       7.577   4.755  13.104  0.00  0.00    +0.000 A 
ATOM     28  C   UNL     1       6.648   3.807  12.699  0.00  0.00    +0.000 A 
ATOM     29  F   UNL     1       6.871   3.094  11.587  0.00  0.00    +0.000 F 
ATOM     30  C   UNL     1       5.500   3.575  13.443  0.00  0.00    +0.000 A 
ATOM     31  C   UNL     1       5.280   4.306  14.611  0.00  0.00    +0.000 A 
ENDBRANCH  24  25
ENDBRANCH  21  24
ENDBRANCH  20  21
ENDBRANCH  18  20
ENDBRANCH   1  18
TORSDOF 6
ENDMDL
MODEL 8
REMARK VINA RESULT:      -8.1      4.156      8.943
REMARK  Name = 
REMARK  7 active torsions:
REMARK  status: ('A' for Active; 'I' for Inactive)
REMARK    1  A    between atoms: C_1  and  C_2
REMARK    2  A    between atoms: C_10  and  S_11
REMARK    3  A    between atoms: S_11  and  N_14
REMARK    4  A    between atoms: N_14  and  C_15
REMARK    5  A    between atoms: C_15  and  C_16
REMARK    6  A    between atoms: C_16  and  C_17
REMARK    7  A    between atoms: C_17  and  C_18
REMARK                            x       y       z     vdW  Elec       q    Type
REMARK                         _______ _______ _______ _____ _____    ______ ____
ROOT
ATOM      1  S   UNL     1       0.422   9.914  21.910  0.00  0.00    +0.000 S 
ATOM      2  O   UNL     1      -1.019   9.828  21.848  0.00  0.00    +0.000 OA
ATOM      3  O   UNL     1       1.149   9.817  23.152  0.00  0.00    +0.000 OA
ENDROOT
BRANCH   1  13
ATOM      4  C   UNL     1       3.744   2.249  17.492  0.00  0.00    +0.000 C 
ATOM      5  C   UNL     1       2.797   2.473  18.647  0.00  0.00    +0.000 C 
ATOM      6  O   UNL     1       2.718   1.628  19.539  0.00  0.00    +0.000 OA
ATOM      7  N   UNL     1       2.058   3.650  18.658  0.00  0.00    +0.000 N 
ATOM      8  C   UNL     1       2.151   4.708  17.650  0.00  0.00    +0.000 C 
ATOM      9  C   UNL     1       2.978   5.901  18.120  0.00  0.00    +0.000 C 
ATOM     10  C   UNL     1       2.237   6.831  19.058  0.00  0.00    +0.000 A 
ATOM     11  C   UNL     1       2.083   8.177  18.673  0.00  0.00    +0.000 A 
ATOM     12  C   UNL     1       1.523   9.109  19.539  0.00  0.00    +0.000 A 
ATOM     13  C   UNL     1       1.100   8.699  20.804  0.00  0.00    +0.000 A 
ATOM     14  C   UNL     1       1.205   7.360  21.192  0.00  0.00    +0.000 A 
ATOM     15  C   UNL     1       1.765   6.406  20.318  0.00  0.00    +0.000 A 
ATOM     16  C   UNL     1       1.886   4.967  20.782  0.00  0.00    +0.000 C 
ATOM     17  C   UNL     1       1.235   3.949  19.834  0.00  0.00    +0.000 C 
ENDBRANCH   1  13
BRANCH   1  18
ATOM     18  N   UNL     1       0.883  11.366  21.198  0.00  0.00    +0.000 NA
ATOM     19  H   UNL     1       1.289  11.208  20.277  0.00  0.00    +0.000 HD
BRANCH  18  20
ATOM     20  C   UNL     1       0.018  12.525  21.381  0.00  0.00    +0.000 C 
BRANCH  20  21
ATOM     21  C   UNL     1      -0.724  12.855  20.093  0.00  0.00    +0.000 C 
ATOM     22  C   UNL     1       0.107  12.906  18.823  0.00  0.00    +0.000 C 
ATOM     23  C   UNL     1      -0.407  14.181  19.421  0.00  0.00    +0.000 C 
BRANCH  21  24
ATOM     24  C   UNL     1      -2.137  12.307  19.947  0.00  0.00    +0.000 C 
BRANCH  24  25
ATOM     25  C   UNL     1      -2.410  11.473  18.711  0.00  0.00    +0.000 A 
ATOM     26  C   UNL     1      -3.434  11.763  17.795  0.00  0.00    +0.000 A 
ATOM     27  C   UNL     1      -3.565  11.023  16.616  0.00  0.00    +0.000 A 
ATOM     28  C   UNL     1      -2.662  10.007  16.336  0.00  0.00    +0.000 A 
ATOM     29  F   UNL     1      -2.773   9.320  15.190  0.00  0.00    +0.000 F 
ATOM     30  C   UNL     1      -1.635   9.706  17.218  0.00  0.00    +0.000 A 
ATOM     31  C   UNL     1      -1.511  10.435  18.401  0.00  0.00    +0.000 A 
ENDBRANCH  24  25
ENDBRANCH  21  24
ENDBRANCH  20  21
ENDBRANCH  18  20
ENDBRANCH   1  18
TORSDOF 6
ENDMDL
MODEL 9
REMARK VINA RESULT:      -8.1      0.812      1.304
REMARK  Name = 
REMARK  7 active torsions:
REMARK  status: ('A' for Active; 'I' for Inactive)
REMARK    1  A    between atoms: C_1  and  C_2
REMARK    2  A    between atoms: C_10  and  S_11
REMARK    3  A    between atoms: S_11  and  N_14
REMARK    4  A    between atoms: N_14  and  C_15
REMARK    5  A    between atoms: C_15  and  C_16
REMARK    6  A    between atoms: C_16  and  C_17
REMARK    7  A    between atoms: C_17  and  C_18
REMARK                            x       y       z     vdW  Elec       q    Type
REMARK                         _______ _______ _______ _____ _____    ______ ____
ROOT
ATOM      1  S   UNL     1       3.457   3.849  18.214  0.00  0.00    +0.000 S 
ATOM      2  O   UNL     1       2.947   2.684  18.901  0.00  0.00    +0.000 OA
ATOM      3  O   UNL     1       3.327   4.023  16.789  0.00  0.00    +0.000 OA
ENDROOT
BRANCH   1  13
ATOM      4  C   UNL     1       0.347  12.416  20.714  0.00  0.00    +0.000 C 
ATOM      5  C   UNL     1       0.624  11.739  19.393  0.00  0.00    +0.000 C 
ATOM      6  O   UNL     1       0.979  12.415  18.427  0.00  0.00    +0.000 OA
ATOM      7  N   UNL     1       0.477  10.357  19.331  0.00  0.00    +0.000 N 
ATOM      8  C   UNL     1       0.106   9.503  20.461  0.00  0.00    +0.000 C 
ATOM      9  C   UNL     1       1.301   8.770  21.066  0.00  0.00    +0.000 C 
ATOM     10  C   UNL     1       1.747   7.562  20.270  0.00  0.00    +0.000 A 
ATOM     11  C   UNL     1       1.741   6.308  20.910  0.00  0.00    +0.000 A 
ATOM     12  C   UNL     1       2.254   5.180  20.279  0.00  0.00    +0.000 A 
ATOM     13  C   UNL     1       2.772   5.295  18.988  0.00  0.00    +0.000 A 
ATOM     14  C   UNL     1       2.751   6.522  18.318  0.00  0.00    +0.000 A 
ATOM     15  C   UNL     1       2.227   7.669  18.948  0.00  0.00    +0.000 A 
ATOM     16  C   UNL     1       2.243   8.989  18.199  0.00  0.00    +0.000 C 
ATOM     17  C   UNL     1       0.868   9.666  18.099  0.00  0.00    +0.000 C 
ENDBRANCH   1  13
BRANCH   1  18
ATOM     18  N   UNL     1       5.096   3.978  18.564  0.00  0.00    +0.000 NA
ATOM     19  H   UNL     1       5.647   3.366  17.966  0.00  0.00    +0.000 HD
BRANCH  18  20
ATOM     20  C   UNL     1       5.629   5.300  18.875  0.00  0.00    +0.000 C 
BRANCH  20  21
ATOM     21  C   UNL     1       6.803   5.637  17.966  0.00  0.00    +0.000 C 
ATOM     22  C   UNL     1       7.787   6.673  18.483  0.00  0.00    +0.000 C 
ATOM     23  C   UNL     1       6.850   7.034  17.371  0.00  0.00    +0.000 C 
BRANCH  21  24
ATOM     24  C   UNL     1       7.397   4.498  17.149  0.00  0.00    +0.000 C 
BRANCH  24  25
ATOM     25  C   UNL     1       7.057   4.483  15.671  0.00  0.00    +0.000 A 
ATOM     26  C   UNL     1       7.780   5.200  14.706  0.00  0.00    +0.000 A 
ATOM     27  C   UNL     1       7.488   5.058  13.346  0.00  0.00    +0.000 A 
ATOM     28  C   UNL     1       6.490   4.181  12.943  0.00  0.00    +0.000 A 
ATOM     29  F   UNL     1       6.234   4.024  11.637  0.00  0.00    +0.000 F 
ATOM     30  C   UNL     1       5.767   3.451  13.875  0.00  0.00    +0.000 A 
ATOM     31  C   UNL     1       6.049   3.603  15.233  0.00  0.00    +0.000 A 
ENDBRANCH  24  25
ENDBRANCH  21  24
ENDBRANCH  20  21
ENDBRANCH  18  20
ENDBRANCH   1  18
TORSDOF 6
ENDMDL
