MODEL 1
REMARK VINA RESULT:      -9.9      0.000      0.000
REMARK  Name = 
REMARK  6 active torsions:
REMARK  status: ('A' for Active; 'I' for Inactive)
REMARK    1  A    between atoms: C_1  and  C_2
REMARK    2  A    between atoms: C_5  and  C_6
REMARK    3  A    between atoms: C_10  and  C_11
REMARK    4  A    between atoms: C_16  and  C_17
REMARK    5  A    between atoms: C_21  and  C_22
REMARK    6  A    between atoms: C_21  and  C_23
REMARK                            x       y       z     vdW  Elec       q    Type
REMARK                         _______ _______ _______ _____ _____    ______ ____
ROOT
ATOM      1  C   UNL     1       3.011   6.634  18.579  0.00  0.00    +0.000 C 
ATOM      2  O   UNL     1       4.020   6.704  17.861  0.00  0.00    +0.000 OA
ATOM      3  N   UNL     1       2.641   5.434  19.210  0.00  0.00    +0.000 N 
ATOM      4  C   UNL     1       1.620   5.294  20.250  0.00  0.00    +0.000 C 
ATOM      5  C   UNL     1       0.859   3.984  20.071  0.00  0.00    +0.000 C 
ATOM      6  C   UNL     1       1.821   2.788  20.147  0.00  0.00    +0.000 C 
ATOM      7  C   UNL     1       2.943   2.933  19.059  0.00  0.00    +0.000 C 
ATOM      8  C   UNL     1       2.338   2.792  17.635  0.00  0.00    +0.000 C 
ATOM      9  C   UNL     1       4.011   1.824  19.179  0.00  0.00    +0.000 C 
ATOM     10  C   UNL     1       3.613   4.327  19.158  0.00  0.00    +0.000 C 
ENDROOT
BRANCH   1  15
ATOM     11  C   UNL     1       1.082   9.496  20.189  0.00  0.00    +0.000 A 
ATOM     12  C   UNL     1       0.975  10.365  19.093  0.00  0.00    +0.000 A 
ATOM     13  C   UNL     1       1.447   9.980  17.840  0.00  0.00    +0.000 A 
ATOM     14  C   UNL     1       2.097   8.754  17.689  0.00  0.00    +0.000 A 
ATOM     15  C   UNL     1       2.266   7.901  18.788  0.00  0.00    +0.000 A 
ATOM     16  C   UNL     1       1.679   8.243  20.006  0.00  0.00    +0.000 A 
BRANCH  11  21
ATOM     17  C   UNL     1      -1.984  11.533  23.237  0.00  0.00    +0.000 C 
ATOM     18  C   UNL     1      -0.795  10.748  22.857  0.00  0.00    +0.000 A 
ATOM     19  N   UNL     1       0.010  10.008  23.586  0.00  0.00    +0.000 NA
ATOM     20  N   UNL     1       0.892   9.427  22.703  0.00  0.00    +0.000 NA
ATOM     21  C   UNL     1       0.562   9.852  21.505  0.00  0.00    +0.000 A 
ATOM     22  O   UNL     1      -0.493  10.716  21.527  0.00  0.00    +0.000 OA
ENDBRANCH  11  21
ENDBRANCH   1  15
BRANCH   6  23
ATOM     23  C   UNL     1       2.311   2.614  21.598  0.00  0.00    +0.000 C 
ATOM     24  F   UNL     1       2.395   3.793  22.256  0.00  0.00    +0.000 F 
ATOM     25  F   UNL     1       1.436   1.851  22.294  0.00  0.00    +0.000 F 
ATOM     26  F   UNL     1       3.522   2.036  21.698  0.00  0.00    +0.000 F 
ENDBRANCH   6  23
TORSDOF 3
ENDMDL
MODEL 2
REMARK VINA RESULT:      -8.7      5.371      8.248
REMARK  Name = 
REMARK  6 active torsions:
REMARK  status: ('A' for Active; 'I' for Inactive)
REMARK    1  A    between atoms: C_1  and  C_2
REMARK    2  A    between atoms: C_5  and  C_6
REMARK    3  A    between atoms: C_10  and  C_11
REMARK    4  A    between atoms: C_16  and  C_17
REMARK    5  A    between atoms: C_21  and  C_22
REMARK    6  A    between atoms: C_21  and  C_23
REMARK                            x       y       z     vdW  Elec       q    Type
REMARK                         _______ _______ _______ _____ _____    ______ ____
ROOT
ATOM      1  C   UNL     1       6.053   4.183  17.702  0.00  0.00    +0.000 C 
ATOM      2  O   UNL     1       6.896   4.433  18.577  0.00  0.00    +0.000 OA
ATOM      3  N   UNL     1       4.762   3.737  18.034  0.00  0.00    +0.000 N 
ATOM      4  C   UNL     1       3.629   3.636  17.112  0.00  0.00    +0.000 C 
ATOM      5  C   UNL     1       2.789   2.405  17.438  0.00  0.00    +0.000 C 
ATOM      6  C   UNL     1       2.260   2.481  18.878  0.00  0.00    +0.000 C 
ATOM      7  C   UNL     1       3.458   2.619  19.883  0.00  0.00    +0.000 C 
ATOM      8  C   UNL     1       4.303   1.316  19.900  0.00  0.00    +0.000 C 
ATOM      9  C   UNL     1       2.973   2.831  21.334  0.00  0.00    +0.000 C 
ATOM     10  C   UNL     1       4.385   3.785  19.458  0.00  0.00    +0.000 C 
ENDROOT
BRANCH   1  15
ATOM     11  C   UNL     1       6.314   4.069  13.905  0.00  0.00    +0.000 A 
ATOM     12  C   UNL     1       7.228   5.112  13.692  0.00  0.00    +0.000 A 
ATOM     13  C   UNL     1       7.807   5.773  14.773  0.00  0.00    +0.000 A 
ATOM     14  C   UNL     1       7.421   5.447  16.074  0.00  0.00    +0.000 A 
ATOM     15  C   UNL     1       6.463   4.450  16.301  0.00  0.00    +0.000 A 
ATOM     16  C   UNL     1       5.986   3.712  15.218  0.00  0.00    +0.000 A 
BRANCH  11  21
ATOM     17  C   UNL     1       3.170   3.307  10.386  0.00  0.00    +0.000 C 
ATOM     18  C   UNL     1       4.334   2.991  11.236  0.00  0.00    +0.000 A 
ATOM     19  N   UNL     1       5.255   2.061  11.112  0.00  0.00    +0.000 NA
ATOM     20  N   UNL     1       6.155   2.284  12.129  0.00  0.00    +0.000 NA
ATOM     21  C   UNL     1       5.721   3.329  12.796  0.00  0.00    +0.000 A 
ATOM     22  O   UNL     1       4.551   3.821  12.296  0.00  0.00    +0.000 OA
ENDBRANCH  11  21
ENDBRANCH   1  15
BRANCH   6  23
ATOM     23  C   UNL     1       1.175   3.573  18.970  0.00  0.00    +0.000 C 
ATOM     24  F   UNL     1       0.652   3.878  17.761  0.00  0.00    +0.000 F 
ATOM     25  F   UNL     1       0.145   3.140  19.734  0.00  0.00    +0.000 F 
ATOM     26  F   UNL     1       1.614   4.730  19.499  0.00  0.00    +0.000 F 
ENDBRANCH   6  23
TORSDOF 3
ENDMDL
MODEL 3
REMARK VINA RESULT:      -8.7      2.556      3.347
REMARK  Name = 
REMARK  6 active torsions:
REMARK  status: ('A' for Active; 'I' for Inactive)
REMARK    1  A    between atoms: C_1  and  C_2
REMARK    2  A    between atoms: C_5  and  C_6
REMARK    3  A    between atoms: C_10  and  C_11
REMARK    4  A    between atoms: C_16  and  C_17
REMARK    5  A    between atoms: C_21  and  C_22
REMARK    6  A    between atoms: C_21  and  C_23
REMARK                            x       y       z     vdW  Elec       q    Type
REMARK                         _______ _______ _______ _____ _____    ______ ____
ROOT
ATOM      1  C   UNL     1       2.396   7.364  19.097  0.00  0.00    +0.000 C 
ATOM      2  O   UNL     1       3.350   7.713  18.385  0.00  0.00    +0.000 OA
ATOM      3  N   UNL     1       2.246   6.034  19.522  0.00  0.00    +0.000 N 
ATOM      4  C   UNL     1       1.304   5.561  20.540  0.00  0.00    +0.000 C 
ATOM      5  C   UNL     1       0.751   4.193  20.155  0.00  0.00    +0.000 C 
ATOM      6  C   UNL     1       1.891   3.173  20.012  0.00  0.00    +0.000 C 
ATOM      7  C   UNL     1       2.928   3.673  18.947  0.00  0.00    +0.000 C 
ATOM      8  C   UNL     1       2.293   3.671  17.530  0.00  0.00    +0.000 C 
ATOM      9  C   UNL     1       4.161   2.746  18.861  0.00  0.00    +0.000 C 
ATOM     10  C   UNL     1       3.375   5.121  19.269  0.00  0.00    +0.000 C 
ENDROOT
BRANCH   1  15
ATOM     11  C   UNL     1      -0.351  10.001  19.131  0.00  0.00    +0.000 A 
ATOM     12  C   UNL     1      -0.296  10.393  20.477  0.00  0.00    +0.000 A 
ATOM     13  C   UNL     1       0.677   9.868  21.325  0.00  0.00    +0.000 A 
ATOM     14  C   UNL     1       1.553   8.891  20.853  0.00  0.00    +0.000 A 
ATOM     15  C   UNL     1       1.472   8.443  19.528  0.00  0.00    +0.000 A 
ATOM     16  C   UNL     1       0.578   9.067  18.658  0.00  0.00    +0.000 A 
BRANCH  11  21
ATOM     17  C   UNL     1      -2.997  10.109  15.152  0.00  0.00    +0.000 C 
ATOM     18  C   UNL     1      -2.506  10.611  16.449  0.00  0.00    +0.000 A 
ATOM     19  N   UNL     1      -2.943  11.593  17.206  0.00  0.00    +0.000 NA
ATOM     20  N   UNL     1      -2.176  11.558  18.349  0.00  0.00    +0.000 NA
ATOM     21  C   UNL     1      -1.331  10.562  18.207  0.00  0.00    +0.000 A 
ATOM     22  O   UNL     1      -1.468   9.925  17.009  0.00  0.00    +0.000 OA
ENDBRANCH  11  21
ENDBRANCH   1  15
BRANCH   6  23
ATOM     23  C   UNL     1       2.463   2.844  21.406  0.00  0.00    +0.000 C 
ATOM     24  F   UNL     1       1.684   1.972  22.087  0.00  0.00    +0.000 F 
ATOM     25  F   UNL     1       3.676   2.257  21.282  0.00  0.00    +0.000 F 
ATOM     26  F   UNL     1       2.612   3.921  22.200  0.00  0.00    +0.000 F 
ENDBRANCH   6  23
TORSDOF 3
ENDMDL
MODEL 4
REMARK VINA RESULT:      -8.5      3.547      7.884
REMARK  Name = 
REMARK  6 active torsions:
REMARK  status: ('A' for Active; 'I' for Inactive)
REMARK    1  A    between atoms: C_1  and  C_2
REMARK    2  A    between atoms: C_5  and  C_6
REMARK    3  A    between atoms: C_10  and  C_11
REMARK    4  A    between atoms: C_16  and  C_17
REMARK    5  A    between atoms: C_21  and  C_22
REMARK    6  A    between atoms: C_21  and  C_23
REMARK                            x       y       z     vdW  Elec       q    Type
REMARK                         _______ _______ _______ _____ _____    ______ ____
ROOT
ATOM      1  C   UNL     1       1.839   8.222  18.661  0.00  0.00    +0.000 C 
ATOM      2  O   UNL     1       1.451   8.608  17.548  0.00  0.00    +0.000 OA
ATOM      3  N   UNL     1       1.382   8.821  19.846  0.00  0.00    +0.000 N 
ATOM      4  C   UNL     1       1.588   8.305  21.201  0.00  0.00    +0.000 C 
ATOM      5  C   UNL     1       1.818   9.455  22.176  0.00  0.00    +0.000 C 
ATOM      6  C   UNL     1       0.613  10.407  22.179  0.00  0.00    +0.000 C 
ATOM      7  C   UNL     1       0.355  10.951  20.730  0.00  0.00    +0.000 C 
ATOM      8  C   UNL     1       1.519  11.878  20.285  0.00  0.00    +0.000 C 
ATOM      9  C   UNL     1      -0.926  11.810  20.654  0.00  0.00    +0.000 C 
ATOM     10  C   UNL     1       0.267   9.777  19.722  0.00  0.00    +0.000 C 
ENDROOT
BRANCH   1  15
ATOM     11  C   UNL     1       4.594   5.754  17.751  0.00  0.00    +0.000 A 
ATOM     12  C   UNL     1       4.495   4.868  18.834  0.00  0.00    +0.000 A 
ATOM     13  C   UNL     1       3.492   5.030  19.788  0.00  0.00    +0.000 A 
ATOM     14  C   UNL     1       2.628   6.123  19.707  0.00  0.00    +0.000 A 
ATOM     15  C   UNL     1       2.753   7.051  18.666  0.00  0.00    +0.000 A 
ATOM     16  C   UNL     1       3.678   6.808  17.651  0.00  0.00    +0.000 A 
BRANCH  11  21
ATOM     17  C   UNL     1       6.381   4.026  13.669  0.00  0.00    +0.000 C 
ATOM     18  C   UNL     1       6.398   4.830  14.906  0.00  0.00    +0.000 A 
ATOM     19  N   UNL     1       7.244   5.749  15.315  0.00  0.00    +0.000 NA
ATOM     20  N   UNL     1       6.725   6.241  16.492  0.00  0.00    +0.000 NA
ATOM     21  C   UNL     1       5.606   5.589  16.713  0.00  0.00    +0.000 A 
ATOM     22  O   UNL     1       5.343   4.656  15.753  0.00  0.00    +0.000 OA
ENDBRANCH  11  21
ENDBRANCH   1  15
BRANCH   6  23
ATOM     23  C   UNL     1      -0.586   9.717  22.862  0.00  0.00    +0.000 C 
ATOM     24  F   UNL     1      -1.117   8.737  22.096  0.00  0.00    +0.000 F 
ATOM     25  F   UNL     1      -0.187   9.128  24.013  0.00  0.00    +0.000 F 
ATOM     26  F   UNL     1      -1.595  10.555  23.164  0.00  0.00    +0.000 F 
ENDBRANCH   6  23
TORSDOF 3
ENDMDL
MODEL 5
REMARK VINA RESULT:      -8.4      3.201      6.969
REMARK  Name = 
REMARK  6 active torsions:
REMARK  status: ('A' for Active; 'I' for Inactive)
REMARK    1  A    between atoms: C_1  and  C_2
REMARK    2  A    between atoms: C_5  and  C_6
REMARK    3  A    between atoms: C_10  and  C_11
REMARK    4  A    between atoms: C_16  and  C_17
REMARK    5  A    between atoms: C_21  and  C_22
REMARK    6  A    between atoms: C_21  and  C_23
REMARK                            x       y       z     vdW  Elec       q    Type
REMARK                         _______ _______ _______ _____ _____    ______ ____
ROOT
ATOM      1  C   UNL     1       1.527   8.736  18.479  0.00  0.00    +0.000 C 
ATOM      2  O   UNL     1       0.985   9.147  17.442  0.00  0.00    +0.000 OA
ATOM      3  N   UNL     1       1.134   9.200  19.746  0.00  0.00    +0.000 N 
ATOM      4  C   UNL     1       1.534   8.624  21.031  0.00  0.00    +0.000 C 
ATOM      5  C   UNL     1       1.740   9.726  22.065  0.00  0.00    +0.000 C 
ATOM      6  C   UNL     1       0.447  10.533  22.257  0.00  0.00    +0.000 C 
ATOM      7  C   UNL     1      -0.017  11.137  20.885  0.00  0.00    +0.000 C 
ATOM      8  C   UNL     1       0.987  12.218  20.402  0.00  0.00    +0.000 C 
ATOM      9  C   UNL     1      -1.384  11.846  20.999  0.00  0.00    +0.000 C 
ATOM     10  C   UNL     1      -0.084  10.028  19.804  0.00  0.00    +0.000 C 
ENDROOT
BRANCH   1  15
ATOM     11  C   UNL     1       3.525   5.513  18.833  0.00  0.00    +0.000 A 
ATOM     12  C   UNL     1       4.478   5.705  17.821  0.00  0.00    +0.000 A 
ATOM     13  C   UNL     1       4.514   6.900  17.105  0.00  0.00    +0.000 A 
ATOM     14  C   UNL     1       3.551   7.881  17.343  0.00  0.00    +0.000 A 
ATOM     15  C   UNL     1       2.555   7.679  18.307  0.00  0.00    +0.000 A 
ATOM     16  C   UNL     1       2.607   6.535  19.103  0.00  0.00    +0.000 A 
BRANCH  11  21
ATOM     17  C   UNL     1       1.599   2.393  21.899  0.00  0.00    +0.000 C 
ATOM     18  C   UNL     1       2.635   2.907  20.983  0.00  0.00    +0.000 A 
ATOM     19  N   UNL     1       3.709   2.327  20.496  0.00  0.00    +0.000 NA
ATOM     20  N   UNL     1       4.260   3.231  19.617  0.00  0.00    +0.000 NA
ATOM     21  C   UNL     1       3.486   4.292  19.630  0.00  0.00    +0.000 A 
ATOM     22  O   UNL     1       2.439   4.166  20.495  0.00  0.00    +0.000 OA
ENDBRANCH  11  21
ENDBRANCH   1  15
BRANCH   6  23
ATOM     23  C   UNL     1      -0.593   9.667  22.997  0.00  0.00    +0.000 C 
ATOM     24  F   UNL     1      -1.053   8.652  22.231  0.00  0.00    +0.000 F 
ATOM     25  F   UNL     1      -0.029   9.097  24.087  0.00  0.00    +0.000 F 
ATOM     26  F   UNL     1      -1.674  10.353  23.411  0.00  0.00    +0.000 F 
ENDBRANCH   6  23
TORSDOF 3
ENDMDL
MODEL 6
REMARK VINA RESULT:      -8.2      5.381      8.367
REMARK  Name = 
REMARK  6 active torsions:
REMARK  status: ('A' for Active; 'I' for Inactive)
REMARK    1  A    between atoms: C_1  and  C_2
REMARK    2  A    between atoms: C_5  and  C_6
REMARK    3  A    between atoms: C_10  and  C_11
REMARK    4  A    between atoms: C_16  and  C_17
REMARK    5  A    between atoms: C_21  and  C_22
REMARK    6  A    between atoms: C_21  and  C_23
REMARK                            x       y       z     vdW  Elec       q    Type
REMARK                         _______ _______ _______ _____ _____    ______ ____
ROOT
ATOM      1  C   UNL     1       5.926   4.325  17.906  0.00  0.00    +0.000 C 
ATOM      2  O   UNL     1       6.709   4.634  18.817  0.00  0.00    +0.000 OA
ATOM      3  N   UNL     1       4.655   3.792  18.180  0.00  0.00    +0.000 N 
ATOM      4  C   UNL     1       3.575   3.611  17.207  0.00  0.00    +0.000 C 
ATOM      5  C   UNL     1       2.808   2.327  17.502  0.00  0.00    +0.000 C 
ATOM      6  C   UNL     1       2.209   2.370  18.916  0.00  0.00    +0.000 C 
ATOM      7  C   UNL     1       3.346   2.593  19.973  0.00  0.00    +0.000 C 
ATOM      8  C   UNL     1       4.277   1.351  20.037  0.00  0.00    +0.000 C 
ATOM      9  C   UNL     1       2.782   2.775  21.400  0.00  0.00    +0.000 C 
ATOM     10  C   UNL     1       4.211   3.819  19.585  0.00  0.00    +0.000 C 
ENDROOT
BRANCH   1  15
ATOM     11  C   UNL     1       6.322   4.265  14.119  0.00  0.00    +0.000 A 
ATOM     12  C   UNL     1       7.229   5.322  13.951  0.00  0.00    +0.000 A 
ATOM     13  C   UNL     1       7.762   5.975  15.061  0.00  0.00    +0.000 A 
ATOM     14  C   UNL     1       7.334   5.627  16.343  0.00  0.00    +0.000 A 
ATOM     15  C   UNL     1       6.382   4.616  16.523  0.00  0.00    +0.000 A 
ATOM     16  C   UNL     1       5.953   3.886  15.415  0.00  0.00    +0.000 A 
BRANCH  11  21
ATOM     17  C   UNL     1       6.191   0.753  10.878  0.00  0.00    +0.000 C 
ATOM     18  C   UNL     1       5.713   1.978  11.548  0.00  0.00    +0.000 A 
ATOM     19  N   UNL     1       4.582   2.634  11.423  0.00  0.00    +0.000 NA
ATOM     20  N   UNL     1       4.627   3.645  12.356  0.00  0.00    +0.000 NA
ATOM     21  C   UNL     1       5.777   3.532  12.980  0.00  0.00    +0.000 A 
ATOM     22  O   UNL     1       6.534   2.503  12.503  0.00  0.00    +0.000 OA
ENDBRANCH  11  21
ENDBRANCH   1  15
BRANCH   6  23
ATOM     23  C   UNL     1       1.049   3.386  18.951  0.00  0.00    +0.000 C 
ATOM     24  F   UNL     1       0.611   3.707  17.713  0.00  0.00    +0.000 F 
ATOM     25  F   UNL     1      -0.011   2.856  19.606  0.00  0.00    +0.000 F 
ATOM     26  F   UNL     1       1.361   4.546  19.558  0.00  0.00    +0.000 F 
ENDBRANCH   6  23
TORSDOF 3
ENDMDL
MODEL 7
REMARK VINA RESULT:      -8.1      2.270      2.837
REMARK  Name = 
REMARK  6 active torsions:
REMARK  status: ('A' for Active; 'I' for Inactive)
REMARK    1  A    between atoms: C_1  and  C_2
REMARK    2  A    between atoms: C_5  and  C_6
REMARK    3  A    between atoms: C_10  and  C_11
REMARK    4  A    between atoms: C_16  and  C_17
REMARK    5  A    between atoms: C_21  and  C_22
REMARK    6  A    between atoms: C_21  and  C_23
REMARK                            x       y       z     vdW  Elec       q    Type
REMARK                         _______ _______ _______ _____ _____    ______ ____
ROOT
ATOM      1  C   UNL     1       2.106   7.607  19.251  0.00  0.00    +0.000 C 
ATOM      2  O   UNL     1       2.687   8.149  18.298  0.00  0.00    +0.000 OA
ATOM      3  N   UNL     1       2.182   6.221  19.463  0.00  0.00    +0.000 N 
ATOM      4  C   UNL     1       1.738   5.514  20.667  0.00  0.00    +0.000 C 
ATOM      5  C   UNL     1       1.124   4.169  20.294  0.00  0.00    +0.000 C 
ATOM      6  C   UNL     1       2.147   3.298  19.549  0.00  0.00    +0.000 C 
ATOM      7  C   UNL     1       2.659   4.049  18.269  0.00  0.00    +0.000 C 
ATOM      8  C   UNL     1       1.514   4.191  17.230  0.00  0.00    +0.000 C 
ATOM      9  C   UNL     1       3.787   3.272  17.556  0.00  0.00    +0.000 C 
ATOM     10  C   UNL     1       3.148   5.472  18.640  0.00  0.00    +0.000 C 
ENDROOT
BRANCH   1  15
ATOM     11  C   UNL     1      -0.249  10.238  20.678  0.00  0.00    +0.000 A 
ATOM     12  C   UNL     1       0.030  10.099  22.045  0.00  0.00    +0.000 A 
ATOM     13  C   UNL     1       1.029   9.228  22.475  0.00  0.00    +0.000 A 
ATOM     14  C   UNL     1       1.703   8.433  21.548  0.00  0.00    +0.000 A 
ATOM     15  C   UNL     1       1.393   8.515  20.185  0.00  0.00    +0.000 A 
ATOM     16  C   UNL     1       0.482   9.480  19.755  0.00  0.00    +0.000 A 
BRANCH  11  21
ATOM     17  C   UNL     1      -3.766  11.710  17.794  0.00  0.00    +0.000 C 
ATOM     18  C   UNL     1      -2.819  11.824  18.919  0.00  0.00    +0.000 A 
ATOM     19  N   UNL     1      -2.750  12.705  19.892  0.00  0.00    +0.000 NA
ATOM     20  N   UNL     1      -1.734  12.277  20.717  0.00  0.00    +0.000 NA
ATOM     21  C   UNL     1      -1.260  11.171  20.190  0.00  0.00    +0.000 A 
ATOM     22  O   UNL     1      -1.889  10.831  19.029  0.00  0.00    +0.000 OA
ENDBRANCH  11  21
ENDBRANCH   1  15
BRANCH   6  23
ATOM     23  C   UNL     1       3.236   2.828  20.534  0.00  0.00    +0.000 C 
ATOM     24  F   UNL     1       2.758   2.671  21.790  0.00  0.00    +0.000 F 
ATOM     25  F   UNL     1       3.716   1.621  20.154  0.00  0.00    +0.000 F 
ATOM     26  F   UNL     1       4.283   3.669  20.628  0.00  0.00    +0.000 F 
ENDBRANCH   6  23
TORSDOF 3
ENDMDL
MODEL 8
REMARK VINA RESULT:      -7.9      4.184      8.235
REMARK  Name = 
REMARK  6 active torsions:
REMARK  status: ('A' for Active; 'I' for Inactive)
REMARK    1  A    between atoms: C_1  and  C_2
REMARK    2  A    between atoms: C_5  and  C_6
REMARK    3  A    between atoms: C_10  and  C_11
REMARK    4  A    between atoms: C_16  and  C_17
REMARK    5  A    between atoms: C_21  and  C_22
REMARK    6  A    between atoms: C_21  and  C_23
REMARK                            x       y       z     vdW  Elec       q    Type
REMARK                         _______ _______ _______ _____ _____    ______ ____
ROOT
ATOM      1  C   UNL     1       2.092   6.891  19.808  0.00  0.00    +0.000 C 
ATOM      2  O   UNL     1       2.139   6.537  20.996  0.00  0.00    +0.000 OA
ATOM      3  N   UNL     1       1.704   8.191  19.445  0.00  0.00    +0.000 N 
ATOM      4  C   UNL     1       1.833   8.783  18.112  0.00  0.00    +0.000 C 
ATOM      5  C   UNL     1       0.637   9.680  17.813  0.00  0.00    +0.000 C 
ATOM      6  C   UNL     1       0.535  10.806  18.854  0.00  0.00    +0.000 C 
ATOM      7  C   UNL     1       0.424  10.195  20.295  0.00  0.00    +0.000 C 
ATOM      8  C   UNL     1      -0.928   9.451  20.466  0.00  0.00    +0.000 C 
ATOM      9  C   UNL     1       0.452  11.285  21.388  0.00  0.00    +0.000 C 
ATOM     10  C   UNL     1       1.566   9.174  20.535  0.00  0.00    +0.000 C 
ENDROOT
BRANCH   1  15
ATOM     11  C   UNL     1       4.142   5.006  17.210  0.00  0.00    +0.000 A 
ATOM     12  C   UNL     1       3.324   3.882  17.023  0.00  0.00    +0.000 A 
ATOM     13  C   UNL     1       2.091   3.792  17.667  0.00  0.00    +0.000 A 
ATOM     14  C   UNL     1       1.702   4.789  18.562  0.00  0.00    +0.000 A 
ATOM     15  C   UNL     1       2.535   5.888  18.807  0.00  0.00    +0.000 A 
ATOM     16  C   UNL     1       3.706   6.028  18.062  0.00  0.00    +0.000 A 
BRANCH  11  21
ATOM     17  C   UNL     1       7.135   4.641  13.502  0.00  0.00    +0.000 C 
ATOM     18  C   UNL     1       6.745   4.995  14.880  0.00  0.00    +0.000 A 
ATOM     19  N   UNL     1       7.378   5.696  15.794  0.00  0.00    +0.000 NA
ATOM     20  N   UNL     1       6.512   5.795  16.859  0.00  0.00    +0.000 NA
ATOM     21  C   UNL     1       5.419   5.150  16.520  0.00  0.00    +0.000 A 
ATOM     22  O   UNL     1       5.502   4.594  15.277  0.00  0.00    +0.000 OA
ENDBRANCH  11  21
ENDBRANCH   1  15
BRANCH   6  23
ATOM     23  C   UNL     1       1.682  11.813  18.635  0.00  0.00    +0.000 C 
ATOM     24  F   UNL     1       2.628  11.337  17.794  0.00  0.00    +0.000 F 
ATOM     25  F   UNL     1       1.203  12.946  18.071  0.00  0.00    +0.000 F 
ATOM     26  F   UNL     1       2.321  12.162  19.767  0.00  0.00    +0.000 F 
ENDBRANCH   6  23
TORSDOF 3
ENDMDL
MODEL 9
REMARK VINA RESULT:      -7.9      2.117      2.699
REMARK  Name = 
REMARK  6 active torsions:
REMARK  status: ('A' for Active; 'I' for Inactive)
REMARK    1  A    between atoms: C_1  and  C_2
REMARK    2  A    between atoms: C_5  and  C_6
REMARK    3  A    between atoms: C_10  and  C_11
REMARK    4  A    between atoms: C_16  and  C_17
REMARK    5  A    between atoms: C_21  and  C_22
REMARK    6  A    between atoms: C_21  and  C_23
REMARK                            x       y       z     vdW  Elec       q    Type
REMARK                         _______ _______ _______ _____ _____    ______ ____
ROOT
ATOM      1  C   UNL     1       2.003   7.673  19.308  0.00  0.00    +0.000 C 
ATOM      2  O   UNL     1       2.522   8.242  18.336  0.00  0.00    +0.000 OA
ATOM      3  N   UNL     1       2.107   6.284  19.487  0.00  0.00    +0.000 N 
ATOM      4  C   UNL     1       1.741   5.547  20.699  0.00  0.00    +0.000 C 
ATOM      5  C   UNL     1       1.123   4.202  20.334  0.00  0.00    +0.000 C 
ATOM      6  C   UNL     1       2.112   3.360  19.514  0.00  0.00    +0.000 C 
ATOM      7  C   UNL     1       2.542   4.143  18.224  0.00  0.00    +0.000 C 
ATOM      8  C   UNL     1       1.338   4.290  17.254  0.00  0.00    +0.000 C 
ATOM      9  C   UNL     1       3.637   3.395  17.432  0.00  0.00    +0.000 C 
ATOM     10  C   UNL     1       3.034   5.565  18.595  0.00  0.00    +0.000 C 
ENDROOT
BRANCH   1  15
ATOM     11  C   UNL     1      -0.249  10.294  20.909  0.00  0.00    +0.000 A 
ATOM     12  C   UNL     1       0.050  10.079  22.263  0.00  0.00    +0.000 A 
ATOM     13  C   UNL     1       1.030   9.159  22.630  0.00  0.00    +0.000 A 
ATOM     14  C   UNL     1       1.665   8.393  21.651  0.00  0.00    +0.000 A 
ATOM     15  C   UNL     1       1.333   8.552  20.300  0.00  0.00    +0.000 A 
ATOM     16  C   UNL     1       0.444   9.564  19.937  0.00  0.00    +0.000 A 
BRANCH  11  21
ATOM     17  C   UNL     1      -3.300  13.920  21.534  0.00  0.00    +0.000 C 
ATOM     18  C   UNL     1      -2.587  12.886  20.760  0.00  0.00    +0.000 A 
ATOM     19  N   UNL     1      -2.512  12.690  19.462  0.00  0.00    +0.000 NA
ATOM     20  N   UNL     1      -1.635  11.644  19.289  0.00  0.00    +0.000 NA
ATOM     21  C   UNL     1      -1.240  11.279  20.488  0.00  0.00    +0.000 A 
ATOM     22  O   UNL     1      -1.823  12.014  21.478  0.00  0.00    +0.000 OA
ENDBRANCH  11  21
ENDBRANCH   1  15
BRANCH   6  23
ATOM     23  C   UNL     1       3.261   2.884  20.426  0.00  0.00    +0.000 C 
ATOM     24  F   UNL     1       2.859   2.706  21.705  0.00  0.00    +0.000 F 
ATOM     25  F   UNL     1       3.725   1.686  20.001  0.00  0.00    +0.000 F 
ATOM     26  F   UNL     1       4.306   3.732  20.470  0.00  0.00    +0.000 F 
ENDBRANCH   6  23
TORSDOF 3
ENDMDL
