MODEL 1
REMARK VINA RESULT:      -8.0      0.000      0.000
REMARK  Name = 
REMARK  5 active torsions:
REMARK  status: ('A' for Active; 'I' for Inactive)
REMARK    1  A    between atoms: C_1  and  C_2
REMARK    2  A    between atoms: C_4  and  N_5
REMARK    3  A    between atoms: C_10  and  C_12
REMARK    4  A    between atoms: C_12  and  C_13
REMARK    5  A    between atoms: C_13  and  C_14
REMARK                            x       y       z     vdW  Elec       q    Type
REMARK                         _______ _______ _______ _____ _____    ______ ____
ROOT
ATOM      1  N   UNL     1      -0.219   9.992  18.902  0.00  0.00    +0.000 N 
ATOM      2  C   UNL     1       0.004   8.907  19.860  0.00  0.00    +0.000 C 
ATOM      3  C   UNL     1       1.501   8.987  20.165  0.00  0.00    +0.000 C 
ATOM      4  C   UNL     1       2.108   7.653  20.559  0.00  0.00    +0.000 C 
ATOM      5  N   UNL     1       2.127   6.721  19.435  0.00  0.00    +0.000 N 
ATOM      6  C   UNL     1       1.636   5.437  19.636  0.00  0.00    +0.000 C 
ATOM      7  O   UNL     1       1.216   5.074  20.739  0.00  0.00    +0.000 OA
ATOM      8  C   UNL     1       2.825   7.209  18.244  0.00  0.00    +0.000 C 
ATOM      9  C   UNL     1       2.249   8.541  17.761  0.00  0.00    +0.000 C 
ATOM     10  C   UNL     1       2.092   9.584  18.885  0.00  0.00    +0.000 C 
ATOM     11  C   UNL     1       1.036  10.645  18.530  0.00  0.00    +0.000 C 
ENDROOT
BRANCH   1  15
ATOM     12  C   UNL     1      -4.485  11.055  16.752  0.00  0.00    +0.000 C 
ATOM     13  C   UNL     1      -3.474  11.242  17.840  0.00  0.00    +0.000 A 
ATOM     14  C   UNL     1      -2.283  10.548  17.810  0.00  0.00    +0.000 A 
ATOM     15  C   UNL     1      -1.404  10.699  18.872  0.00  0.00    +0.000 A 
ATOM     16  N   UNL     1      -1.686  11.553  19.869  0.00  0.00    +0.000 NA
ATOM     17  C   UNL     1      -2.856  12.198  19.805  0.00  0.00    +0.000 A 
ATOM     18  N   UNL     1      -3.785  12.082  18.844  0.00  0.00    +0.000 NA
ENDBRANCH   1  15
BRANCH   6  19
ATOM     19  C   UNL     1       1.638   4.473  18.465  0.00  0.00    +0.000 C 
BRANCH  19  20
ATOM     20  C   UNL     1       2.727   3.415  18.644  0.00  0.00    +0.000 C 
BRANCH  20  21
ATOM     21  C   UNL     1       4.023   3.828  17.991  0.00  0.00    +0.000 A 
ATOM     22  C   UNL     1       5.106   4.245  18.774  0.00  0.00    +0.000 A 
ATOM     23  C   UNL     1       6.315   4.644  18.199  0.00  0.00    +0.000 A 
ATOM     24  C   UNL     1       6.409   4.610  16.803  0.00  0.00    +0.000 A 
ATOM     25  N   UNL     1       7.461   4.931  15.973  0.00  0.00    +0.000 N 
ATOM     26  C   UNL     1       7.104   4.745  14.664  0.00  0.00    +0.000 A 
ATOM     27  C   UNL     1       5.802   4.302  14.640  0.00  0.00    +0.000 A 
ATOM     28  C   UNL     1       5.354   4.204  15.988  0.00  0.00    +0.000 A 
ATOM     29  C   UNL     1       4.142   3.815  16.589  0.00  0.00    +0.000 A 
ATOM     30  H   UNL     1       8.363   5.251  16.292  0.00  0.00    +0.000 HD
ENDBRANCH  20  21
ENDBRANCH  19  20
ENDBRANCH   6  19
TORSDOF 4
ENDMDL
MODEL 2
REMARK VINA RESULT:      -8.0      2.861      4.925
REMARK  Name = 
REMARK  5 active torsions:
REMARK  status: ('A' for Active; 'I' for Inactive)
REMARK    1  A    between atoms: C_1  and  C_2
REMARK    2  A    between atoms: C_4  and  N_5
REMARK    3  A    between atoms: C_10  and  C_12
REMARK    4  A    between atoms: C_12  and  C_13
REMARK    5  A    between atoms: C_13  and  C_14
REMARK                            x       y       z     vdW  Elec       q    Type
REMARK                         _______ _______ _______ _____ _____    ______ ____
ROOT
ATOM      1  N   UNL     1      -3.719  11.639  18.623  0.00  0.00    +0.000 N 
ATOM      2  C   UNL     1      -2.643  11.951  19.565  0.00  0.00    +0.000 C 
ATOM      3  C   UNL     1      -1.444  12.257  18.665  0.00  0.00    +0.000 C 
ATOM      4  C   UNL     1      -0.107  11.955  19.319  0.00  0.00    +0.000 C 
ATOM      5  N   UNL     1       0.081  10.521  19.515  0.00  0.00    +0.000 N 
ATOM      6  C   UNL     1       0.486  10.075  20.767  0.00  0.00    +0.000 C 
ATOM      7  O   UNL     1       0.709  10.864  21.689  0.00  0.00    +0.000 OA
ATOM      8  C   UNL     1      -0.027   9.715  18.298  0.00  0.00    +0.000 C 
ATOM      9  C   UNL     1      -1.365   9.938  17.593  0.00  0.00    +0.000 C 
ATOM     10  C   UNL     1      -1.722  11.426  17.410  0.00  0.00    +0.000 C 
ATOM     11  C   UNL     1      -3.238  11.630  17.242  0.00  0.00    +0.000 C 
ENDROOT
BRANCH   1  15
ATOM     12  C   UNL     1      -7.101  13.589  21.575  0.00  0.00    +0.000 C 
ATOM     13  C   UNL     1      -6.696  12.884  20.318  0.00  0.00    +0.000 A 
ATOM     14  C   UNL     1      -5.377  12.546  20.104  0.00  0.00    +0.000 A 
ATOM     15  C   UNL     1      -5.035  11.956  18.896  0.00  0.00    +0.000 A 
ATOM     16  N   UNL     1      -5.983  11.664  17.992  0.00  0.00    +0.000 NA
ATOM     17  C   UNL     1      -7.239  12.010  18.294  0.00  0.00    +0.000 A 
ATOM     18  N   UNL     1      -7.656  12.623  19.413  0.00  0.00    +0.000 NA
ENDBRANCH   1  15
BRANCH   6  19
ATOM     19  C   UNL     1       0.664   8.583  20.978  0.00  0.00    +0.000 C 
BRANCH  19  20
ATOM     20  C   UNL     1       2.079   8.152  20.588  0.00  0.00    +0.000 C 
BRANCH  20  21
ATOM     21  C   UNL     1       2.091   6.789  19.943  0.00  0.00    +0.000 A 
ATOM     22  C   UNL     1       2.574   6.630  18.638  0.00  0.00    +0.000 A 
ATOM     23  C   UNL     1       2.590   5.383  18.009  0.00  0.00    +0.000 A 
ATOM     24  C   UNL     1       2.105   4.288  18.733  0.00  0.00    +0.000 A 
ATOM     25  N   UNL     1       2.008   2.960  18.381  0.00  0.00    +0.000 N 
ATOM     26  C   UNL     1       1.470   2.235  19.411  0.00  0.00    +0.000 A 
ATOM     27  C   UNL     1       1.208   3.103  20.446  0.00  0.00    +0.000 A 
ATOM     28  C   UNL     1       1.614   4.403  20.032  0.00  0.00    +0.000 A 
ATOM     29  C   UNL     1       1.600   5.672  20.643  0.00  0.00    +0.000 A 
ATOM     30  H   UNL     1       2.299   2.582  17.491  0.00  0.00    +0.000 HD
ENDBRANCH  20  21
ENDBRANCH  19  20
ENDBRANCH   6  19
TORSDOF 4
ENDMDL
MODEL 3
REMARK VINA RESULT:      -7.9      0.902      1.329
REMARK  Name = 
REMARK  5 active torsions:
REMARK  status: ('A' for Active; 'I' for Inactive)
REMARK    1  A    between atoms: C_1  and  C_2
REMARK    2  A    between atoms: C_4  and  N_5
REMARK    3  A    between atoms: C_10  and  C_12
REMARK    4  A    between atoms: C_12  and  C_13
REMARK    5  A    between atoms: C_13  and  C_14
REMARK                            x       y       z     vdW  Elec       q    Type
REMARK                         _______ _______ _______ _____ _____    ______ ____
ROOT
ATOM      1  N   UNL     1      -0.658  10.133  18.580  0.00  0.00    +0.000 N 
ATOM      2  C   UNL     1      -0.317   9.164  19.624  0.00  0.00    +0.000 C 
ATOM      3  C   UNL     1       1.129   9.506  19.985  0.00  0.00    +0.000 C 
ATOM      4  C   UNL     1       1.918   8.316  20.502  0.00  0.00    +0.000 C 
ATOM      5  N   UNL     1       2.145   7.328  19.452  0.00  0.00    +0.000 N 
ATOM      6  C   UNL     1       1.854   5.997  19.726  0.00  0.00    +0.000 C 
ATOM      7  O   UNL     1       1.438   5.645  20.833  0.00  0.00    +0.000 OA
ATOM      8  C   UNL     1       2.820   7.842  18.259  0.00  0.00    +0.000 C 
ATOM      9  C   UNL     1       2.067   9.029  17.655  0.00  0.00    +0.000 C 
ATOM     10  C   UNL     1       1.686  10.105  18.691  0.00  0.00    +0.000 C 
ATOM     11  C   UNL     1       0.496  10.956  18.214  0.00  0.00    +0.000 C 
ENDROOT
BRANCH   1  15
ATOM     12  C   UNL     1      -4.237  13.108  20.094  0.00  0.00    +0.000 C 
ATOM     13  C   UNL     1      -3.693  12.062  19.172  0.00  0.00    +0.000 A 
ATOM     14  C   UNL     1      -2.426  11.554  19.365  0.00  0.00    +0.000 A 
ATOM     15  C   UNL     1      -1.937  10.636  18.448  0.00  0.00    +0.000 A 
ATOM     16  N   UNL     1      -2.710  10.210  17.436  0.00  0.00    +0.000 NA
ATOM     17  C   UNL     1      -3.932  10.744  17.339  0.00  0.00    +0.000 A 
ATOM     18  N   UNL     1      -4.472  11.666  18.149  0.00  0.00    +0.000 NA
ENDBRANCH   1  15
BRANCH   6  19
ATOM     19  C   UNL     1       2.071   4.971  18.630  0.00  0.00    +0.000 C 
BRANCH  19  20
ATOM     20  C   UNL     1       3.309   4.123  18.928  0.00  0.00    +0.000 C 
BRANCH  20  21
ATOM     21  C   UNL     1       4.460   4.472  18.017  0.00  0.00    +0.000 A 
ATOM     22  C   UNL     1       5.572   5.158  18.518  0.00  0.00    +0.000 A 
ATOM     23  C   UNL     1       6.650   5.504  17.699  0.00  0.00    +0.000 A 
ATOM     24  C   UNL     1       6.579   5.138  16.350  0.00  0.00    +0.000 A 
ATOM     25  N   UNL     1       7.479   5.333  15.326  0.00  0.00    +0.000 N 
ATOM     26  C   UNL     1       6.993   4.804  14.160  0.00  0.00    +0.000 A 
ATOM     27  C   UNL     1       5.758   4.260  14.427  0.00  0.00    +0.000 A 
ATOM     28  C   UNL     1       5.489   4.458  15.811  0.00  0.00    +0.000 A 
ATOM     29  C   UNL     1       4.411   4.127  16.654  0.00  0.00    +0.000 A 
ATOM     30  H   UNL     1       8.370   5.797  15.429  0.00  0.00    +0.000 HD
ENDBRANCH  20  21
ENDBRANCH  19  20
ENDBRANCH   6  19
TORSDOF 4
ENDMDL
MODEL 4
REMARK VINA RESULT:      -7.6      2.896      4.722
REMARK  Name = 
REMARK  5 active torsions:
REMARK  status: ('A' for Active; 'I' for Inactive)
REMARK    1  A    between atoms: C_1  and  C_2
REMARK    2  A    between atoms: C_4  and  N_5
REMARK    3  A    between atoms: C_10  and  C_12
REMARK    4  A    between atoms: C_12  and  C_13
REMARK    5  A    between atoms: C_13  and  C_14
REMARK                            x       y       z     vdW  Elec       q    Type
REMARK                         _______ _______ _______ _____ _____    ______ ____
ROOT
ATOM      1  N   UNL     1      -3.418  12.028  19.481  0.00  0.00    +0.000 N 
ATOM      2  C   UNL     1      -2.283  12.129  20.399  0.00  0.00    +0.000 C 
ATOM      3  C   UNL     1      -1.089  12.398  19.482  0.00  0.00    +0.000 C 
ATOM      4  C   UNL     1       0.228  11.893  20.042  0.00  0.00    +0.000 C 
ATOM      5  N   UNL     1       0.266  10.435  20.088  0.00  0.00    +0.000 N 
ATOM      6  C   UNL     1       0.663   9.823  21.271  0.00  0.00    +0.000 C 
ATOM      7  O   UNL     1       1.001  10.486  22.256  0.00  0.00    +0.000 OA
ATOM      8  C   UNL     1       0.031   9.773  18.804  0.00  0.00    +0.000 C 
ATOM      9  C   UNL     1      -1.299  10.205  18.184  0.00  0.00    +0.000 C 
ATOM     10  C   UNL     1      -1.498  11.733  18.164  0.00  0.00    +0.000 C 
ATOM     11  C   UNL     1      -2.988  12.110  18.084  0.00  0.00    +0.000 C 
ENDROOT
BRANCH   1  15
ATOM     12  C   UNL     1      -7.917  13.519  18.257  0.00  0.00    +0.000 C 
ATOM     13  C   UNL     1      -6.867  13.189  19.272  0.00  0.00    +0.000 A 
ATOM     14  C   UNL     1      -5.603  12.813  18.870  0.00  0.00    +0.000 A 
ATOM     15  C   UNL     1      -4.683  12.451  19.841  0.00  0.00    +0.000 A 
ATOM     16  N   UNL     1      -5.003  12.531  21.143  0.00  0.00    +0.000 NA
ATOM     17  C   UNL     1      -6.246  12.924  21.440  0.00  0.00    +0.000 A 
ATOM     18  N   UNL     1      -7.214  13.250  20.570  0.00  0.00    +0.000 NA
ENDBRANCH   1  15
BRANCH   6  19
ATOM     19  C   UNL     1       0.686   8.307  21.327  0.00  0.00    +0.000 C 
BRANCH  19  20
ATOM     20  C   UNL     1       2.088   7.781  21.018  0.00  0.00    +0.000 C 
BRANCH  20  21
ATOM     21  C   UNL     1       2.045   6.552  20.144  0.00  0.00    +0.000 A 
ATOM     22  C   UNL     1       2.566   6.592  18.845  0.00  0.00    +0.000 A 
ATOM     23  C   UNL     1       2.533   5.475  18.007  0.00  0.00    +0.000 A 
ATOM     24  C   UNL     1       1.958   4.304  18.514  0.00  0.00    +0.000 A 
ATOM     25  N   UNL     1       1.798   3.066  17.932  0.00  0.00    +0.000 N 
ATOM     26  C   UNL     1       1.180   2.210  18.804  0.00  0.00    +0.000 A 
ATOM     27  C   UNL     1       0.930   2.899  19.968  0.00  0.00    +0.000 A 
ATOM     28  C   UNL     1       1.426   4.223  19.800  0.00  0.00    +0.000 A 
ATOM     29  C   UNL     1       1.464   5.365  20.623  0.00  0.00    +0.000 A 
ATOM     30  H   UNL     1       2.099   2.831  16.998  0.00  0.00    +0.000 HD
ENDBRANCH  20  21
ENDBRANCH  19  20
ENDBRANCH   6  19
TORSDOF 4
ENDMDL
MODEL 5
REMARK VINA RESULT:      -7.5      3.392      4.705
REMARK  Name = 
REMARK  5 active torsions:
REMARK  status: ('A' for Active; 'I' for Inactive)
REMARK    1  A    between atoms: C_1  and  C_2
REMARK    2  A    between atoms: C_4  and  N_5
REMARK    3  A    between atoms: C_10  and  C_12
REMARK    4  A    between atoms: C_12  and  C_13
REMARK    5  A    between atoms: C_13  and  C_14
REMARK                            x       y       z     vdW  Elec       q    Type
REMARK                         _______ _______ _______ _____ _____    ______ ____
ROOT
ATOM      1  N   UNL     1       1.804  13.129  19.733  0.00  0.00    +0.000 N 
ATOM      2  C   UNL     1       1.727  12.049  18.747  0.00  0.00    +0.000 C 
ATOM      3  C   UNL     1       0.290  11.540  18.870  0.00  0.00    +0.000 C 
ATOM      4  C   UNL     1       0.134  10.077  18.496  0.00  0.00    +0.000 C 
ATOM      5  N   UNL     1       0.797   9.205  19.459  0.00  0.00    +0.000 N 
ATOM      6  C   UNL     1       1.646   8.216  18.978  0.00  0.00    +0.000 C 
ATOM      7  O   UNL     1       1.823   8.054  17.767  0.00  0.00    +0.000 OA
ATOM      8  C   UNL     1       0.355   9.373  20.845  0.00  0.00    +0.000 C 
ATOM      9  C   UNL     1       0.511  10.820  21.313  0.00  0.00    +0.000 C 
ATOM     10  C   UNL     1      -0.072  11.850  20.325  0.00  0.00    +0.000 C 
ATOM     11  C   UNL     1       0.568  13.237  20.508  0.00  0.00    +0.000 C 
ENDROOT
BRANCH   1  15
ATOM     12  C   UNL     1       3.000  17.064  17.080  0.00  0.00    +0.000 C 
ATOM     13  C   UNL     1       3.200  16.151  18.250  0.00  0.00    +0.000 A 
ATOM     14  C   UNL     1       2.420  15.023  18.395  0.00  0.00    +0.000 A 
ATOM     15  C   UNL     1       2.593  14.243  19.528  0.00  0.00    +0.000 A 
ATOM     16  N   UNL     1       3.546  14.549  20.423  0.00  0.00    +0.000 NA
ATOM     17  C   UNL     1       4.268  15.650  20.190  0.00  0.00    +0.000 A 
ATOM     18  N   UNL     1       4.142  16.488  19.149  0.00  0.00    +0.000 NA
ENDBRANCH   1  15
BRANCH   6  19
ATOM     19  C   UNL     1       2.350   7.320  19.979  0.00  0.00    +0.000 C 
BRANCH  19  20
ATOM     20  C   UNL     1       2.164   5.849  19.604  0.00  0.00    +0.000 C 
BRANCH  20  21
ATOM     21  C   UNL     1       3.325   5.326  18.795  0.00  0.00    +0.000 A 
ATOM     22  C   UNL     1       3.098   4.516  17.676  0.00  0.00    +0.000 A 
ATOM     23  C   UNL     1       4.151   4.009  16.912  0.00  0.00    +0.000 A 
ATOM     24  C   UNL     1       5.453   4.340  17.306  0.00  0.00    +0.000 A 
ATOM     25  N   UNL     1       6.666   3.998  16.750  0.00  0.00    +0.000 N 
ATOM     26  C   UNL     1       7.690   4.551  17.472  0.00  0.00    +0.000 A 
ATOM     27  C   UNL     1       7.138   5.259  18.514  0.00  0.00    +0.000 A 
ATOM     28  C   UNL     1       5.723   5.139  18.415  0.00  0.00    +0.000 A 
ATOM     29  C   UNL     1       4.645   5.633  19.174  0.00  0.00    +0.000 A 
ATOM     30  H   UNL     1       6.775   3.426  15.926  0.00  0.00    +0.000 HD
ENDBRANCH  20  21
ENDBRANCH  19  20
ENDBRANCH   6  19
TORSDOF 4
ENDMDL
MODEL 6
REMARK VINA RESULT:      -7.5      2.127      3.613
REMARK  Name = 
REMARK  5 active torsions:
REMARK  status: ('A' for Active; 'I' for Inactive)
REMARK    1  A    between atoms: C_1  and  C_2
REMARK    2  A    between atoms: C_4  and  N_5
REMARK    3  A    between atoms: C_10  and  C_12
REMARK    4  A    between atoms: C_12  and  C_13
REMARK    5  A    between atoms: C_13  and  C_14
REMARK                            x       y       z     vdW  Elec       q    Type
REMARK                         _______ _______ _______ _____ _____    ______ ____
ROOT
ATOM      1  N   UNL     1      -2.164  12.324  19.976  0.00  0.00    +0.000 N 
ATOM      2  C   UNL     1      -1.404  11.225  20.576  0.00  0.00    +0.000 C 
ATOM      3  C   UNL     1      -0.042  11.847  20.889  0.00  0.00    +0.000 C 
ATOM      4  C   UNL     1       1.096  10.843  20.877  0.00  0.00    +0.000 C 
ATOM      5  N   UNL     1       1.350  10.338  19.531  0.00  0.00    +0.000 N 
ATOM      6  C   UNL     1       1.448   8.964  19.350  0.00  0.00    +0.000 C 
ATOM      7  O   UNL     1       1.351   8.182  20.300  0.00  0.00    +0.000 OA
ATOM      8  C   UNL     1       1.637  11.369  18.532  0.00  0.00    +0.000 C 
ATOM      9  C   UNL     1       0.517  12.408  18.459  0.00  0.00    +0.000 C 
ATOM     10  C   UNL     1       0.093  12.951  19.838  0.00  0.00    +0.000 C 
ATOM     11  C   UNL     1      -1.336  13.519  19.809  0.00  0.00    +0.000 C 
ENDROOT
BRANCH   1  15
ATOM     12  C   UNL     1      -6.737  11.758  18.328  0.00  0.00    +0.000 C 
ATOM     13  C   UNL     1      -5.756  12.192  19.371  0.00  0.00    +0.000 A 
ATOM     14  C   UNL     1      -4.400  12.096  19.136  0.00  0.00    +0.000 A 
ATOM     15  C   UNL     1      -3.528  12.445  20.155  0.00  0.00    +0.000 A 
ATOM     16  N   UNL     1      -3.998  12.927  21.316  0.00  0.00    +0.000 NA
ATOM     17  C   UNL     1      -5.327  13.004  21.448  0.00  0.00    +0.000 A 
ATOM     18  N   UNL     1      -6.246  12.648  20.538  0.00  0.00    +0.000 NA
ENDBRANCH   1  15
BRANCH   6  19
ATOM     19  C   UNL     1       1.694   8.437  17.949  0.00  0.00    +0.000 C 
BRANCH  19  20
ATOM     20  C   UNL     1       3.178   8.129  17.745  0.00  0.00    +0.000 C 
BRANCH  20  21
ATOM     21  C   UNL     1       3.462   6.651  17.851  0.00  0.00    +0.000 A 
ATOM     22  C   UNL     1       4.783   6.187  17.883  0.00  0.00    +0.000 A 
ATOM     23  C   UNL     1       5.080   4.825  17.971  0.00  0.00    +0.000 A 
ATOM     24  C   UNL     1       4.004   3.932  18.027  0.00  0.00    +0.000 A 
ATOM     25  N   UNL     1       3.991   2.558  18.125  0.00  0.00    +0.000 N 
ATOM     26  C   UNL     1       2.702   2.097  18.150  0.00  0.00    +0.000 A 
ATOM     27  C   UNL     1       1.863   3.184  18.065  0.00  0.00    +0.000 A 
ATOM     28  C   UNL     1       2.676   4.351  17.994  0.00  0.00    +0.000 A 
ATOM     29  C   UNL     1       2.401   5.729  17.897  0.00  0.00    +0.000 A 
ATOM     30  H   UNL     1       4.818   1.981  18.174  0.00  0.00    +0.000 HD
ENDBRANCH  20  21
ENDBRANCH  19  20
ENDBRANCH   6  19
TORSDOF 4
ENDMDL
MODEL 7
REMARK VINA RESULT:      -7.5      3.060      4.891
REMARK  Name = 
REMARK  5 active torsions:
REMARK  status: ('A' for Active; 'I' for Inactive)
REMARK    1  A    between atoms: C_1  and  C_2
REMARK    2  A    between atoms: C_4  and  N_5
REMARK    3  A    between atoms: C_10  and  C_12
REMARK    4  A    between atoms: C_12  and  C_13
REMARK    5  A    between atoms: C_13  and  C_14
REMARK                            x       y       z     vdW  Elec       q    Type
REMARK                         _______ _______ _______ _____ _____    ______ ____
ROOT
ATOM      1  N   UNL     1      -3.104  12.553  21.778  0.00  0.00    +0.000 N 
ATOM      2  C   UNL     1      -1.788  12.188  22.305  0.00  0.00    +0.000 C 
ATOM      3  C   UNL     1      -0.812  13.005  21.457  0.00  0.00    +0.000 C 
ATOM      4  C   UNL     1       0.554  12.357  21.318  0.00  0.00    +0.000 C 
ATOM      5  N   UNL     1       0.487  11.134  20.523  0.00  0.00    +0.000 N 
ATOM      6  C   UNL     1       1.088   9.988  21.026  0.00  0.00    +0.000 C 
ATOM      7  O   UNL     1       1.688   9.997  22.105  0.00  0.00    +0.000 OA
ATOM      8  C   UNL     1      -0.079  11.303  19.183  0.00  0.00    +0.000 C 
ATOM      9  C   UNL     1      -1.476  11.924  19.238  0.00  0.00    +0.000 C 
ATOM     10  C   UNL     1      -1.555  13.179  20.130  0.00  0.00    +0.000 C 
ATOM     11  C   UNL     1      -2.991  13.438  20.618  0.00  0.00    +0.000 C 
ENDROOT
BRANCH   1  15
ATOM     12  C   UNL     1      -7.871  13.475  22.396  0.00  0.00    +0.000 C 
ATOM     13  C   UNL     1      -6.528  13.070  22.917  0.00  0.00    +0.000 A 
ATOM     14  C   UNL     1      -5.430  13.063  22.083  0.00  0.00    +0.000 A 
ATOM     15  C   UNL     1      -4.219  12.616  22.590  0.00  0.00    +0.000 A 
ATOM     16  N   UNL     1      -4.113  12.262  23.881  0.00  0.00    +0.000 NA
ATOM     17  C   UNL     1      -5.226  12.319  24.620  0.00  0.00    +0.000 A 
ATOM     18  N   UNL     1      -6.446  12.694  24.206  0.00  0.00    +0.000 NA
ENDBRANCH   1  15
BRANCH   6  19
ATOM     19  C   UNL     1       1.005   8.712  20.210  0.00  0.00    +0.000 C 
BRANCH  19  20
ATOM     20  C   UNL     1       1.308   7.495  21.085  0.00  0.00    +0.000 C 
BRANCH  20  21
ATOM     21  C   UNL     1       1.939   6.378  20.292  0.00  0.00    +0.000 A 
ATOM     22  C   UNL     1       1.783   5.048  20.700  0.00  0.00    +0.000 A 
ATOM     23  C   UNL     1       2.362   3.991  19.993  0.00  0.00    +0.000 A 
ATOM     24  C   UNL     1       3.110   4.310  18.853  0.00  0.00    +0.000 A 
ATOM     25  N   UNL     1       3.778   3.492  17.969  0.00  0.00    +0.000 N 
ATOM     26  C   UNL     1       4.378   4.241  16.992  0.00  0.00    +0.000 A 
ATOM     27  C   UNL     1       4.102   5.564  17.245  0.00  0.00    +0.000 A 
ATOM     28  C   UNL     1       3.293   5.620  18.416  0.00  0.00    +0.000 A 
ATOM     29  C   UNL     1       2.706   6.669  19.149  0.00  0.00    +0.000 A 
ATOM     30  H   UNL     1       3.811   2.485  18.035  0.00  0.00    +0.000 HD
ENDBRANCH  20  21
ENDBRANCH  19  20
ENDBRANCH   6  19
TORSDOF 4
ENDMDL
MODEL 8
REMARK VINA RESULT:      -7.5      3.654      5.183
REMARK  Name = 
REMARK  5 active torsions:
REMARK  status: ('A' for Active; 'I' for Inactive)
REMARK    1  A    between atoms: C_1  and  C_2
REMARK    2  A    between atoms: C_4  and  N_5
REMARK    3  A    between atoms: C_10  and  C_12
REMARK    4  A    between atoms: C_12  and  C_13
REMARK    5  A    between atoms: C_13  and  C_14
REMARK                            x       y       z     vdW  Elec       q    Type
REMARK                         _______ _______ _______ _____ _____    ______ ____
ROOT
ATOM      1  N   UNL     1       0.263  13.412  21.631  0.00  0.00    +0.000 N 
ATOM      2  C   UNL     1       0.131  12.823  20.297  0.00  0.00    +0.000 C 
ATOM      3  C   UNL     1      -1.100  11.922  20.413  0.00  0.00    +0.000 C 
ATOM      4  C   UNL     1      -1.072  10.737  19.463  0.00  0.00    +0.000 C 
ATOM      5  N   UNL     1      -0.026   9.787  19.825  0.00  0.00    +0.000 N 
ATOM      6  C   UNL     1       0.835   9.344  18.828  0.00  0.00    +0.000 C 
ATOM      7  O   UNL     1       0.712   9.719  17.659  0.00  0.00    +0.000 OA
ATOM      8  C   UNL     1      -0.107   9.275  21.194  0.00  0.00    +0.000 C 
ATOM      9  C   UNL     1      -0.108  10.409  22.219  0.00  0.00    +0.000 C 
ATOM     10  C   UNL     1      -1.115  11.530  21.893  0.00  0.00    +0.000 C 
ATOM     11  C   UNL     1      -0.721  12.858  22.562  0.00  0.00    +0.000 C 
ENDROOT
BRANCH   1  15
ATOM     12  C   UNL     1       2.579  17.369  19.918  0.00  0.00    +0.000 C 
ATOM     13  C   UNL     1       1.877  16.620  21.008  0.00  0.00    +0.000 A 
ATOM     14  C   UNL     1       1.450  15.325  20.800  0.00  0.00    +0.000 A 
ATOM     15  C   UNL     1       0.745  14.693  21.813  0.00  0.00    +0.000 A 
ATOM     16  N   UNL     1       0.546  15.310  22.988  0.00  0.00    +0.000 NA
ATOM     17  C   UNL     1       1.013  16.557  23.106  0.00  0.00    +0.000 A 
ATOM     18  N   UNL     1       1.664  17.263  22.170  0.00  0.00    +0.000 NA
ENDBRANCH   1  15
BRANCH   6  19
ATOM     19  C   UNL     1       1.935   8.370  19.205  0.00  0.00    +0.000 C 
BRANCH  19  20
ATOM     20  C   UNL     1       2.799   8.040  17.988  0.00  0.00    +0.000 C 
BRANCH  20  21
ATOM     21  C   UNL     1       3.233   6.595  17.984  0.00  0.00    +0.000 A 
ATOM     22  C   UNL     1       4.593   6.267  17.922  0.00  0.00    +0.000 A 
ATOM     23  C   UNL     1       5.027   4.940  17.907  0.00  0.00    +0.000 A 
ATOM     24  C   UNL     1       4.049   3.940  17.957  0.00  0.00    +0.000 A 
ATOM     25  N   UNL     1       4.177   2.568  17.966  0.00  0.00    +0.000 N 
ATOM     26  C   UNL     1       2.943   1.978  18.024  0.00  0.00    +0.000 A 
ATOM     27  C   UNL     1       1.998   2.977  18.049  0.00  0.00    +0.000 A 
ATOM     28  C   UNL     1       2.686   4.223  18.016  0.00  0.00    +0.000 A 
ATOM     29  C   UNL     1       2.272   5.569  18.022  0.00  0.00    +0.000 A 
ATOM     30  H   UNL     1       5.058   2.077  17.939  0.00  0.00    +0.000 HD
ENDBRANCH  20  21
ENDBRANCH  19  20
ENDBRANCH   6  19
TORSDOF 4
ENDMDL
MODEL 9
REMARK VINA RESULT:      -7.5      2.531      4.279
REMARK  Name = 
REMARK  5 active torsions:
REMARK  status: ('A' for Active; 'I' for Inactive)
REMARK    1  A    between atoms: C_1  and  C_2
REMARK    2  A    between atoms: C_4  and  N_5
REMARK    3  A    between atoms: C_10  and  C_12
REMARK    4  A    between atoms: C_12  and  C_13
REMARK    5  A    between atoms: C_13  and  C_14
REMARK                            x       y       z     vdW  Elec       q    Type
REMARK                         _______ _______ _______ _____ _____    ______ ____
ROOT
ATOM      1  N   UNL     1      -2.500  12.660  20.881  0.00  0.00    +0.000 N 
ATOM      2  C   UNL     1      -1.534  11.668  21.356  0.00  0.00    +0.000 C 
ATOM      3  C   UNL     1      -0.201  12.418  21.343  0.00  0.00    +0.000 C 
ATOM      4  C   UNL     1       0.999  11.511  21.135  0.00  0.00    +0.000 C 
ATOM      5  N   UNL     1       1.014  10.943  19.791  0.00  0.00    +0.000 N 
ATOM      6  C   UNL     1       1.201   9.573  19.657  0.00  0.00    +0.000 C 
ATOM      7  O   UNL     1       1.377   8.849  20.641  0.00  0.00    +0.000 OA
ATOM      8  C   UNL     1       0.990  11.927  18.708  0.00  0.00    +0.000 C 
ATOM      9  C   UNL     1      -0.213  12.865  18.826  0.00  0.00    +0.000 C 
ATOM     10  C   UNL     1      -0.390  13.459  20.237  0.00  0.00    +0.000 C 
ATOM     11  C   UNL     1      -1.841  13.905  20.486  0.00  0.00    +0.000 C 
ENDROOT
BRANCH   1  15
ATOM     12  C   UNL     1      -7.305  12.208  20.067  0.00  0.00    +0.000 C 
ATOM     13  C   UNL     1      -6.140  12.479  20.966  0.00  0.00    +0.000 A 
ATOM     14  C   UNL     1      -4.857  12.493  20.459  0.00  0.00    +0.000 A 
ATOM     15  C   UNL     1      -3.803  12.680  21.340  0.00  0.00    +0.000 A 
ATOM     16  N   UNL     1      -4.038  12.908  22.642  0.00  0.00    +0.000 NA
ATOM     17  C   UNL     1      -5.314  12.896  23.040  0.00  0.00    +0.000 A 
ATOM     18  N   UNL     1      -6.393  12.679  22.272  0.00  0.00    +0.000 NA
ENDBRANCH   1  15
BRANCH   6  19
ATOM     19  C   UNL     1       1.199   8.978  18.262  0.00  0.00    +0.000 C 
BRANCH  19  20
ATOM     20  C   UNL     1       2.630   8.756  17.772  0.00  0.00    +0.000 C 
BRANCH  20  21
ATOM     21  C   UNL     1       2.974   7.289  17.692  0.00  0.00    +0.000 A 
ATOM     22  C   UNL     1       4.249   6.885  17.278  0.00  0.00    +0.000 A 
ATOM     23  C   UNL     1       4.596   5.536  17.185  0.00  0.00    +0.000 A 
ATOM     24  C   UNL     1       3.618   4.592  17.523  0.00  0.00    +0.000 A 
ATOM     25  N   UNL     1       3.675   3.216  17.537  0.00  0.00    +0.000 N 
ATOM     26  C   UNL     1       2.474   2.697  17.940  0.00  0.00    +0.000 A 
ATOM     27  C   UNL     1       1.622   3.747  18.190  0.00  0.00    +0.000 A 
ATOM     28  C   UNL     1       2.337   4.952  17.938  0.00  0.00    +0.000 A 
ATOM     29  C   UNL     1       2.008   6.319  18.016  0.00  0.00    +0.000 A 
ATOM     30  H   UNL     1       4.491   2.676  17.288  0.00  0.00    +0.000 HD
ENDBRANCH  20  21
ENDBRANCH  19  20
ENDBRANCH   6  19
TORSDOF 4
ENDMDL
