MODEL 1
REMARK VINA RESULT:      -7.3      0.000      0.000
REMARK  Name = 
REMARK  8 active torsions:
REMARK  status: ('A' for Active; 'I' for Inactive)
REMARK    1  A    between atoms: C_1  and  C_2
REMARK    2  A    between atoms: C_4  and  C_5
REMARK    3  A    between atoms: C_5  and  C_6
REMARK    4  A    between atoms: C_6  and  C_7
REMARK    5  A    between atoms: C_7  and  C_8
REMARK    6  A    between atoms: N_12  and  C_13
REMARK    7  A    between atoms: C_15  and  N_16
REMARK    8  A    between atoms: C_23  and  C_24
REMARK                            x       y       z     vdW  Elec       q    Type
REMARK                         _______ _______ _______ _____ _____    ______ ____
ROOT
ATOM      1  C   UNL     1      -2.957  10.752  17.188  0.00  0.00    +0.000 C 
ATOM      2  C   UNL     1      -2.716  11.703  18.324  0.00  0.00    +0.000 A 
ATOM      3  C   UNL     1      -3.725  11.935  19.266  0.00  0.00    +0.000 A 
ATOM      4  C   UNL     1      -3.543  12.880  20.276  0.00  0.00    +0.000 A 
ATOM      5  C   UNL     1      -2.393  13.661  20.274  0.00  0.00    +0.000 A 
ATOM      6  C   UNL     1      -1.272  13.189  19.584  0.00  0.00    +0.000 A 
ATOM      7  C   UNL     1      -1.460  12.296  18.520  0.00  0.00    +0.000 A 
ENDROOT
BRANCH   6   8
ATOM      8  N   UNL     1       0.005  13.199  20.299  0.00  0.00    +0.000 N 
ATOM      9  C   UNL     1       0.971  12.276  19.647  0.00  0.00    +0.000 C 
ATOM     10  C   UNL     1       0.779  10.993  20.406  0.00  0.00    +0.000 A 
ATOM     11  C   UNL     1       0.260  11.319  21.661  0.00  0.00    +0.000 A 
ATOM     12  C   UNL     1      -0.230  10.363  22.537  0.00  0.00    +0.000 A 
ATOM     13  C   UNL     1      -0.183   9.031  22.130  0.00  0.00    +0.000 A 
ATOM     14  C   UNL     1       0.359   8.685  20.878  0.00  0.00    +0.000 A 
ATOM     15  C   UNL     1       0.861   9.665  19.993  0.00  0.00    +0.000 A 
ATOM     16  C   UNL     1      -0.066  12.766  21.653  0.00  0.00    +0.000 C 
ATOM     17  O   UNL     1      -0.538  13.360  22.612  0.00  0.00    +0.000 OA
BRANCH  15  18
ATOM     18  C   UNL     1       1.369   9.232  18.641  0.00  0.00    +0.000 C 
ATOM     19  F   UNL     1       1.781   7.936  18.592  0.00  0.00    +0.000 F 
ATOM     20  F   UNL     1       0.418   9.352  17.674  0.00  0.00    +0.000 F 
ATOM     21  F   UNL     1       2.427   9.977  18.217  0.00  0.00    +0.000 F 
ENDBRANCH  15  18
ENDBRANCH   6   8
BRANCH   4  22
ATOM     22  C   UNL     1      -4.426  12.911  21.499  0.00  0.00    +0.000 C 
BRANCH  22  23
ATOM     23  C   UNL     1      -3.760  12.441  22.779  0.00  0.00    +0.000 C 
BRANCH  23  24
ATOM     24  C   UNL     1      -4.353  13.147  23.990  0.00  0.00    +0.000 C 
BRANCH  24  25
ATOM     25  C   UNL     1      -5.832  13.104  23.937  0.00  0.00    +0.000 A 
ATOM     26  N   UNL     1      -6.584  12.025  23.987  0.00  0.00    +0.000 NA
ATOM     27  N   UNL     1      -7.898  12.420  23.933  0.00  0.00    +0.000 NA
ATOM     28  C   UNL     1      -7.916  13.731  23.854  0.00  0.00    +0.000 A 
ATOM     29  N   UNL     1      -6.643  14.205  23.866  0.00  0.00    +0.000 N 
ATOM     30  C   UNL     1      -6.241  15.585  23.826  0.00  0.00    +0.000 C 
ENDBRANCH  24  25
ENDBRANCH  23  24
ENDBRANCH  22  23
ENDBRANCH   4  22
TORSDOF 6
ENDMDL
MODEL 2
REMARK VINA RESULT:      -7.2      4.604      7.301
REMARK  Name = 
REMARK  8 active torsions:
REMARK  status: ('A' for Active; 'I' for Inactive)
REMARK    1  A    between atoms: C_1  and  C_2
REMARK    2  A    between atoms: C_4  and  C_5
REMARK    3  A    between atoms: C_5  and  C_6
REMARK    4  A    between atoms: C_6  and  C_7
REMARK    5  A    between atoms: C_7  and  C_8
REMARK    6  A    between atoms: N_12  and  C_13
REMARK    7  A    between atoms: C_15  and  N_16
REMARK    8  A    between atoms: C_23  and  C_24
REMARK                            x       y       z     vdW  Elec       q    Type
REMARK                         _______ _______ _______ _____ _____    ______ ____
ROOT
ATOM      1  C   UNL     1       2.174  10.930  17.826  0.00  0.00    +0.000 C 
ATOM      2  C   UNL     1       2.193   9.536  18.383  0.00  0.00    +0.000 A 
ATOM      3  C   UNL     1       1.495   9.247  19.562  0.00  0.00    +0.000 A 
ATOM      4  C   UNL     1       1.576   7.977  20.135  0.00  0.00    +0.000 A 
ATOM      5  C   UNL     1       2.436   7.037  19.581  0.00  0.00    +0.000 A 
ATOM      6  C   UNL     1       2.828   7.199  18.249  0.00  0.00    +0.000 A 
ATOM      7  C   UNL     1       2.818   8.486  17.694  0.00  0.00    +0.000 A 
ENDROOT
BRANCH   6   8
ATOM      8  N   UNL     1       2.705   6.036  17.369  0.00  0.00    +0.000 N 
ATOM      9  C   UNL     1       1.726   5.066  17.927  0.00  0.00    +0.000 C 
ATOM     10  C   UNL     1       2.592   4.129  18.721  0.00  0.00    +0.000 A 
ATOM     11  C   UNL     1       3.881   4.191  18.189  0.00  0.00    +0.000 A 
ATOM     12  C   UNL     1       4.974   3.612  18.812  0.00  0.00    +0.000 A 
ATOM     13  C   UNL     1       4.751   2.939  20.012  0.00  0.00    +0.000 A 
ATOM     14  C   UNL     1       3.454   2.848  20.549  0.00  0.00    +0.000 A 
ATOM     15  C   UNL     1       2.343   3.436  19.904  0.00  0.00    +0.000 A 
ATOM     16  C   UNL     1       3.905   5.291  17.194  0.00  0.00    +0.000 C 
ATOM     17  O   UNL     1       4.897   5.599  16.548  0.00  0.00    +0.000 OA
BRANCH  15  18
ATOM     18  C   UNL     1       0.991   3.355  20.567  0.00  0.00    +0.000 C 
ATOM     19  F   UNL     1       0.404   4.563  20.781  0.00  0.00    +0.000 F 
ATOM     20  F   UNL     1       0.100   2.639  19.826  0.00  0.00    +0.000 F 
ATOM     21  F   UNL     1       1.040   2.743  21.783  0.00  0.00    +0.000 F 
ENDBRANCH  15  18
ENDBRANCH   6   8
BRANCH   4  22
ATOM     22  C   UNL     1       0.584   7.514  21.174  0.00  0.00    +0.000 C 
BRANCH  22  23
ATOM     23  C   UNL     1      -0.532   8.498  21.475  0.00  0.00    +0.000 C 
BRANCH  23  24
ATOM     24  C   UNL     1      -0.218   9.306  22.727  0.00  0.00    +0.000 C 
BRANCH  24  25
ATOM     25  C   UNL     1      -0.115  10.745  22.397  0.00  0.00    +0.000 A 
ATOM     26  N   UNL     1       0.866  11.328  21.741  0.00  0.00    +0.000 NA
ATOM     27  N   UNL     1       0.566  12.663  21.626  0.00  0.00    +0.000 NA
ATOM     28  C   UNL     1      -0.593  12.862  22.210  0.00  0.00    +0.000 A 
ATOM     29  N   UNL     1      -1.065  11.685  22.698  0.00  0.00    +0.000 N 
ATOM     30  C   UNL     1      -2.314  11.478  23.379  0.00  0.00    +0.000 C 
ENDBRANCH  24  25
ENDBRANCH  23  24
ENDBRANCH  22  23
ENDBRANCH   4  22
TORSDOF 6
ENDMDL
MODEL 3
REMARK VINA RESULT:      -7.1     10.614     12.692
REMARK  Name = 
REMARK  8 active torsions:
REMARK  status: ('A' for Active; 'I' for Inactive)
REMARK    1  A    between atoms: C_1  and  C_2
REMARK    2  A    between atoms: C_4  and  C_5
REMARK    3  A    between atoms: C_5  and  C_6
REMARK    4  A    between atoms: C_6  and  C_7
REMARK    5  A    between atoms: C_7  and  C_8
REMARK    6  A    between atoms: N_12  and  C_13
REMARK    7  A    between atoms: C_15  and  N_16
REMARK    8  A    between atoms: C_23  and  C_24
REMARK                            x       y       z     vdW  Elec       q    Type
REMARK                         _______ _______ _______ _____ _____    ______ ____
ROOT
ATOM      1  C   UNL     1       8.350  11.761  22.968  0.00  0.00    +0.000 C 
ATOM      2  C   UNL     1       9.060  11.813  21.646  0.00  0.00    +0.000 A 
ATOM      3  C   UNL     1       8.816  10.826  20.684  0.00  0.00    +0.000 A 
ATOM      4  C   UNL     1       9.533  10.816  19.487  0.00  0.00    +0.000 A 
ATOM      5  C   UNL     1      10.562  11.734  19.306  0.00  0.00    +0.000 A 
ATOM      6  C   UNL     1      10.553  12.901  20.075  0.00  0.00    +0.000 A 
ATOM      7  C   UNL     1       9.896  12.889  21.312  0.00  0.00    +0.000 A 
ENDROOT
BRANCH   6   8
ATOM      8  N   UNL     1      10.731  14.169  19.366  0.00  0.00    +0.000 N 
ATOM      9  C   UNL     1      10.124  15.284  20.139  0.00  0.00    +0.000 C 
ATOM     10  C   UNL     1       8.740  15.381  19.562  0.00  0.00    +0.000 A 
ATOM     11  C   UNL     1       8.780  14.844  18.274  0.00  0.00    +0.000 A 
ATOM     12  C   UNL     1       7.635  14.585  17.537  0.00  0.00    +0.000 A 
ATOM     13  C   UNL     1       6.408  14.893  18.123  0.00  0.00    +0.000 A 
ATOM     14  C   UNL     1       6.353  15.457  19.410  0.00  0.00    +0.000 A 
ATOM     15  C   UNL     1       7.525  15.722  20.153  0.00  0.00    +0.000 A 
ATOM     16  C   UNL     1      10.116  14.227  18.084  0.00  0.00    +0.000 C 
ATOM     17  O   UNL     1      10.465  13.671  17.052  0.00  0.00    +0.000 OA
BRANCH  15  18
ATOM     18  C   UNL     1       7.391  16.269  21.552  0.00  0.00    +0.000 C 
ATOM     19  F   UNL     1       8.154  17.369  21.794  0.00  0.00    +0.000 F 
ATOM     20  F   UNL     1       6.112  16.639  21.837  0.00  0.00    +0.000 F 
ATOM     21  F   UNL     1       7.735  15.358  22.504  0.00  0.00    +0.000 F 
ENDBRANCH  15  18
ENDBRANCH   6   8
BRANCH   4  22
ATOM     22  C   UNL     1       9.071  10.015  18.294  0.00  0.00    +0.000 C 
BRANCH  22  23
ATOM     23  C   UNL     1       8.598   8.609  18.614  0.00  0.00    +0.000 C 
BRANCH  23  24
ATOM     24  C   UNL     1       7.695   8.077  17.510  0.00  0.00    +0.000 C 
BRANCH  24  25
ATOM     25  C   UNL     1       7.284   6.686  17.808  0.00  0.00    +0.000 A 
ATOM     26  N   UNL     1       7.864   5.865  18.657  0.00  0.00    +0.000 NA
ATOM     27  N   UNL     1       7.163   4.685  18.655  0.00  0.00    +0.000 NA
ATOM     28  C   UNL     1       6.170   4.815  17.806  0.00  0.00    +0.000 A 
ATOM     29  N   UNL     1       6.198   6.059  17.259  0.00  0.00    +0.000 N 
ATOM     30  C   UNL     1       5.264   6.600  16.309  0.00  0.00    +0.000 C 
ENDBRANCH  24  25
ENDBRANCH  23  24
ENDBRANCH  22  23
ENDBRANCH   4  22
TORSDOF 6
ENDMDL
MODEL 4
REMARK VINA RESULT:      -6.9      1.917      2.572
REMARK  Name = 
REMARK  8 active torsions:
REMARK  status: ('A' for Active; 'I' for Inactive)
REMARK    1  A    between atoms: C_1  and  C_2
REMARK    2  A    between atoms: C_4  and  C_5
REMARK    3  A    between atoms: C_5  and  C_6
REMARK    4  A    between atoms: C_6  and  C_7
REMARK    5  A    between atoms: C_7  and  C_8
REMARK    6  A    between atoms: N_12  and  C_13
REMARK    7  A    between atoms: C_15  and  N_16
REMARK    8  A    between atoms: C_23  and  C_24
REMARK                            x       y       z     vdW  Elec       q    Type
REMARK                         _______ _______ _______ _____ _____    ______ ____
ROOT
ATOM      1  C   UNL     1      -2.679  10.944  16.928  0.00  0.00    +0.000 C 
ATOM      2  C   UNL     1      -2.571  11.778  18.170  0.00  0.00    +0.000 A 
ATOM      3  C   UNL     1      -3.659  11.869  19.046  0.00  0.00    +0.000 A 
ATOM      4  C   UNL     1      -3.600  12.709  20.159  0.00  0.00    +0.000 A 
ATOM      5  C   UNL     1      -2.492  13.531  20.329  0.00  0.00    +0.000 A 
ATOM      6  C   UNL     1      -1.301  13.180  19.688  0.00  0.00    +0.000 A 
ATOM      7  C   UNL     1      -1.364  12.398  18.527  0.00  0.00    +0.000 A 
ENDROOT
BRANCH   6   8
ATOM      8  N   UNL     1      -0.084  13.165  20.501  0.00  0.00    +0.000 N 
ATOM      9  C   UNL     1       0.929  12.259  19.901  0.00  0.00    +0.000 C 
ATOM     10  C   UNL     1       0.677  10.955  20.606  0.00  0.00    +0.000 A 
ATOM     11  C   UNL     1       0.062  11.246  21.825  0.00  0.00    +0.000 A 
ATOM     12  C   UNL     1      -0.496  10.268  22.631  0.00  0.00    +0.000 A 
ATOM     13  C   UNL     1      -0.418   8.947  22.191  0.00  0.00    +0.000 A 
ATOM     14  C   UNL     1       0.220   8.636  20.976  0.00  0.00    +0.000 A 
ATOM     15  C   UNL     1       0.791   9.639  20.162  0.00  0.00    +0.000 A 
ATOM     16  C   UNL     1      -0.261  12.694  21.832  0.00  0.00    +0.000 C 
ATOM     17  O   UNL     1      -0.807  13.261  22.768  0.00  0.00    +0.000 OA
BRANCH  15  18
ATOM     18  C   UNL     1       1.403   9.243  18.842  0.00  0.00    +0.000 C 
ATOM     19  F   UNL     1       0.539   9.292  17.792  0.00  0.00    +0.000 F 
ATOM     20  F   UNL     1       2.445  10.050  18.498  0.00  0.00    +0.000 F 
ATOM     21  F   UNL     1       1.903   7.976  18.856  0.00  0.00    +0.000 F 
ENDBRANCH  15  18
ENDBRANCH   6   8
BRANCH   4  22
ATOM     22  C   UNL     1      -4.575  12.575  21.304  0.00  0.00    +0.000 C 
BRANCH  22  23
ATOM     23  C   UNL     1      -5.766  13.513  21.241  0.00  0.00    +0.000 C 
BRANCH  23  24
ATOM     24  C   UNL     1      -7.070  12.744  21.407  0.00  0.00    +0.000 C 
BRANCH  24  25
ATOM     25  C   UNL     1      -7.082  11.557  20.522  0.00  0.00    +0.000 A 
ATOM     26  N   UNL     1      -7.053  10.298  20.904  0.00  0.00    +0.000 NA
ATOM     27  N   UNL     1      -7.104   9.511  19.780  0.00  0.00    +0.000 NA
ATOM     28  C   UNL     1      -7.167  10.310  18.739  0.00  0.00    +0.000 A 
ATOM     29  N   UNL     1      -7.169  11.603  19.156  0.00  0.00    +0.000 N 
ATOM     30  C   UNL     1      -7.257  12.772  18.325  0.00  0.00    +0.000 C 
ENDBRANCH  24  25
ENDBRANCH  23  24
ENDBRANCH  22  23
ENDBRANCH   4  22
TORSDOF 6
ENDMDL
MODEL 5
REMARK VINA RESULT:      -6.8      8.156     11.222
REMARK  Name = 
REMARK  8 active torsions:
REMARK  status: ('A' for Active; 'I' for Inactive)
REMARK    1  A    between atoms: C_1  and  C_2
REMARK    2  A    between atoms: C_4  and  C_5
REMARK    3  A    between atoms: C_5  and  C_6
REMARK    4  A    between atoms: C_6  and  C_7
REMARK    5  A    between atoms: C_7  and  C_8
REMARK    6  A    between atoms: N_12  and  C_13
REMARK    7  A    between atoms: C_15  and  N_16
REMARK    8  A    between atoms: C_23  and  C_24
REMARK                            x       y       z     vdW  Elec       q    Type
REMARK                         _______ _______ _______ _____ _____    ______ ____
ROOT
ATOM      1  C   UNL     1       8.117   9.614  17.841  0.00  0.00    +0.000 C 
ATOM      2  C   UNL     1       8.744  10.975  17.933  0.00  0.00    +0.000 A 
ATOM      3  C   UNL     1       7.999  12.110  17.589  0.00  0.00    +0.000 A 
ATOM      4  C   UNL     1       8.597  13.370  17.588  0.00  0.00    +0.000 A 
ATOM      5  C   UNL     1       9.962  13.474  17.831  0.00  0.00    +0.000 A 
ATOM      6  C   UNL     1      10.596  12.430  18.511  0.00  0.00    +0.000 A 
ATOM      7  C   UNL     1      10.036  11.147  18.450  0.00  0.00    +0.000 A 
ENDROOT
BRANCH   6   8
ATOM      8  N   UNL     1      11.448  12.791  19.644  0.00  0.00    +0.000 N 
ATOM      9  C   UNL     1      10.878  12.262  20.910  0.00  0.00    +0.000 C 
ATOM     10  C   UNL     1      10.052  13.411  21.417  0.00  0.00    +0.000 A 
ATOM     11  C   UNL     1      10.572  14.582  20.863  0.00  0.00    +0.000 A 
ATOM     12  C   UNL     1       9.923  15.802  20.953  0.00  0.00    +0.000 A 
ATOM     13  C   UNL     1       8.710  15.839  21.639  0.00  0.00    +0.000 A 
ATOM     14  C   UNL     1       8.185  14.671  22.223  0.00  0.00    +0.000 A 
ATOM     15  C   UNL     1       8.855  13.432  22.131  0.00  0.00    +0.000 A 
ATOM     16  C   UNL     1      11.592  14.191  19.859  0.00  0.00    +0.000 C 
ATOM     17  O   UNL     1      12.235  14.995  19.198  0.00  0.00    +0.000 OA
BRANCH  15  18
ATOM     18  C   UNL     1       8.205  12.207  22.725  0.00  0.00    +0.000 C 
ATOM     19  F   UNL     1       8.332  11.087  21.964  0.00  0.00    +0.000 F 
ATOM     20  F   UNL     1       8.731  11.888  23.940  0.00  0.00    +0.000 F 
ATOM     21  F   UNL     1       6.869  12.372  22.930  0.00  0.00    +0.000 F 
ENDBRANCH  15  18
ENDBRANCH   6   8
BRANCH   4  22
ATOM     22  C   UNL     1       7.774  14.636  17.580  0.00  0.00    +0.000 C 
BRANCH  22  23
ATOM     23  C   UNL     1       6.673  14.688  18.623  0.00  0.00    +0.000 C 
BRANCH  23  24
ATOM     24  C   UNL     1       5.302  14.726  17.961  0.00  0.00    +0.000 C 
BRANCH  24  25
ATOM     25  C   UNL     1       4.425  15.699  18.653  0.00  0.00    +0.000 A 
ATOM     26  N   UNL     1       4.348  16.990  18.411  0.00  0.00    +0.000 NA
ATOM     27  N   UNL     1       3.401  17.523  19.250  0.00  0.00    +0.000 NA
ATOM     28  C   UNL     1       2.920  16.544  19.981  0.00  0.00    +0.000 A 
ATOM     29  N   UNL     1       3.524  15.377  19.632  0.00  0.00    +0.000 N 
ATOM     30  C   UNL     1       3.254  14.075  20.178  0.00  0.00    +0.000 C 
ENDBRANCH  24  25
ENDBRANCH  23  24
ENDBRANCH  22  23
ENDBRANCH   4  22
TORSDOF 6
ENDMDL
MODEL 6
REMARK VINA RESULT:      -6.8      4.669      8.687
REMARK  Name = 
REMARK  8 active torsions:
REMARK  status: ('A' for Active; 'I' for Inactive)
REMARK    1  A    between atoms: C_1  and  C_2
REMARK    2  A    between atoms: C_4  and  C_5
REMARK    3  A    between atoms: C_5  and  C_6
REMARK    4  A    between atoms: C_6  and  C_7
REMARK    5  A    between atoms: C_7  and  C_8
REMARK    6  A    between atoms: N_12  and  C_13
REMARK    7  A    between atoms: C_15  and  N_16
REMARK    8  A    between atoms: C_23  and  C_24
REMARK                            x       y       z     vdW  Elec       q    Type
REMARK                         _______ _______ _______ _____ _____    ______ ____
ROOT
ATOM      1  C   UNL     1      -0.107   9.445  23.229  0.00  0.00    +0.000 C 
ATOM      2  C   UNL     1       0.521   9.175  21.893  0.00  0.00    +0.000 A 
ATOM      3  C   UNL     1       0.999   7.894  21.593  0.00  0.00    +0.000 A 
ATOM      4  C   UNL     1       1.662   7.653  20.389  0.00  0.00    +0.000 A 
ATOM      5  C   UNL     1       1.933   8.719  19.540  0.00  0.00    +0.000 A 
ATOM      6  C   UNL     1       1.161   9.877  19.661  0.00  0.00    +0.000 A 
ATOM      7  C   UNL     1       0.555  10.159  20.894  0.00  0.00    +0.000 A 
ENDROOT
BRANCH   6   8
ATOM      8  N   UNL     1       0.585  10.429  18.434  0.00  0.00    +0.000 N 
ATOM      9  C   UNL     1       1.330  11.644  18.013  0.00  0.00    +0.000 C 
ATOM     10  C   UNL     1       0.548  12.759  18.648  0.00  0.00    +0.000 A 
ATOM     11  C   UNL     1      -0.753  12.296  18.857  0.00  0.00    +0.000 A 
ATOM     12  C   UNL     1      -1.681  12.994  19.613  0.00  0.00    +0.000 A 
ATOM     13  C   UNL     1      -1.279  14.208  20.169  0.00  0.00    +0.000 A 
ATOM     14  C   UNL     1       0.022  14.698  19.948  0.00  0.00    +0.000 A 
ATOM     15  C   UNL     1       0.960  13.983  19.171  0.00  0.00    +0.000 A 
ATOM     16  C   UNL     1      -0.771  10.846  18.546  0.00  0.00    +0.000 C 
ATOM     17  O   UNL     1      -1.772  10.147  18.630  0.00  0.00    +0.000 OA
BRANCH  15  18
ATOM     18  C   UNL     1       2.356  14.535  19.027  0.00  0.00    +0.000 C 
ATOM     19  F   UNL     1       2.510  15.792  19.524  0.00  0.00    +0.000 F 
ATOM     20  F   UNL     1       3.278  13.769  19.672  0.00  0.00    +0.000 F 
ATOM     21  F   UNL     1       2.764  14.594  17.728  0.00  0.00    +0.000 F 
ENDBRANCH  15  18
ENDBRANCH   6   8
BRANCH   4  22
ATOM     22  C   UNL     1       1.870   6.251  19.868  0.00  0.00    +0.000 C 
BRANCH  22  23
ATOM     23  C   UNL     1       1.744   5.157  20.911  0.00  0.00    +0.000 C 
BRANCH  23  24
ATOM     24  C   UNL     1       1.055   3.930  20.329  0.00  0.00    +0.000 C 
BRANCH  24  25
ATOM     25  C   UNL     1       1.728   3.507  19.080  0.00  0.00    +0.000 A 
ATOM     26  N   UNL     1       1.287   3.691  17.854  0.00  0.00    +0.000 NA
ATOM     27  N   UNL     1       2.217   3.175  16.985  0.00  0.00    +0.000 NA
ATOM     28  C   UNL     1       3.205   2.692  17.702  0.00  0.00    +0.000 A 
ATOM     29  N   UNL     1       2.949   2.890  19.022  0.00  0.00    +0.000 N 
ATOM     30  C   UNL     1       3.800   2.530  20.124  0.00  0.00    +0.000 C 
ENDBRANCH  24  25
ENDBRANCH  23  24
ENDBRANCH  22  23
ENDBRANCH   4  22
TORSDOF 6
ENDMDL
MODEL 7
REMARK VINA RESULT:      -6.7      4.545      8.311
REMARK  Name = 
REMARK  8 active torsions:
REMARK  status: ('A' for Active; 'I' for Inactive)
REMARK    1  A    between atoms: C_1  and  C_2
REMARK    2  A    between atoms: C_4  and  C_5
REMARK    3  A    between atoms: C_5  and  C_6
REMARK    4  A    between atoms: C_6  and  C_7
REMARK    5  A    between atoms: C_7  and  C_8
REMARK    6  A    between atoms: N_12  and  C_13
REMARK    7  A    between atoms: C_15  and  N_16
REMARK    8  A    between atoms: C_23  and  C_24
REMARK                            x       y       z     vdW  Elec       q    Type
REMARK                         _______ _______ _______ _____ _____    ______ ____
ROOT
ATOM      1  C   UNL     1       0.217   9.234  22.696  0.00  0.00    +0.000 C 
ATOM      2  C   UNL     1       0.619   9.474  21.270  0.00  0.00    +0.000 A 
ATOM      3  C   UNL     1       1.276   8.467  20.552  0.00  0.00    +0.000 A 
ATOM      4  C   UNL     1       1.730   8.709  19.255  0.00  0.00    +0.000 A 
ATOM      5  C   UNL     1       1.616   9.989  18.724  0.00  0.00    +0.000 A 
ATOM      6  C   UNL     1       0.666  10.853  19.275  0.00  0.00    +0.000 A 
ATOM      7  C   UNL     1       0.264  10.656  20.604  0.00  0.00    +0.000 A 
ENDROOT
BRANCH   6   8
ATOM      8  N   UNL     1      -0.232  11.540  18.346  0.00  0.00    +0.000 N 
ATOM      9  C   UNL     1       0.009  13.006  18.380  0.00  0.00    +0.000 C 
ATOM     10  C   UNL     1      -0.988  13.490  19.395  0.00  0.00    +0.000 A 
ATOM     11  C   UNL     1      -2.024  12.555  19.449  0.00  0.00    +0.000 A 
ATOM     12  C   UNL     1      -3.004  12.583  20.427  0.00  0.00    +0.000 A 
ATOM     13  C   UNL     1      -2.938  13.601  21.378  0.00  0.00    +0.000 A 
ATOM     14  C   UNL     1      -1.914  14.564  21.322  0.00  0.00    +0.000 A 
ATOM     15  C   UNL     1      -0.921  14.532  20.318  0.00  0.00    +0.000 A 
ATOM     16  C   UNL     1      -1.618  11.386  18.632  0.00  0.00    +0.000 C 
ATOM     17  O   UNL     1      -2.315  10.393  18.477  0.00  0.00    +0.000 OA
BRANCH  15  18
ATOM     18  C   UNL     1       0.184  15.558  20.355  0.00  0.00    +0.000 C 
ATOM     19  F   UNL     1       1.416  15.037  20.605  0.00  0.00    +0.000 F 
ATOM     20  F   UNL     1       0.300  16.228  19.176  0.00  0.00    +0.000 F 
ATOM     21  F   UNL     1      -0.019  16.511  21.307  0.00  0.00    +0.000 F 
ENDBRANCH  15  18
ENDBRANCH   6   8
BRANCH   4  22
ATOM     22  C   UNL     1       2.110   7.581  18.327  0.00  0.00    +0.000 C 
BRANCH  22  23
ATOM     23  C   UNL     1       2.869   6.443  18.983  0.00  0.00    +0.000 C 
BRANCH  23  24
ATOM     24  C   UNL     1       2.251   5.099  18.620  0.00  0.00    +0.000 C 
BRANCH  24  25
ATOM     25  C   UNL     1       2.079   4.268  19.834  0.00  0.00    +0.000 A 
ATOM     26  N   UNL     1       2.461   4.579  21.054  0.00  0.00    +0.000 NA
ATOM     27  N   UNL     1       2.095   3.552  21.889  0.00  0.00    +0.000 NA
ATOM     28  C   UNL     1       1.495   2.641  21.158  0.00  0.00    +0.000 A 
ATOM     29  N   UNL     1       1.450   3.052  19.863  0.00  0.00    +0.000 N 
ATOM     30  C   UNL     1       0.852   2.351  18.761  0.00  0.00    +0.000 C 
ENDBRANCH  24  25
ENDBRANCH  23  24
ENDBRANCH  22  23
ENDBRANCH   4  22
TORSDOF 6
ENDMDL
MODEL 8
REMARK VINA RESULT:      -6.7      4.733      8.704
REMARK  Name = 
REMARK  8 active torsions:
REMARK  status: ('A' for Active; 'I' for Inactive)
REMARK    1  A    between atoms: C_1  and  C_2
REMARK    2  A    between atoms: C_4  and  C_5
REMARK    3  A    between atoms: C_5  and  C_6
REMARK    4  A    between atoms: C_6  and  C_7
REMARK    5  A    between atoms: C_7  and  C_8
REMARK    6  A    between atoms: N_12  and  C_13
REMARK    7  A    between atoms: C_15  and  N_16
REMARK    8  A    between atoms: C_23  and  C_24
REMARK                            x       y       z     vdW  Elec       q    Type
REMARK                         _______ _______ _______ _____ _____    ______ ____
ROOT
ATOM      1  C   UNL     1      -0.085   8.907  22.477  0.00  0.00    +0.000 C 
ATOM      2  C   UNL     1       0.402   9.298  21.113  0.00  0.00    +0.000 A 
ATOM      3  C   UNL     1       1.210   8.418  20.382  0.00  0.00    +0.000 A 
ATOM      4  C   UNL     1       1.740   8.806  19.151  0.00  0.00    +0.000 A 
ATOM      5  C   UNL     1       1.542  10.108  18.707  0.00  0.00    +0.000 A 
ATOM      6  C   UNL     1       0.471  10.834  19.237  0.00  0.00    +0.000 A 
ATOM      7  C   UNL     1      -0.013  10.493  20.507  0.00  0.00    +0.000 A 
ENDROOT
BRANCH   6   8
ATOM      8  N   UNL     1      -0.413  11.509  18.286  0.00  0.00    +0.000 N 
ATOM      9  C   UNL     1      -0.185  12.977  18.318  0.00  0.00    +0.000 C 
ATOM     10  C   UNL     1      -1.207  13.457  19.311  0.00  0.00    +0.000 A 
ATOM     11  C   UNL     1      -2.236  12.514  19.348  0.00  0.00    +0.000 A 
ATOM     12  C   UNL     1      -3.236  12.538  20.306  0.00  0.00    +0.000 A 
ATOM     13  C   UNL     1      -3.198  13.560  21.253  0.00  0.00    +0.000 A 
ATOM     14  C   UNL     1      -2.181  14.532  21.214  0.00  0.00    +0.000 A 
ATOM     15  C   UNL     1      -1.168  14.504  20.230  0.00  0.00    +0.000 A 
ATOM     16  C   UNL     1      -1.803  11.344  18.545  0.00  0.00    +0.000 C 
ATOM     17  O   UNL     1      -2.489  10.344  18.380  0.00  0.00    +0.000 OA
BRANCH  15  18
ATOM     18  C   UNL     1      -0.072  15.539  20.284  0.00  0.00    +0.000 C 
ATOM     19  F   UNL     1       0.135  16.190  19.108  0.00  0.00    +0.000 F 
ATOM     20  F   UNL     1      -0.332  16.511  21.202  0.00  0.00    +0.000 F 
ATOM     21  F   UNL     1       1.132  15.008  20.635  0.00  0.00    +0.000 F 
ENDBRANCH  15  18
ENDBRANCH   6   8
BRANCH   4  22
ATOM     22  C   UNL     1       2.301   7.797  18.178  0.00  0.00    +0.000 C 
BRANCH  22  23
ATOM     23  C   UNL     1       2.884   6.551  18.817  0.00  0.00    +0.000 C 
BRANCH  23  24
ATOM     24  C   UNL     1       3.170   5.486  17.767  0.00  0.00    +0.000 C 
BRANCH  24  25
ATOM     25  C   UNL     1       2.463   4.229  18.103  0.00  0.00    +0.000 A 
ATOM     26  N   UNL     1       1.249   3.891  17.725  0.00  0.00    +0.000 NA
ATOM     27  N   UNL     1       0.980   2.641  18.227  0.00  0.00    +0.000 NA
ATOM     28  C   UNL     1       2.038   2.246  18.896  0.00  0.00    +0.000 A 
ATOM     29  N   UNL     1       3.000   3.204  18.836  0.00  0.00    +0.000 N 
ATOM     30  C   UNL     1       4.314   3.140  19.416  0.00  0.00    +0.000 C 
ENDBRANCH  24  25
ENDBRANCH  23  24
ENDBRANCH  22  23
ENDBRANCH   4  22
TORSDOF 6
ENDMDL
MODEL 9
REMARK VINA RESULT:      -6.6      8.080     11.115
REMARK  Name = 
REMARK  8 active torsions:
REMARK  status: ('A' for Active; 'I' for Inactive)
REMARK    1  A    between atoms: C_1  and  C_2
REMARK    2  A    between atoms: C_4  and  C_5
REMARK    3  A    between atoms: C_5  and  C_6
REMARK    4  A    between atoms: C_6  and  C_7
REMARK    5  A    between atoms: C_7  and  C_8
REMARK    6  A    between atoms: N_12  and  C_13
REMARK    7  A    between atoms: C_15  and  N_16
REMARK    8  A    between atoms: C_23  and  C_24
REMARK                            x       y       z     vdW  Elec       q    Type
REMARK                         _______ _______ _______ _____ _____    ______ ____
ROOT
ATOM      1  C   UNL     1       8.202   9.400  17.885  0.00  0.00    +0.000 C 
ATOM      2  C   UNL     1       8.773  10.785  17.969  0.00  0.00    +0.000 A 
ATOM      3  C   UNL     1       7.966  11.891  17.674  0.00  0.00    +0.000 A 
ATOM      4  C   UNL     1       8.508  13.176  17.665  0.00  0.00    +0.000 A 
ATOM      5  C   UNL     1       9.876  13.336  17.849  0.00  0.00    +0.000 A 
ATOM      6  C   UNL     1      10.584  12.313  18.486  0.00  0.00    +0.000 A 
ATOM      7  C   UNL     1      10.078  11.007  18.432  0.00  0.00    +0.000 A 
ENDROOT
BRANCH   6   8
ATOM      8  N   UNL     1      11.469  12.697  19.586  0.00  0.00    +0.000 N 
ATOM      9  C   UNL     1      10.902  12.254  20.886  0.00  0.00    +0.000 C 
ATOM     10  C   UNL     1      10.129  13.458  21.347  0.00  0.00    +0.000 A 
ATOM     11  C   UNL     1      10.684  14.579  20.726  0.00  0.00    +0.000 A 
ATOM     12  C   UNL     1      10.084  15.827  20.764  0.00  0.00    +0.000 A 
ATOM     13  C   UNL     1       8.885  15.945  21.466  0.00  0.00    +0.000 A 
ATOM     14  C   UNL     1       8.326  14.830  22.117  0.00  0.00    +0.000 A 
ATOM     15  C   UNL     1       8.947  13.562  22.077  0.00  0.00    +0.000 A 
ATOM     16  C   UNL     1      11.671  14.099  19.728  0.00  0.00    +0.000 C 
ATOM     17  O   UNL     1      12.332  14.843  19.017  0.00  0.00    +0.000 OA
BRANCH  15  18
ATOM     18  C   UNL     1       8.261  12.395  22.743  0.00  0.00    +0.000 C 
ATOM     19  F   UNL     1       8.829  12.016  23.920  0.00  0.00    +0.000 F 
ATOM     20  F   UNL     1       6.958  12.665  23.033  0.00  0.00    +0.000 F 
ATOM     21  F   UNL     1       8.245  11.281  21.959  0.00  0.00    +0.000 F 
ENDBRANCH  15  18
ENDBRANCH   6   8
BRANCH   4  22
ATOM     22  C   UNL     1       7.632  14.405  17.711  0.00  0.00    +0.000 C 
BRANCH  22  23
ATOM     23  C   UNL     1       6.154  14.127  17.917  0.00  0.00    +0.000 C 
BRANCH  23  24
ATOM     24  C   UNL     1       5.491  15.265  18.681  0.00  0.00    +0.000 C 
BRANCH  24  25
ATOM     25  C   UNL     1       4.620  14.727  19.751  0.00  0.00    +0.000 A 
ATOM     26  N   UNL     1       4.947  14.565  21.015  0.00  0.00    +0.000 NA
ATOM     27  N   UNL     1       3.852  14.065  21.676  0.00  0.00    +0.000 NA
ATOM     28  C   UNL     1       2.882  13.939  20.800  0.00  0.00    +0.000 A 
ATOM     29  N   UNL     1       3.314  14.354  19.580  0.00  0.00    +0.000 N 
ATOM     30  C   UNL     1       2.544  14.400  18.367  0.00  0.00    +0.000 C 
ENDBRANCH  24  25
ENDBRANCH  23  24
ENDBRANCH  22  23
ENDBRANCH   4  22
TORSDOF 6
ENDMDL
