MODEL 1
REMARK VINA RESULT:      -9.1      0.000      0.000
REMARK  Name = 
REMARK  7 active torsions:
REMARK  status: ('A' for Active; 'I' for Inactive)
REMARK    1  A    between atoms: C_1  and  C_2
REMARK    2  A    between atoms: C_5  and  C_6
REMARK    3  A    between atoms: C_6  and  N_7
REMARK    4  A    between atoms: C_6  and  C_21
REMARK    5  A    between atoms: C_8  and  C_10
REMARK    6  A    between atoms: C_13  and  C_14
REMARK    7  A    between atoms: C_28  and  C_29
REMARK                            x       y       z     vdW  Elec       q    Type
REMARK                         _______ _______ _______ _____ _____    ______ ____
ROOT
ATOM      1  N   UNL     1       2.471   7.236  19.119  0.00  0.00    +0.000 N 
ATOM      2  C   UNL     1       1.867   7.961  20.115  0.00  0.00    +0.000 C 
ATOM      3  O   UNL     1       1.932   7.666  21.303  0.00  0.00    +0.000 OA
ATOM      4  H   UNL     1       2.344   7.526  18.154  0.00  0.00    +0.000 HD
ENDROOT
BRANCH   2   5
ATOM      5  C   UNL     1       1.077   9.143  19.646  0.00  0.00    +0.000 A 
ATOM      6  C   UNL     1       0.148   9.674  20.464  0.00  0.00    +0.000 A 
ATOM      7  C   UNL     1      -0.715  10.757  20.037  0.00  0.00    +0.000 A 
ATOM      8  C   UNL     1      -0.623  11.251  18.789  0.00  0.00    +0.000 A 
ATOM      9  N   UNL     1       0.357  10.745  17.953  0.00  0.00    +0.000 N 
ATOM     10  C   UNL     1       1.241   9.752  18.293  0.00  0.00    +0.000 A 
ATOM     11  O   UNL     1       2.113   9.391  17.506  0.00  0.00    +0.000 OA
ATOM     12  H   UNL     1       0.456  11.128  17.018  0.00  0.00    +0.000 HD
BRANCH   8  13
ATOM     13  C   UNL     1      -1.548  12.316  18.244  0.00  0.00    +0.000 C 
ATOM     14  F   UNL     1      -2.279  11.848  17.199  0.00  0.00    +0.000 F 
ATOM     15  F   UNL     1      -2.431  12.746  19.181  0.00  0.00    +0.000 F 
ATOM     16  F   UNL     1      -0.872  13.403  17.800  0.00  0.00    +0.000 F 
ENDBRANCH   8  13
ENDBRANCH   2   5
BRANCH   1  17
ATOM     17  C   UNL     1       3.302   6.075  19.358  0.00  0.00    +0.000 C 
BRANCH  17  22
ATOM     18  C   UNL     1       7.373   5.159  15.234  0.00  0.00    +0.000 C 
ATOM     19  C   UNL     1       6.343   5.408  16.301  0.00  0.00    +0.000 A 
ATOM     20  C   UNL     1       5.122   6.005  15.957  0.00  0.00    +0.000 A 
ATOM     21  C   UNL     1       4.140   6.246  16.923  0.00  0.00    +0.000 A 
ATOM     22  C   UNL     1       4.349   5.879  18.261  0.00  0.00    +0.000 A 
ATOM     23  C   UNL     1       5.572   5.274  18.598  0.00  0.00    +0.000 A 
ATOM     24  C   UNL     1       6.582   5.064  17.644  0.00  0.00    +0.000 A 
ATOM     25  C   UNL     1       7.901   4.498  18.091  0.00  0.00    +0.000 C 
ENDBRANCH  17  22
BRANCH  17  26
ATOM     26  C   UNL     1       2.434   4.849  19.636  0.00  0.00    +0.000 A 
ATOM     27  C   UNL     1       2.345   4.364  20.954  0.00  0.00    +0.000 A 
ATOM     28  C   UNL     1       1.610   3.214  21.252  0.00  0.00    +0.000 A 
ATOM     29  C   UNL     1       0.935   2.537  20.239  0.00  0.00    +0.000 A 
ATOM     30  C   UNL     1       0.980   3.021  18.934  0.00  0.00    +0.000 A 
ATOM     31  C   UNL     1       1.715   4.173  18.635  0.00  0.00    +0.000 A 
ENDBRANCH  17  26
ENDBRANCH   1  17
TORSDOF 5
ENDMDL
MODEL 2
REMARK VINA RESULT:      -9.1      0.161      1.134
REMARK  Name = 
REMARK  7 active torsions:
REMARK  status: ('A' for Active; 'I' for Inactive)
REMARK    1  A    between atoms: C_1  and  C_2
REMARK    2  A    between atoms: C_5  and  C_6
REMARK    3  A    between atoms: C_6  and  N_7
REMARK    4  A    between atoms: C_6  and  C_21
REMARK    5  A    between atoms: C_8  and  C_10
REMARK    6  A    between atoms: C_13  and  C_14
REMARK    7  A    between atoms: C_28  and  C_29
REMARK                            x       y       z     vdW  Elec       q    Type
REMARK                         _______ _______ _______ _____ _____    ______ ____
ROOT
ATOM      1  N   UNL     1       2.480   7.193  19.052  0.00  0.00    +0.000 N 
ATOM      2  C   UNL     1       1.897   7.922  20.059  0.00  0.00    +0.000 C 
ATOM      3  O   UNL     1       1.987   7.631  21.246  0.00  0.00    +0.000 OA
ATOM      4  H   UNL     1       2.332   7.479  18.089  0.00  0.00    +0.000 HD
ENDROOT
BRANCH   2   5
ATOM      5  C   UNL     1       1.099   9.102  19.602  0.00  0.00    +0.000 A 
ATOM      6  C   UNL     1       0.186   9.636  20.437  0.00  0.00    +0.000 A 
ATOM      7  C   UNL     1      -0.686  10.718  20.023  0.00  0.00    +0.000 A 
ATOM      8  C   UNL     1      -0.618  11.208  18.773  0.00  0.00    +0.000 A 
ATOM      9  N   UNL     1       0.345  10.700  17.918  0.00  0.00    +0.000 N 
ATOM     10  C   UNL     1       1.236   9.708  18.244  0.00  0.00    +0.000 A 
ATOM     11  O   UNL     1       2.092   9.344  17.442  0.00  0.00    +0.000 OA
ATOM     12  H   UNL     1       0.426  11.080  16.981  0.00  0.00    +0.000 HD
BRANCH   8  13
ATOM     13  C   UNL     1      -1.553  12.272  18.243  0.00  0.00    +0.000 C 
ATOM     14  F   UNL     1      -2.475  12.629  19.176  0.00  0.00    +0.000 F 
ATOM     15  F   UNL     1      -0.887  13.402  17.895  0.00  0.00    +0.000 F 
ATOM     16  F   UNL     1      -2.236  11.856  17.150  0.00  0.00    +0.000 F 
ENDBRANCH   8  13
ENDBRANCH   2   5
BRANCH   1  17
ATOM     17  C   UNL     1       3.315   6.031  19.279  0.00  0.00    +0.000 C 
BRANCH  17  22
ATOM     18  C   UNL     1       7.424   5.208  15.173  0.00  0.00    +0.000 C 
ATOM     19  C   UNL     1       6.384   5.433  16.236  0.00  0.00    +0.000 A 
ATOM     20  C   UNL     1       5.169   6.043  15.896  0.00  0.00    +0.000 A 
ATOM     21  C   UNL     1       4.178   6.262  16.857  0.00  0.00    +0.000 A 
ATOM     22  C   UNL     1       4.372   5.860  18.187  0.00  0.00    +0.000 A 
ATOM     23  C   UNL     1       5.590   5.243  18.520  0.00  0.00    +0.000 A 
ATOM     24  C   UNL     1       6.608   5.054  17.572  0.00  0.00    +0.000 A 
ATOM     25  C   UNL     1       7.922   4.473  18.017  0.00  0.00    +0.000 C 
ENDBRANCH  17  22
BRANCH  17  26
ATOM     26  C   UNL     1       2.451   4.797  19.527  0.00  0.00    +0.000 A 
ATOM     27  C   UNL     1       1.923   4.103  18.422  0.00  0.00    +0.000 A 
ATOM     28  C   UNL     1       1.083   3.000  18.597  0.00  0.00    +0.000 A 
ATOM     29  C   UNL     1       0.767   2.562  19.880  0.00  0.00    +0.000 A 
ATOM     30  C   UNL     1       1.308   3.212  20.986  0.00  0.00    +0.000 A 
ATOM     31  C   UNL     1       2.151   4.314  20.813  0.00  0.00    +0.000 A 
ENDBRANCH  17  26
ENDBRANCH   1  17
TORSDOF 5
ENDMDL
MODEL 3
REMARK VINA RESULT:      -9.0      0.731      1.039
REMARK  Name = 
REMARK  7 active torsions:
REMARK  status: ('A' for Active; 'I' for Inactive)
REMARK    1  A    between atoms: C_1  and  C_2
REMARK    2  A    between atoms: C_5  and  C_6
REMARK    3  A    between atoms: C_6  and  N_7
REMARK    4  A    between atoms: C_6  and  C_21
REMARK    5  A    between atoms: C_8  and  C_10
REMARK    6  A    between atoms: C_13  and  C_14
REMARK    7  A    between atoms: C_28  and  C_29
REMARK                            x       y       z     vdW  Elec       q    Type
REMARK                         _______ _______ _______ _____ _____    ______ ____
ROOT
ATOM      1  N   UNL     1       2.434   7.069  19.134  0.00  0.00    +0.000 N 
ATOM      2  C   UNL     1       1.881   7.865  20.106  0.00  0.00    +0.000 C 
ATOM      3  O   UNL     1       2.006   7.653  21.307  0.00  0.00    +0.000 OA
ATOM      4  H   UNL     1       2.258   7.291  18.159  0.00  0.00    +0.000 HD
ENDROOT
BRANCH   2   5
ATOM      5  C   UNL     1       1.070   9.014  19.595  0.00  0.00    +0.000 A 
ATOM      6  C   UNL     1       0.132   9.559  20.395  0.00  0.00    +0.000 A 
ATOM      7  C   UNL     1      -0.751  10.609  19.929  0.00  0.00    +0.000 A 
ATOM      8  C   UNL     1      -0.669  11.058  18.664  0.00  0.00    +0.000 A 
ATOM      9  N   UNL     1       0.319  10.539  17.844  0.00  0.00    +0.000 N 
ATOM     10  C   UNL     1       1.221   9.575  18.220  0.00  0.00    +0.000 A 
ATOM     11  O   UNL     1       2.098   9.200  17.446  0.00  0.00    +0.000 OA
ATOM     12  H   UNL     1       0.410  10.888  16.896  0.00  0.00    +0.000 HD
BRANCH   8  13
ATOM     13  C   UNL     1      -1.614  12.086  18.081  0.00  0.00    +0.000 C 
ATOM     14  F   UNL     1      -2.636  12.357  18.934  0.00  0.00    +0.000 F 
ATOM     15  F   UNL     1      -0.987  13.262  17.831  0.00  0.00    +0.000 F 
ATOM     16  F   UNL     1      -2.168  11.670  16.916  0.00  0.00    +0.000 F 
ENDBRANCH   8  13
ENDBRANCH   2   5
BRANCH   1  17
ATOM     17  C   UNL     1       3.275   5.923  19.413  0.00  0.00    +0.000 C 
BRANCH  17  22
ATOM     18  C   UNL     1       7.084   4.777  15.102  0.00  0.00    +0.000 C 
ATOM     19  C   UNL     1       6.104   5.091  16.198  0.00  0.00    +0.000 A 
ATOM     20  C   UNL     1       4.915   4.355  16.294  0.00  0.00    +0.000 A 
ATOM     21  C   UNL     1       3.985   4.616  17.304  0.00  0.00    +0.000 A 
ATOM     22  C   UNL     1       4.229   5.614  18.259  0.00  0.00    +0.000 A 
ATOM     23  C   UNL     1       5.426   6.344  18.162  0.00  0.00    +0.000 A 
ATOM     24  C   UNL     1       6.349   6.118  17.128  0.00  0.00    +0.000 A 
ATOM     25  C   UNL     1       7.565   6.998  17.029  0.00  0.00    +0.000 C 
ENDBRANCH  17  22
BRANCH  17  26
ATOM     26  C   UNL     1       2.425   4.739  19.871  0.00  0.00    +0.000 A 
ATOM     27  C   UNL     1       2.625   4.219  21.164  0.00  0.00    +0.000 A 
ATOM     28  C   UNL     1       1.912   3.103  21.610  0.00  0.00    +0.000 A 
ATOM     29  C   UNL     1       0.975   2.497  20.779  0.00  0.00    +0.000 A 
ATOM     30  C   UNL     1       0.736   3.018  19.510  0.00  0.00    +0.000 A 
ATOM     31  C   UNL     1       1.447   4.136  19.062  0.00  0.00    +0.000 A 
ENDBRANCH  17  26
ENDBRANCH   1  17
TORSDOF 5
ENDMDL
MODEL 4
REMARK VINA RESULT:      -8.9      0.505      1.316
REMARK  Name = 
REMARK  7 active torsions:
REMARK  status: ('A' for Active; 'I' for Inactive)
REMARK    1  A    between atoms: C_1  and  C_2
REMARK    2  A    between atoms: C_5  and  C_6
REMARK    3  A    between atoms: C_6  and  N_7
REMARK    4  A    between atoms: C_6  and  C_21
REMARK    5  A    between atoms: C_8  and  C_10
REMARK    6  A    between atoms: C_13  and  C_14
REMARK    7  A    between atoms: C_28  and  C_29
REMARK                            x       y       z     vdW  Elec       q    Type
REMARK                         _______ _______ _______ _____ _____    ______ ____
ROOT
ATOM      1  N   UNL     1       2.418   7.046  19.335  0.00  0.00    +0.000 N 
ATOM      2  C   UNL     1       1.849   7.901  20.245  0.00  0.00    +0.000 C 
ATOM      3  O   UNL     1       1.949   7.763  21.459  0.00  0.00    +0.000 OA
ATOM      4  H   UNL     1       2.262   7.209  18.344  0.00  0.00    +0.000 HD
ENDROOT
BRANCH   2   5
ATOM      5  C   UNL     1       1.054   9.020  19.649  0.00  0.00    +0.000 A 
ATOM      6  C   UNL     1       0.136   9.647  20.411  0.00  0.00    +0.000 A 
ATOM      7  C   UNL     1      -0.733  10.673  19.869  0.00  0.00    +0.000 A 
ATOM      8  C   UNL     1      -0.658  11.014  18.570  0.00  0.00    +0.000 A 
ATOM      9  N   UNL     1       0.311  10.410  17.787  0.00  0.00    +0.000 N 
ATOM     10  C   UNL     1       1.199   9.463  18.231  0.00  0.00    +0.000 A 
ATOM     11  O   UNL     1       2.060   9.009  17.481  0.00  0.00    +0.000 OA
ATOM     12  H   UNL     1       0.397  10.678  16.811  0.00  0.00    +0.000 HD
BRANCH   8  13
ATOM     13  C   UNL     1      -1.590  12.008  17.914  0.00  0.00    +0.000 C 
ATOM     14  F   UNL     1      -1.985  11.580  16.686  0.00  0.00    +0.000 F 
ATOM     15  F   UNL     1      -2.716  12.202  18.645  0.00  0.00    +0.000 F 
ATOM     16  F   UNL     1      -1.008  13.220  17.744  0.00  0.00    +0.000 F 
ENDBRANCH   8  13
ENDBRANCH   2   5
BRANCH   1  17
ATOM     17  C   UNL     1       3.247   5.916  19.699  0.00  0.00    +0.000 C 
BRANCH  17  22
ATOM     18  C   UNL     1       7.437   5.081  15.678  0.00  0.00    +0.000 C 
ATOM     19  C   UNL     1       6.349   5.285  16.696  0.00  0.00    +0.000 A 
ATOM     20  C   UNL     1       6.443   4.656  17.945  0.00  0.00    +0.000 A 
ATOM     21  C   UNL     1       5.452   4.828  18.916  0.00  0.00    +0.000 A 
ATOM     22  C   UNL     1       4.345   5.651  18.668  0.00  0.00    +0.000 A 
ATOM     23  C   UNL     1       4.258   6.285  17.416  0.00  0.00    +0.000 A 
ATOM     24  C   UNL     1       5.227   6.088  16.418  0.00  0.00    +0.000 A 
ATOM     25  C   UNL     1       5.025   6.722  15.069  0.00  0.00    +0.000 C 
ENDBRANCH  17  22
BRANCH  17  26
ATOM     26  C   UNL     1       2.379   4.704  20.031  0.00  0.00    +0.000 A 
ATOM     27  C   UNL     1       2.412   4.182  21.338  0.00  0.00    +0.000 A 
ATOM     28  C   UNL     1       1.680   3.042  21.678  0.00  0.00    +0.000 A 
ATOM     29  C   UNL     1       0.887   2.413  20.722  0.00  0.00    +0.000 A 
ATOM     30  C   UNL     1       0.811   2.935  19.433  0.00  0.00    +0.000 A 
ATOM     31  C   UNL     1       1.543   4.076  19.092  0.00  0.00    +0.000 A 
ENDBRANCH  17  26
ENDBRANCH   1  17
TORSDOF 5
ENDMDL
MODEL 5
REMARK VINA RESULT:      -8.8      0.705      1.388
REMARK  Name = 
REMARK  7 active torsions:
REMARK  status: ('A' for Active; 'I' for Inactive)
REMARK    1  A    between atoms: C_1  and  C_2
REMARK    2  A    between atoms: C_5  and  C_6
REMARK    3  A    between atoms: C_6  and  N_7
REMARK    4  A    between atoms: C_6  and  C_21
REMARK    5  A    between atoms: C_8  and  C_10
REMARK    6  A    between atoms: C_13  and  C_14
REMARK    7  A    between atoms: C_28  and  C_29
REMARK                            x       y       z     vdW  Elec       q    Type
REMARK                         _______ _______ _______ _____ _____    ______ ____
ROOT
ATOM      1  N   UNL     1       2.406   7.029  19.074  0.00  0.00    +0.000 N 
ATOM      2  C   UNL     1       1.898   7.837  20.061  0.00  0.00    +0.000 C 
ATOM      3  O   UNL     1       2.065   7.632  21.257  0.00  0.00    +0.000 OA
ATOM      4  H   UNL     1       2.197   7.247  18.105  0.00  0.00    +0.000 HD
ENDROOT
BRANCH   2   5
ATOM      5  C   UNL     1       1.081   8.992  19.572  0.00  0.00    +0.000 A 
ATOM      6  C   UNL     1       0.111   9.488  20.365  0.00  0.00    +0.000 A 
ATOM      7  C   UNL     1      -0.778  10.541  19.915  0.00  0.00    +0.000 A 
ATOM      8  C   UNL     1      -0.668  11.042  18.672  0.00  0.00    +0.000 A 
ATOM      9  N   UNL     1       0.353  10.574  17.862  0.00  0.00    +0.000 N 
ATOM     10  C   UNL     1       1.262   9.611  18.226  0.00  0.00    +0.000 A 
ATOM     11  O   UNL     1       2.168   9.283  17.463  0.00  0.00    +0.000 OA
ATOM     12  H   UNL     1       0.465  10.963  16.932  0.00  0.00    +0.000 HD
BRANCH   8  13
ATOM     13  C   UNL     1      -1.613  12.076  18.103  0.00  0.00    +0.000 C 
ATOM     14  F   UNL     1      -0.968  13.242  17.836  0.00  0.00    +0.000 F 
ATOM     15  F   UNL     1      -2.174  11.661  16.939  0.00  0.00    +0.000 F 
ATOM     16  F   UNL     1      -2.625  12.368  18.955  0.00  0.00    +0.000 F 
ENDBRANCH   8  13
ENDBRANCH   2   5
BRANCH   1  17
ATOM     17  C   UNL     1       3.244   5.876  19.330  0.00  0.00    +0.000 C 
BRANCH  17  22
ATOM     18  C   UNL     1       7.175   4.920  15.081  0.00  0.00    +0.000 C 
ATOM     19  C   UNL     1       6.164   5.185  16.162  0.00  0.00    +0.000 A 
ATOM     20  C   UNL     1       4.980   4.435  16.201  0.00  0.00    +0.000 A 
ATOM     21  C   UNL     1       4.022   4.652  17.195  0.00  0.00    +0.000 A 
ATOM     22  C   UNL     1       4.231   5.617  18.191  0.00  0.00    +0.000 A 
ATOM     23  C   UNL     1       5.422   6.362  18.150  0.00  0.00    +0.000 A 
ATOM     24  C   UNL     1       6.374   6.181  17.134  0.00  0.00    +0.000 A 
ATOM     25  C   UNL     1       7.583   7.075  17.098  0.00  0.00    +0.000 C 
ENDBRANCH  17  22
BRANCH  17  26
ATOM     26  C   UNL     1       2.388   4.672  19.716  0.00  0.00    +0.000 A 
ATOM     27  C   UNL     1       1.532   4.109  18.751  0.00  0.00    +0.000 A 
ATOM     28  C   UNL     1       0.688   3.042  19.069  0.00  0.00    +0.000 A 
ATOM     29  C   UNL     1       0.695   2.508  20.354  0.00  0.00    +0.000 A 
ATOM     30  C   UNL     1       1.560   3.027  21.315  0.00  0.00    +0.000 A 
ATOM     31  C   UNL     1       2.407   4.093  20.997  0.00  0.00    +0.000 A 
ENDBRANCH  17  26
ENDBRANCH   1  17
TORSDOF 5
ENDMDL
MODEL 6
REMARK VINA RESULT:      -8.6      4.138      8.566
REMARK  Name = 
REMARK  7 active torsions:
REMARK  status: ('A' for Active; 'I' for Inactive)
REMARK    1  A    between atoms: C_1  and  C_2
REMARK    2  A    between atoms: C_5  and  C_6
REMARK    3  A    between atoms: C_6  and  N_7
REMARK    4  A    between atoms: C_6  and  C_21
REMARK    5  A    between atoms: C_8  and  C_10
REMARK    6  A    between atoms: C_13  and  C_14
REMARK    7  A    between atoms: C_28  and  C_29
REMARK                            x       y       z     vdW  Elec       q    Type
REMARK                         _______ _______ _______ _____ _____    ______ ____
ROOT
ATOM      1  N   UNL     1       0.910   9.507  19.451  0.00  0.00    +0.000 N 
ATOM      2  C   UNL     1       1.415   8.613  20.362  0.00  0.00    +0.000 C 
ATOM      3  O   UNL     1       1.447   8.821  21.570  0.00  0.00    +0.000 OA
ATOM      4  H   UNL     1       0.949   9.275  18.463  0.00  0.00    +0.000 HD
ENDROOT
BRANCH   2   5
ATOM      5  C   UNL     1       1.967   7.353  19.771  0.00  0.00    +0.000 A 
ATOM      6  C   UNL     1       1.867   6.205  20.470  0.00  0.00    +0.000 A 
ATOM      7  C   UNL     1       2.464   4.971  19.999  0.00  0.00    +0.000 A 
ATOM      8  C   UNL     1       3.159   4.946  18.848  0.00  0.00    +0.000 A 
ATOM      9  N   UNL     1       3.232   6.107  18.098  0.00  0.00    +0.000 N 
ATOM     10  C   UNL     1       2.660   7.304  18.450  0.00  0.00    +0.000 A 
ATOM     11  O   UNL     1       2.733   8.278  17.705  0.00  0.00    +0.000 OA
ATOM     12  H   UNL     1       3.730   6.095  17.214  0.00  0.00    +0.000 HD
BRANCH   8  13
ATOM     13  C   UNL     1       3.884   3.720  18.339  0.00  0.00    +0.000 C 
ATOM     14  F   UNL     1       3.223   2.580  18.673  0.00  0.00    +0.000 F 
ATOM     15  F   UNL     1       3.999   3.727  16.987  0.00  0.00    +0.000 F 
ATOM     16  F   UNL     1       5.135   3.616  18.849  0.00  0.00    +0.000 F 
ENDBRANCH   8  13
ENDBRANCH   2   5
BRANCH   1  17
ATOM     17  C   UNL     1       0.305  10.771  19.814  0.00  0.00    +0.000 C 
BRANCH  17  22
ATOM     18  C   UNL     1      -4.837  11.426  17.068  0.00  0.00    +0.000 C 
ATOM     19  C   UNL     1      -3.509  11.268  17.755  0.00  0.00    +0.000 A 
ATOM     20  C   UNL     1      -3.259  11.964  18.945  0.00  0.00    +0.000 A 
ATOM     21  C   UNL     1      -2.037  11.835  19.613  0.00  0.00    +0.000 A 
ATOM     22  C   UNL     1      -1.036  10.990  19.113  0.00  0.00    +0.000 A 
ATOM     23  C   UNL     1      -1.295  10.289  17.923  0.00  0.00    +0.000 A 
ATOM     24  C   UNL     1      -2.502  10.441  17.222  0.00  0.00    +0.000 A 
ATOM     25  C   UNL     1      -2.677   9.734  15.906  0.00  0.00    +0.000 C 
ENDBRANCH  17  22
BRANCH  17  26
ATOM     26  C   UNL     1       1.309  11.909  19.639  0.00  0.00    +0.000 A 
ATOM     27  C   UNL     1       1.591  12.742  20.739  0.00  0.00    +0.000 A 
ATOM     28  C   UNL     1       2.459  13.829  20.617  0.00  0.00    +0.000 A 
ATOM     29  C   UNL     1       3.073  14.096  19.396  0.00  0.00    +0.000 A 
ATOM     30  C   UNL     1       2.836  13.264  18.305  0.00  0.00    +0.000 A 
ATOM     31  C   UNL     1       1.969  12.174  18.427  0.00  0.00    +0.000 A 
ENDBRANCH  17  26
ENDBRANCH   1  17
TORSDOF 5
ENDMDL
MODEL 7
REMARK VINA RESULT:      -8.5      4.122      8.605
REMARK  Name = 
REMARK  7 active torsions:
REMARK  status: ('A' for Active; 'I' for Inactive)
REMARK    1  A    between atoms: C_1  and  C_2
REMARK    2  A    between atoms: C_5  and  C_6
REMARK    3  A    between atoms: C_6  and  N_7
REMARK    4  A    between atoms: C_6  and  C_21
REMARK    5  A    between atoms: C_8  and  C_10
REMARK    6  A    between atoms: C_13  and  C_14
REMARK    7  A    between atoms: C_28  and  C_29
REMARK                            x       y       z     vdW  Elec       q    Type
REMARK                         _______ _______ _______ _____ _____    ______ ____
ROOT
ATOM      1  N   UNL     1       0.857   9.546  19.476  0.00  0.00    +0.000 N 
ATOM      2  C   UNL     1       1.386   8.657  20.378  0.00  0.00    +0.000 C 
ATOM      3  O   UNL     1       1.423   8.858  21.587  0.00  0.00    +0.000 OA
ATOM      4  H   UNL     1       0.893   9.322  18.487  0.00  0.00    +0.000 HD
ENDROOT
BRANCH   2   5
ATOM      5  C   UNL     1       1.958   7.412  19.776  0.00  0.00    +0.000 A 
ATOM      6  C   UNL     1       1.891   6.259  20.470  0.00  0.00    +0.000 A 
ATOM      7  C   UNL     1       2.509   5.040  19.987  0.00  0.00    +0.000 A 
ATOM      8  C   UNL     1       3.192   5.035  18.828  0.00  0.00    +0.000 A 
ATOM      9  N   UNL     1       3.231   6.200  18.082  0.00  0.00    +0.000 N 
ATOM     10  C   UNL     1       2.637   7.383  18.447  0.00  0.00    +0.000 A 
ATOM     11  O   UNL     1       2.681   8.362  17.705  0.00  0.00    +0.000 OA
ATOM     12  H   UNL     1       3.719   6.203  17.193  0.00  0.00    +0.000 HD
BRANCH   8  13
ATOM     13  C   UNL     1       3.937   3.827  18.306  0.00  0.00    +0.000 C 
ATOM     14  F   UNL     1       5.071   3.599  19.019  0.00  0.00    +0.000 F 
ATOM     15  F   UNL     1       3.188   2.698  18.386  0.00  0.00    +0.000 F 
ATOM     16  F   UNL     1       4.306   3.973  17.010  0.00  0.00    +0.000 F 
ENDBRANCH   8  13
ENDBRANCH   2   5
BRANCH   1  17
ATOM     17  C   UNL     1       0.230  10.796  19.851  0.00  0.00    +0.000 C 
BRANCH  17  22
ATOM     18  C   UNL     1      -4.882  11.429  17.043  0.00  0.00    +0.000 C 
ATOM     19  C   UNL     1      -3.561  11.276  17.746  0.00  0.00    +0.000 A 
ATOM     20  C   UNL     1      -3.327  11.978  18.936  0.00  0.00    +0.000 A 
ATOM     21  C   UNL     1      -2.112  11.854  19.619  0.00  0.00    +0.000 A 
ATOM     22  C   UNL     1      -1.104  11.010  19.134  0.00  0.00    +0.000 A 
ATOM     23  C   UNL     1      -1.347  10.304  17.943  0.00  0.00    +0.000 A 
ATOM     24  C   UNL     1      -2.547  10.450  17.228  0.00  0.00    +0.000 A 
ATOM     25  C   UNL     1      -2.705   9.737  15.913  0.00  0.00    +0.000 C 
ENDBRANCH  17  22
BRANCH  17  26
ATOM     26  C   UNL     1       1.220  11.950  19.711  0.00  0.00    +0.000 A 
ATOM     27  C   UNL     1       1.826  12.177  18.461  0.00  0.00    +0.000 A 
ATOM     28  C   UNL     1       2.780  13.184  18.293  0.00  0.00    +0.000 A 
ATOM     29  C   UNL     1       3.134  13.994  19.369  0.00  0.00    +0.000 A 
ATOM     30  C   UNL     1       2.519  13.810  20.605  0.00  0.00    +0.000 A 
ATOM     31  C   UNL     1       1.564  12.803  20.774  0.00  0.00    +0.000 A 
ENDBRANCH  17  26
ENDBRANCH   1  17
TORSDOF 5
ENDMDL
MODEL 8
REMARK VINA RESULT:      -8.4      0.898      1.151
REMARK  Name = 
REMARK  7 active torsions:
REMARK  status: ('A' for Active; 'I' for Inactive)
REMARK    1  A    between atoms: C_1  and  C_2
REMARK    2  A    between atoms: C_5  and  C_6
REMARK    3  A    between atoms: C_6  and  N_7
REMARK    4  A    between atoms: C_6  and  C_21
REMARK    5  A    between atoms: C_8  and  C_10
REMARK    6  A    between atoms: C_13  and  C_14
REMARK    7  A    between atoms: C_28  and  C_29
REMARK                            x       y       z     vdW  Elec       q    Type
REMARK                         _______ _______ _______ _____ _____    ______ ____
ROOT
ATOM      1  N   UNL     1       2.324   7.226  18.958  0.00  0.00    +0.000 N 
ATOM      2  C   UNL     1       1.883   7.990  20.009  0.00  0.00    +0.000 C 
ATOM      3  O   UNL     1       2.127   7.733  21.183  0.00  0.00    +0.000 OA
ATOM      4  H   UNL     1       2.053   7.485  18.015  0.00  0.00    +0.000 HD
ENDROOT
BRANCH   2   5
ATOM      5  C   UNL     1       1.038   9.164  19.625  0.00  0.00    +0.000 A 
ATOM      6  C   UNL     1       0.097   9.601  20.486  0.00  0.00    +0.000 A 
ATOM      7  C   UNL     1      -0.817  10.670  20.138  0.00  0.00    +0.000 A 
ATOM      8  C   UNL     1      -0.762  11.246  18.924  0.00  0.00    +0.000 A 
ATOM      9  N   UNL     1       0.228  10.839  18.046  0.00  0.00    +0.000 N 
ATOM     10  C   UNL     1       1.158   9.865  18.313  0.00  0.00    +0.000 A 
ATOM     11  O   UNL     1       2.034   9.593  17.496  0.00  0.00    +0.000 OA
ATOM     12  H   UNL     1       0.299  11.284  17.137  0.00  0.00    +0.000 HD
BRANCH   8  13
ATOM     13  C   UNL     1      -1.738  12.304  18.458  0.00  0.00    +0.000 C 
ATOM     14  F   UNL     1      -2.704  12.528  19.387  0.00  0.00    +0.000 F 
ATOM     15  F   UNL     1      -1.125  13.492  18.232  0.00  0.00    +0.000 F 
ATOM     16  F   UNL     1      -2.366  11.951  17.310  0.00  0.00    +0.000 F 
ENDBRANCH   8  13
ENDBRANCH   2   5
BRANCH   1  17
ATOM     17  C   UNL     1       3.175   6.064  19.108  0.00  0.00    +0.000 C 
BRANCH  17  22
ATOM     18  C   UNL     1       6.421   4.991  14.340  0.00  0.00    +0.000 C 
ATOM     19  C   UNL     1       5.605   5.258  15.575  0.00  0.00    +0.000 A 
ATOM     20  C   UNL     1       5.313   6.580  15.939  0.00  0.00    +0.000 A 
ATOM     21  C   UNL     1       4.553   6.863  17.077  0.00  0.00    +0.000 A 
ATOM     22  C   UNL     1       4.048   5.826  17.875  0.00  0.00    +0.000 A 
ATOM     23  C   UNL     1       4.338   4.503  17.502  0.00  0.00    +0.000 A 
ATOM     24  C   UNL     1       5.135   4.206  16.383  0.00  0.00    +0.000 A 
ATOM     25  C   UNL     1       5.484   2.773  16.094  0.00  0.00    +0.000 C 
ENDBRANCH  17  22
BRANCH  17  26
ATOM     26  C   UNL     1       2.351   4.855  19.547  0.00  0.00    +0.000 A 
ATOM     27  C   UNL     1       2.459   4.406  20.877  0.00  0.00    +0.000 A 
ATOM     28  C   UNL     1       1.769   3.273  21.314  0.00  0.00    +0.000 A 
ATOM     29  C   UNL     1       0.946   2.576  20.434  0.00  0.00    +0.000 A 
ATOM     30  C   UNL     1       0.797   3.025  19.124  0.00  0.00    +0.000 A 
ATOM     31  C   UNL     1       1.486   4.160  18.686  0.00  0.00    +0.000 A 
ENDBRANCH  17  26
ENDBRANCH   1  17
TORSDOF 5
ENDMDL
MODEL 9
REMARK VINA RESULT:      -8.4      4.079      8.610
REMARK  Name = 
REMARK  7 active torsions:
REMARK  status: ('A' for Active; 'I' for Inactive)
REMARK    1  A    between atoms: C_1  and  C_2
REMARK    2  A    between atoms: C_5  and  C_6
REMARK    3  A    between atoms: C_6  and  N_7
REMARK    4  A    between atoms: C_6  and  C_21
REMARK    5  A    between atoms: C_8  and  C_10
REMARK    6  A    between atoms: C_13  and  C_14
REMARK    7  A    between atoms: C_28  and  C_29
REMARK                            x       y       z     vdW  Elec       q    Type
REMARK                         _______ _______ _______ _____ _____    ______ ____
ROOT
ATOM      1  N   UNL     1       1.064   9.566  19.263  0.00  0.00    +0.000 N 
ATOM      2  C   UNL     1       1.528   8.589  20.108  0.00  0.00    +0.000 C 
ATOM      3  O   UNL     1       1.451   8.658  21.330  0.00  0.00    +0.000 OA
ATOM      4  H   UNL     1       1.194   9.451  18.262  0.00  0.00    +0.000 HD
ENDROOT
BRANCH   2   5
ATOM      5  C   UNL     1       2.177   7.423  19.430  0.00  0.00    +0.000 A 
ATOM      6  C   UNL     1       2.852   7.628  18.283  0.00  0.00    +0.000 A 
ATOM      7  C   UNL     1       3.422   6.530  17.527  0.00  0.00    +0.000 A 
ATOM      8  C   UNL     1       3.271   5.261  17.947  0.00  0.00    +0.000 A 
ATOM      9  N   UNL     1       2.619   5.040  19.148  0.00  0.00    +0.000 N 
ATOM     10  C   UNL     1       2.089   6.024  19.944  0.00  0.00    +0.000 A 
ATOM     11  O   UNL     1       1.564   5.747  21.020  0.00  0.00    +0.000 OA
ATOM     12  H   UNL     1       2.522   4.090  19.491  0.00  0.00    +0.000 HD
BRANCH   8  13
ATOM     13  C   UNL     1       3.759   4.061  17.167  0.00  0.00    +0.000 C 
ATOM     14  F   UNL     1       4.528   4.436  16.112  0.00  0.00    +0.000 F 
ATOM     15  F   UNL     1       4.516   3.236  17.933  0.00  0.00    +0.000 F 
ATOM     16  F   UNL     1       2.737   3.323  16.671  0.00  0.00    +0.000 F 
ENDBRANCH   8  13
ENDBRANCH   2   5
BRANCH   1  17
ATOM     17  C   UNL     1       0.381  10.761  19.711  0.00  0.00    +0.000 C 
BRANCH  17  22
ATOM     18  C   UNL     1      -4.777  11.306  16.970  0.00  0.00    +0.000 C 
ATOM     19  C   UNL     1      -3.445  11.177  17.656  0.00  0.00    +0.000 A 
ATOM     20  C   UNL     1      -3.209  11.876  18.847  0.00  0.00    +0.000 A 
ATOM     21  C   UNL     1      -1.984  11.774  19.513  0.00  0.00    +0.000 A 
ATOM     22  C   UNL     1      -0.965  10.952  19.012  0.00  0.00    +0.000 A 
ATOM     23  C   UNL     1      -1.210  10.247  17.820  0.00  0.00    +0.000 A 
ATOM     24  C   UNL     1      -2.421  10.373  17.121  0.00  0.00    +0.000 A 
ATOM     25  C   UNL     1      -2.582   9.664  15.805  0.00  0.00    +0.000 C 
ENDBRANCH  17  22
BRANCH  17  26
ATOM     26  C   UNL     1       1.315  11.967  19.633  0.00  0.00    +0.000 A 
ATOM     27  C   UNL     1       1.941  12.264  18.408  0.00  0.00    +0.000 A 
ATOM     28  C   UNL     1       2.847  13.322  18.298  0.00  0.00    +0.000 A 
ATOM     29  C   UNL     1       3.131  14.114  19.408  0.00  0.00    +0.000 A 
ATOM     30  C   UNL     1       2.494  13.860  20.620  0.00  0.00    +0.000 A 
ATOM     31  C   UNL     1       1.587  12.802  20.731  0.00  0.00    +0.000 A 
ENDBRANCH  17  26
ENDBRANCH   1  17
TORSDOF 5
ENDMDL
