MODEL 1
REMARK VINA RESULT:      -9.0      0.000      0.000
REMARK  Name = 
REMARK  2 active torsions:
REMARK  status: ('A' for Active; 'I' for Inactive)
REMARK    1  A    between atoms: C_5  and  C_6
REMARK    2  A    between atoms: C_8  and  C_9
REMARK                            x       y       z     vdW  Elec       q    Type
REMARK                         _______ _______ _______ _____ _____    ______ ____
ROOT
ATOM      1  C   UNL     1       1.879   6.744  20.138  0.00  0.00    +0.000 C 
ATOM      2  C   UNL     1       2.374   6.415  18.929  0.00  0.00    +0.000 C 
ATOM      3  C   UNL     1       2.822   4.988  18.632  0.00  0.00    +0.000 C 
ATOM      4  N   UNL     1       2.776   4.145  19.834  0.00  0.00    +0.000 N 
ATOM      5  N   UNL     1       3.176   2.857  19.890  0.00  0.00    +0.000 NA
ATOM      6  C   UNL     1       2.924   2.576  21.173  0.00  0.00    +0.000 A 
ATOM      7  N   UNL     1       2.337   3.579  21.901  0.00  0.00    +0.000 NA
ATOM      8  C   UNL     1       2.249   4.556  21.034  0.00  0.00    +0.000 A 
ATOM      9  N   UNL     1       1.775   5.812  21.149  0.00  0.00    +0.000 N 
ATOM     10  H   UNL     1       1.373   6.116  22.031  0.00  0.00    +0.000 HD
ENDROOT
BRANCH   3  11
ATOM     11  C   UNL     1       4.197   4.934  17.979  0.00  0.00    +0.000 A 
ATOM     12  C   UNL     1       5.382   4.989  18.755  0.00  0.00    +0.000 A 
ATOM     13  C   UNL     1       6.642   4.892  18.154  0.00  0.00    +0.000 A 
ATOM     14  C   UNL     1       6.693   4.749  16.785  0.00  0.00    +0.000 A 
ATOM     15  C   UNL     1       5.552   4.705  16.021  0.00  0.00    +0.000 A 
ATOM     16  C   UNL     1       4.295   4.792  16.581  0.00  0.00    +0.000 A 
ATOM     17  O   UNL     1       5.820   4.560  14.696  0.00  0.00    +0.000 OA
ATOM     18  C   UNL     1       7.262   4.544  14.711  0.00  0.00    +0.000 C 
ATOM     19  O   UNL     1       7.823   4.633  16.038  0.00  0.00    +0.000 OA
ENDBRANCH   3  11
BRANCH   1  24
ATOM     20 BR   UNL     1       0.076  12.518  21.311  0.00  0.00    +0.000 Br
ATOM     21  C   UNL     1       0.635  10.747  20.954  0.00  0.00    +0.000 A 
ATOM     22  C   UNL     1       0.704   9.820  21.993  0.00  0.00    +0.000 A 
ATOM     23  C   UNL     1       1.115   8.510  21.730  0.00  0.00    +0.000 A 
ATOM     24  C   UNL     1       1.455   8.122  20.426  0.00  0.00    +0.000 A 
ATOM     25  C   UNL     1       1.384   9.066  19.391  0.00  0.00    +0.000 A 
ATOM     26  C   UNL     1       0.976  10.376  19.654  0.00  0.00    +0.000 A 
ENDBRANCH   1  24
TORSDOF 2
ENDMDL
MODEL 2
REMARK VINA RESULT:      -8.8      0.942      1.353
REMARK  Name = 
REMARK  2 active torsions:
REMARK  status: ('A' for Active; 'I' for Inactive)
REMARK    1  A    between atoms: C_5  and  C_6
REMARK    2  A    between atoms: C_8  and  C_9
REMARK                            x       y       z     vdW  Elec       q    Type
REMARK                         _______ _______ _______ _____ _____    ______ ____
ROOT
ATOM      1  C   UNL     1       2.138   6.626  19.599  0.00  0.00    +0.000 C 
ATOM      2  C   UNL     1       2.524   6.430  18.323  0.00  0.00    +0.000 C 
ATOM      3  C   UNL     1       3.083   5.083  17.876  0.00  0.00    +0.000 C 
ATOM      4  N   UNL     1       3.264   4.168  19.010  0.00  0.00    +0.000 N 
ATOM      5  N   UNL     1       3.801   2.933  18.929  0.00  0.00    +0.000 NA
ATOM      6  C   UNL     1       3.728   2.547  20.207  0.00  0.00    +0.000 A 
ATOM      7  N   UNL     1       3.126   3.431  21.065  0.00  0.00    +0.000 NA
ATOM      8  C   UNL     1       2.837   4.443  20.287  0.00  0.00    +0.000 A 
ATOM      9  N   UNL     1       2.250   5.628  20.544  0.00  0.00    +0.000 N 
ATOM     10  H   UNL     1       1.921   5.829  21.484  0.00  0.00    +0.000 HD
ENDROOT
BRANCH   3  11
ATOM     11  C   UNL     1       4.372   5.225  17.077  0.00  0.00    +0.000 A 
ATOM     12  C   UNL     1       5.471   5.967  17.580  0.00  0.00    +0.000 A 
ATOM     13  C   UNL     1       6.669   6.056  16.863  0.00  0.00    +0.000 A 
ATOM     14  C   UNL     1       6.743   5.405  15.652  0.00  0.00    +0.000 A 
ATOM     15  C   UNL     1       5.683   4.691  15.148  0.00  0.00    +0.000 A 
ATOM     16  C   UNL     1       4.490   4.580  15.831  0.00  0.00    +0.000 A 
ATOM     17  O   UNL     1       5.961   4.128  13.943  0.00  0.00    +0.000 OA
ATOM     18  C   UNL     1       7.312   4.591  13.733  0.00  0.00    +0.000 C 
ATOM     19  O   UNL     1       7.825   5.377  14.829  0.00  0.00    +0.000 OA
ENDBRANCH   3  11
BRANCH   1  24
ATOM     20 BR   UNL     1      -0.055  12.079  21.446  0.00  0.00    +0.000 Br
ATOM     21  C   UNL     1       0.612  10.404  20.876  0.00  0.00    +0.000 A 
ATOM     22  C   UNL     1       0.952  10.213  19.537  0.00  0.00    +0.000 A 
ATOM     23  C   UNL     1       1.448   8.976  19.115  0.00  0.00    +0.000 A 
ATOM     24  C   UNL     1       1.607   7.927  20.031  0.00  0.00    +0.000 A 
ATOM     25  C   UNL     1       1.259   8.132  21.374  0.00  0.00    +0.000 A 
ATOM     26  C   UNL     1       0.761   9.368  21.796  0.00  0.00    +0.000 A 
ENDBRANCH   1  24
TORSDOF 2
ENDMDL
MODEL 3
REMARK VINA RESULT:      -8.2      4.816      8.089
REMARK  Name = 
REMARK  2 active torsions:
REMARK  status: ('A' for Active; 'I' for Inactive)
REMARK    1  A    between atoms: C_5  and  C_6
REMARK    2  A    between atoms: C_8  and  C_9
REMARK                            x       y       z     vdW  Elec       q    Type
REMARK                         _______ _______ _______ _____ _____    ______ ____
ROOT
ATOM      1  C   UNL     1       1.848   8.259  19.434  0.00  0.00    +0.000 C 
ATOM      2  C   UNL     1       1.329   9.304  18.760  0.00  0.00    +0.000 C 
ATOM      3  C   UNL     1       0.505  10.365  19.481  0.00  0.00    +0.000 C 
ATOM      4  N   UNL     1       0.260  10.001  20.882  0.00  0.00    +0.000 N 
ATOM      5  N   UNL     1      -0.493  10.714  21.746  0.00  0.00    +0.000 NA
ATOM      6  C   UNL     1      -0.384   9.963  22.847  0.00  0.00    +0.000 A 
ATOM      7  N   UNL     1       0.434   8.868  22.745  0.00  0.00    +0.000 NA
ATOM      8  C   UNL     1       0.833   8.915  21.499  0.00  0.00    +0.000 A 
ATOM      9  N   UNL     1       1.640   8.104  20.788  0.00  0.00    +0.000 N 
ATOM     10  H   UNL     1       2.076   7.308  21.244  0.00  0.00    +0.000 HD
ENDROOT
BRANCH   3  11
ATOM     11  C   UNL     1      -0.800  10.677  18.760  0.00  0.00    +0.000 A 
ATOM     12  C   UNL     1      -1.719  11.623  19.280  0.00  0.00    +0.000 A 
ATOM     13  C   UNL     1      -2.895  11.940  18.591  0.00  0.00    +0.000 A 
ATOM     14  C   UNL     1      -3.133  11.298  17.397  0.00  0.00    +0.000 A 
ATOM     15  C   UNL     1      -2.256  10.371  16.887  0.00  0.00    +0.000 A 
ATOM     16  C   UNL     1      -1.087  10.040  17.538  0.00  0.00    +0.000 A 
ATOM     17  O   UNL     1      -2.676   9.855  15.701  0.00  0.00    +0.000 OA
ATOM     18  C   UNL     1      -3.932  10.546  15.536  0.00  0.00    +0.000 C 
ATOM     19  O   UNL     1      -4.214  11.486  16.594  0.00  0.00    +0.000 OA
ENDBRANCH   3  11
BRANCH   1  24
ATOM     20 BR   UNL     1       5.107   3.928  16.504  0.00  0.00    +0.000 Br
ATOM     21  C   UNL     1       4.112   5.260  17.407  0.00  0.00    +0.000 A 
ATOM     22  C   UNL     1       4.269   6.599  17.054  0.00  0.00    +0.000 A 
ATOM     23  C   UNL     1       3.532   7.584  17.718  0.00  0.00    +0.000 A 
ATOM     24  C   UNL     1       2.635   7.232  18.736  0.00  0.00    +0.000 A 
ATOM     25  C   UNL     1       2.490   5.880  19.083  0.00  0.00    +0.000 A 
ATOM     26  C   UNL     1       3.228   4.896  18.420  0.00  0.00    +0.000 A 
ENDBRANCH   1  24
TORSDOF 2
ENDMDL
MODEL 4
REMARK VINA RESULT:      -8.2      0.783      1.514
REMARK  Name = 
REMARK  2 active torsions:
REMARK  status: ('A' for Active; 'I' for Inactive)
REMARK    1  A    between atoms: C_5  and  C_6
REMARK    2  A    between atoms: C_8  and  C_9
REMARK                            x       y       z     vdW  Elec       q    Type
REMARK                         _______ _______ _______ _____ _____    ______ ____
ROOT
ATOM      1  C   UNL     1       1.786   6.672  20.094  0.00  0.00    +0.000 C 
ATOM      2  C   UNL     1       2.273   6.258  18.908  0.00  0.00    +0.000 C 
ATOM      3  C   UNL     1       2.628   4.792  18.680  0.00  0.00    +0.000 C 
ATOM      4  N   UNL     1       2.510   4.008  19.916  0.00  0.00    +0.000 N 
ATOM      5  N   UNL     1       2.821   2.700  20.034  0.00  0.00    +0.000 NA
ATOM      6  C   UNL     1       2.534   2.493  21.324  0.00  0.00    +0.000 A 
ATOM      7  N   UNL     1       2.008   3.565  21.998  0.00  0.00    +0.000 NA
ATOM      8  C   UNL     1       1.996   4.506  21.089  0.00  0.00    +0.000 A 
ATOM      9  N   UNL     1       1.608   5.795  21.143  0.00  0.00    +0.000 N 
ATOM     10  H   UNL     1       1.215   6.163  22.004  0.00  0.00    +0.000 HD
ENDROOT
BRANCH   3  11
ATOM     11  C   UNL     1       4.003   4.617  18.051  0.00  0.00    +0.000 A 
ATOM     12  C   UNL     1       4.150   4.333  16.669  0.00  0.00    +0.000 A 
ATOM     13  C   UNL     1       5.417   4.220  16.087  0.00  0.00    +0.000 A 
ATOM     14  C   UNL     1       6.515   4.385  16.900  0.00  0.00    +0.000 A 
ATOM     15  C   UNL     1       6.388   4.651  18.242  0.00  0.00    +0.000 A 
ATOM     16  C   UNL     1       5.155   4.774  18.846  0.00  0.00    +0.000 A 
ATOM     17  O   UNL     1       7.591   4.778  18.863  0.00  0.00    +0.000 OA
ATOM     18  C   UNL     1       8.491   4.537  17.761  0.00  0.00    +0.000 C 
ATOM     19  O   UNL     1       7.815   4.317  16.505  0.00  0.00    +0.000 OA
ENDBRANCH   3  11
BRANCH   1  24
ATOM     20 BR   UNL     1       0.362  12.599  20.988  0.00  0.00    +0.000 Br
ATOM     21  C   UNL     1       0.805  10.781  20.717  0.00  0.00    +0.000 A 
ATOM     22  C   UNL     1       0.833   9.906  21.801  0.00  0.00    +0.000 A 
ATOM     23  C   UNL     1       1.158   8.561  21.601  0.00  0.00    +0.000 A 
ATOM     24  C   UNL     1       1.453   8.087  20.315  0.00  0.00    +0.000 A 
ATOM     25  C   UNL     1       1.425   8.980  19.234  0.00  0.00    +0.000 A 
ATOM     26  C   UNL     1       1.102  10.324  19.434  0.00  0.00    +0.000 A 
ENDBRANCH   1  24
TORSDOF 2
ENDMDL
MODEL 5
REMARK VINA RESULT:      -8.2      4.840      8.090
REMARK  Name = 
REMARK  2 active torsions:
REMARK  status: ('A' for Active; 'I' for Inactive)
REMARK    1  A    between atoms: C_5  and  C_6
REMARK    2  A    between atoms: C_8  and  C_9
REMARK                            x       y       z     vdW  Elec       q    Type
REMARK                         _______ _______ _______ _____ _____    ______ ____
ROOT
ATOM      1  C   UNL     1       1.664   8.371  19.846  0.00  0.00    +0.000 C 
ATOM      2  C   UNL     1       1.183   9.396  19.117  0.00  0.00    +0.000 C 
ATOM      3  C   UNL     1       0.338  10.487  19.768  0.00  0.00    +0.000 C 
ATOM      4  N   UNL     1       0.032  10.171  21.169  0.00  0.00    +0.000 N 
ATOM      5  N   UNL     1      -0.750  10.918  21.977  0.00  0.00    +0.000 NA
ATOM      6  C   UNL     1      -0.693  10.203  23.106  0.00  0.00    +0.000 A 
ATOM      7  N   UNL     1       0.119   9.099  23.074  0.00  0.00    +0.000 NA
ATOM      8  C   UNL     1       0.570   9.102  21.845  0.00  0.00    +0.000 A 
ATOM      9  N   UNL     1       1.399   8.262  21.195  0.00  0.00    +0.000 N 
ATOM     10  H   UNL     1       1.809   7.478  21.695  0.00  0.00    +0.000 HD
ENDROOT
BRANCH   3  11
ATOM     11  C   UNL     1      -0.933  10.784  18.984  0.00  0.00    +0.000 A 
ATOM     12  C   UNL     1      -1.877  11.735  19.447  0.00  0.00    +0.000 A 
ATOM     13  C   UNL     1      -3.021  12.038  18.701  0.00  0.00    +0.000 A 
ATOM     14  C   UNL     1      -3.202  11.379  17.505  0.00  0.00    +0.000 A 
ATOM     15  C   UNL     1      -2.300  10.448  17.049  0.00  0.00    +0.000 A 
ATOM     16  C   UNL     1      -1.161  10.130  17.758  0.00  0.00    +0.000 A 
ATOM     17  O   UNL     1      -2.663   9.915  15.853  0.00  0.00    +0.000 OA
ATOM     18  C   UNL     1      -3.912  10.598  15.620  0.00  0.00    +0.000 C 
ATOM     19  O   UNL     1      -4.245  11.552  16.651  0.00  0.00    +0.000 OA
ENDBRANCH   3  11
BRANCH   1  24
ATOM     20 BR   UNL     1       5.076   3.977  17.197  0.00  0.00    +0.000 Br
ATOM     21  C   UNL     1       4.022   5.322  18.009  0.00  0.00    +0.000 A 
ATOM     22  C   UNL     1       3.438   5.087  19.252  0.00  0.00    +0.000 A 
ATOM     23  C   UNL     1       2.662   6.082  19.855  0.00  0.00    +0.000 A 
ATOM     24  C   UNL     1       2.470   7.315  19.216  0.00  0.00    +0.000 A 
ATOM     25  C   UNL     1       3.062   7.536  17.963  0.00  0.00    +0.000 A 
ATOM     26  C   UNL     1       3.836   6.541  17.360  0.00  0.00    +0.000 A 
ENDBRANCH   1  24
TORSDOF 2
ENDMDL
MODEL 6
REMARK VINA RESULT:      -8.2      5.213      8.441
REMARK  Name = 
REMARK  2 active torsions:
REMARK  status: ('A' for Active; 'I' for Inactive)
REMARK    1  A    between atoms: C_5  and  C_6
REMARK    2  A    between atoms: C_8  and  C_9
REMARK                            x       y       z     vdW  Elec       q    Type
REMARK                         _______ _______ _______ _____ _____    ______ ____
ROOT
ATOM      1  C   UNL     1       1.867   8.251  19.102  0.00  0.00    +0.000 C 
ATOM      2  C   UNL     1       1.245   9.226  18.413  0.00  0.00    +0.000 C 
ATOM      3  C   UNL     1       0.401  10.274  19.132  0.00  0.00    +0.000 C 
ATOM      4  N   UNL     1       0.264   9.970  20.562  0.00  0.00    +0.000 N 
ATOM      5  N   UNL     1      -0.479  10.681  21.436  0.00  0.00    +0.000 NA
ATOM      6  C   UNL     1      -0.257   9.997  22.563  0.00  0.00    +0.000 A 
ATOM      7  N   UNL     1       0.620   8.948  22.463  0.00  0.00    +0.000 NA
ATOM      8  C   UNL     1       0.939   8.953  21.194  0.00  0.00    +0.000 A 
ATOM      9  N   UNL     1       1.750   8.154  20.473  0.00  0.00    +0.000 N 
ATOM     10  H   UNL     1       2.262   7.411  20.939  0.00  0.00    +0.000 HD
ENDROOT
BRANCH   3  11
ATOM     11  C   UNL     1      -0.962  10.470  18.481  0.00  0.00    +0.000 A 
ATOM     12  C   UNL     1      -1.323   9.766  17.305  0.00  0.00    +0.000 A 
ATOM     13  C   UNL     1      -2.593   9.915  16.737  0.00  0.00    +0.000 A 
ATOM     14  C   UNL     1      -3.477  10.772  17.354  0.00  0.00    +0.000 A 
ATOM     15  C   UNL     1      -3.136  11.468  18.488  0.00  0.00    +0.000 A 
ATOM     16  C   UNL     1      -1.895  11.341  19.075  0.00  0.00    +0.000 A 
ATOM     17  O   UNL     1      -4.147  12.258  18.937  0.00  0.00    +0.000 OA
ATOM     18  C   UNL     1      -5.157  11.998  17.939  0.00  0.00    +0.000 C 
ATOM     19  O   UNL     1      -4.748  11.032  16.948  0.00  0.00    +0.000 OA
ENDBRANCH   3  11
BRANCH   1  24
ATOM     20 BR   UNL     1       5.280   4.020  16.203  0.00  0.00    +0.000 Br
ATOM     21  C   UNL     1       4.227   5.317  17.089  0.00  0.00    +0.000 A 
ATOM     22  C   UNL     1       3.176   4.912  17.909  0.00  0.00    +0.000 A 
ATOM     23  C   UNL     1       2.399   5.871  18.567  0.00  0.00    +0.000 A 
ATOM     24  C   UNL     1       2.672   7.236  18.407  0.00  0.00    +0.000 A 
ATOM     25  C   UNL     1       3.732   7.629  17.576  0.00  0.00    +0.000 A 
ATOM     26  C   UNL     1       4.507   6.671  16.917  0.00  0.00    +0.000 A 
ENDBRANCH   1  24
TORSDOF 2
ENDMDL
MODEL 7
REMARK VINA RESULT:      -8.1      3.934      6.976
REMARK  Name = 
REMARK  2 active torsions:
REMARK  status: ('A' for Active; 'I' for Inactive)
REMARK    1  A    between atoms: C_5  and  C_6
REMARK    2  A    between atoms: C_8  and  C_9
REMARK                            x       y       z     vdW  Elec       q    Type
REMARK                         _______ _______ _______ _____ _____    ______ ____
ROOT
ATOM      1  C   UNL     1       4.123   4.782  17.619  0.00  0.00    +0.000 C 
ATOM      2  C   UNL     1       4.041   5.783  18.516  0.00  0.00    +0.000 C 
ATOM      3  C   UNL     1       3.052   5.714  19.675  0.00  0.00    +0.000 C 
ATOM      4  N   UNL     1       2.169   4.545  19.563  0.00  0.00    +0.000 N 
ATOM      5  N   UNL     1       1.154   4.260  20.406  0.00  0.00    +0.000 NA
ATOM      6  C   UNL     1       0.697   3.125  19.867  0.00  0.00    +0.000 A 
ATOM      7  N   UNL     1       1.395   2.653  18.786  0.00  0.00    +0.000 NA
ATOM      8  C   UNL     1       2.322   3.562  18.616  0.00  0.00    +0.000 A 
ATOM      9  N   UNL     1       3.308   3.672  17.705  0.00  0.00    +0.000 N 
ATOM     10  H   UNL     1       3.433   2.941  17.012  0.00  0.00    +0.000 HD
ENDROOT
BRANCH   3  11
ATOM     11  C   UNL     1       2.245   6.996  19.829  0.00  0.00    +0.000 A 
ATOM     12  C   UNL     1       1.581   7.306  21.043  0.00  0.00    +0.000 A 
ATOM     13  C   UNL     1       0.880   8.507  21.195  0.00  0.00    +0.000 A 
ATOM     14  C   UNL     1       0.851   9.374  20.126  0.00  0.00    +0.000 A 
ATOM     15  C   UNL     1       1.481   9.082  18.940  0.00  0.00    +0.000 A 
ATOM     16  C   UNL     1       2.184   7.910  18.759  0.00  0.00    +0.000 A 
ATOM     17  O   UNL     1       1.330  10.066  18.015  0.00  0.00    +0.000 OA
ATOM     18  C   UNL     1       0.510  11.002  18.746  0.00  0.00    +0.000 C 
ATOM     19  O   UNL     1       0.227  10.582  20.098  0.00  0.00    +0.000 OA
ENDBRANCH   3  11
BRANCH   1  24
ATOM     20 BR   UNL     1       8.059   5.087  12.888  0.00  0.00    +0.000 Br
ATOM     21  C   UNL     1       6.855   4.990  14.344  0.00  0.00    +0.000 A 
ATOM     22  C   UNL     1       7.039   5.819  15.450  0.00  0.00    +0.000 A 
ATOM     23  C   UNL     1       6.148   5.750  16.525  0.00  0.00    +0.000 A 
ATOM     24  C   UNL     1       5.070   4.854  16.497  0.00  0.00    +0.000 A 
ATOM     25  C   UNL     1       4.900   4.024  15.379  0.00  0.00    +0.000 A 
ATOM     26  C   UNL     1       5.791   4.091  14.305  0.00  0.00    +0.000 A 
ENDBRANCH   1  24
TORSDOF 2
ENDMDL
MODEL 8
REMARK VINA RESULT:      -8.1      4.243      7.284
REMARK  Name = 
REMARK  2 active torsions:
REMARK  status: ('A' for Active; 'I' for Inactive)
REMARK    1  A    between atoms: C_5  and  C_6
REMARK    2  A    between atoms: C_8  and  C_9
REMARK                            x       y       z     vdW  Elec       q    Type
REMARK                         _______ _______ _______ _____ _____    ______ ____
ROOT
ATOM      1  C   UNL     1       4.117   4.947  17.627  0.00  0.00    +0.000 C 
ATOM      2  C   UNL     1       4.038   6.007  18.455  0.00  0.00    +0.000 C 
ATOM      3  C   UNL     1       3.060   6.012  19.625  0.00  0.00    +0.000 C 
ATOM      4  N   UNL     1       2.183   4.834  19.603  0.00  0.00    +0.000 N 
ATOM      5  N   UNL     1       1.178   4.602  20.473  0.00  0.00    +0.000 NA
ATOM      6  C   UNL     1       0.723   3.430  20.018  0.00  0.00    +0.000 A 
ATOM      7  N   UNL     1       1.414   2.889  18.964  0.00  0.00    +0.000 NA
ATOM      8  C   UNL     1       2.333   3.788  18.724  0.00  0.00    +0.000 A 
ATOM      9  N   UNL     1       3.310   3.842  17.798  0.00  0.00    +0.000 N 
ATOM     10  H   UNL     1       3.433   3.065  17.155  0.00  0.00    +0.000 HD
ENDROOT
BRANCH   3  11
ATOM     11  C   UNL     1       2.248   7.297  19.699  0.00  0.00    +0.000 A 
ATOM     12  C   UNL     1       2.084   8.130  18.563  0.00  0.00    +0.000 A 
ATOM     13  C   UNL     1       1.298   9.286  18.624  0.00  0.00    +0.000 A 
ATOM     14  C   UNL     1       0.695   9.592  19.824  0.00  0.00    +0.000 A 
ATOM     15  C   UNL     1       0.854   8.799  20.935  0.00  0.00    +0.000 A 
ATOM     16  C   UNL     1       1.617   7.651  20.908  0.00  0.00    +0.000 A 
ATOM     17  O   UNL     1       0.178   9.275  22.014  0.00  0.00    +0.000 OA
ATOM     18  C   UNL     1      -0.404  10.474  21.462  0.00  0.00    +0.000 C 
ATOM     19  O   UNL     1      -0.104  10.665  20.063  0.00  0.00    +0.000 OA
ENDBRANCH   3  11
BRANCH   1  24
ATOM     20 BR   UNL     1       8.006   4.956  12.849  0.00  0.00    +0.000 Br
ATOM     21  C   UNL     1       6.817   4.949  14.320  0.00  0.00    +0.000 A 
ATOM     22  C   UNL     1       7.109   5.712  15.449  0.00  0.00    +0.000 A 
ATOM     23  C   UNL     1       6.229   5.711  16.535  0.00  0.00    +0.000 A 
ATOM     24  C   UNL     1       5.054   4.947  16.494  0.00  0.00    +0.000 A 
ATOM     25  C   UNL     1       4.775   4.182  15.352  0.00  0.00    +0.000 A 
ATOM     26  C   UNL     1       5.655   4.182  14.267  0.00  0.00    +0.000 A 
ENDBRANCH   1  24
TORSDOF 2
ENDMDL
MODEL 9
REMARK VINA RESULT:      -8.1      5.299      8.581
REMARK  Name = 
REMARK  2 active torsions:
REMARK  status: ('A' for Active; 'I' for Inactive)
REMARK    1  A    between atoms: C_5  and  C_6
REMARK    2  A    between atoms: C_8  and  C_9
REMARK                            x       y       z     vdW  Elec       q    Type
REMARK                         _______ _______ _______ _____ _____    ______ ____
ROOT
ATOM      1  C   UNL     1       1.687   8.470  19.322  0.00  0.00    +0.000 C 
ATOM      2  C   UNL     1       1.071   9.418  18.589  0.00  0.00    +0.000 C 
ATOM      3  C   UNL     1       0.193  10.472  19.256  0.00  0.00    +0.000 C 
ATOM      4  N   UNL     1       0.018  10.204  20.689  0.00  0.00    +0.000 N 
ATOM      5  N   UNL     1      -0.759  10.927  21.522  0.00  0.00    +0.000 NA
ATOM      6  C   UNL     1      -0.561  10.276  22.673  0.00  0.00    +0.000 A 
ATOM      7  N   UNL     1       0.333   9.237  22.626  0.00  0.00    +0.000 NA
ATOM      8  C   UNL     1       0.689   9.214  21.367  0.00  0.00    +0.000 A 
ATOM      9  N   UNL     1       1.532   8.408  20.692  0.00  0.00    +0.000 N 
ATOM     10  H   UNL     1       2.039   7.685  21.191  0.00  0.00    +0.000 HD
ENDROOT
BRANCH   3  11
ATOM     11  C   UNL     1      -1.153  10.631  18.561  0.00  0.00    +0.000 A 
ATOM     12  C   UNL     1      -1.464   9.904  17.385  0.00  0.00    +0.000 A 
ATOM     13  C   UNL     1      -2.719  10.019  16.777  0.00  0.00    +0.000 A 
ATOM     14  C   UNL     1      -3.638  10.866  17.354  0.00  0.00    +0.000 A 
ATOM     15  C   UNL     1      -3.346  11.585  18.488  0.00  0.00    +0.000 A 
ATOM     16  C   UNL     1      -2.121  11.491  19.114  0.00  0.00    +0.000 A 
ATOM     17  O   UNL     1      -4.386  12.360  18.894  0.00  0.00    +0.000 OA
ATOM     18  C   UNL     1      -5.359  12.066  17.870  0.00  0.00    +0.000 C 
ATOM     19  O   UNL     1      -4.901  11.094  16.905  0.00  0.00    +0.000 OA
ENDBRANCH   3  11
BRANCH   1  24
ATOM     20 BR   UNL     1       5.166   4.165  16.618  0.00  0.00    +0.000 Br
ATOM     21  C   UNL     1       4.104   5.489  17.451  0.00  0.00    +0.000 A 
ATOM     22  C   UNL     1       4.184   6.812  17.021  0.00  0.00    +0.000 A 
ATOM     23  C   UNL     1       3.396   7.792  17.634  0.00  0.00    +0.000 A 
ATOM     24  C   UNL     1       2.526   7.449  18.678  0.00  0.00    +0.000 A 
ATOM     25  C   UNL     1       2.458   6.114  19.103  0.00  0.00    +0.000 A 
ATOM     26  C   UNL     1       3.246   5.136  18.491  0.00  0.00    +0.000 A 
ENDBRANCH   1  24
TORSDOF 2
ENDMDL
