MODEL 1
REMARK VINA RESULT:      -8.8      0.000      0.000
REMARK  Name = 
REMARK  6 active torsions:
REMARK  status: ('A' for Active; 'I' for Inactive)
REMARK    1  A    between atoms: C_2  and  C_16
REMARK    2  A    between atoms: N_3  and  C_4
REMARK    3  A    between atoms: N_7  and  C_8
REMARK    4  A    between atoms: C_8  and  C_9
REMARK    5  A    between atoms: C_19  and  C_20
REMARK    6  A    between atoms: C_20  and  N_21
REMARK                            x       y       z     vdW  Elec       q    Type
REMARK                         _______ _______ _______ _____ _____    ______ ____
ROOT
ATOM      1  O   UNL     1       1.521   8.978  21.929  0.00  0.00    +0.000 OA
ATOM      2  C   UNL     1       1.349   8.865  20.719  0.00  0.00    +0.000 C 
ATOM      3  N   UNL     1       0.783   9.868  19.950  0.00  0.00    +0.000 N 
ATOM      4  H   UNL     1       0.443   9.640  19.021  0.00  0.00    +0.000 HD
ENDROOT
BRANCH   2   5
ATOM      5  C   UNL     1       1.736   7.592  20.039  0.00  0.00    +0.000 A 
ATOM      6  C   UNL     1       1.544   6.396  20.742  0.00  0.00    +0.000 A 
ATOM      7  C   UNL     1       1.949   5.176  20.198  0.00  0.00    +0.000 A 
ATOM      8  C   UNL     1       2.565   5.127  18.941  0.00  0.00    +0.000 A 
ATOM      9  C   UNL     1       2.739   6.329  18.231  0.00  0.00    +0.000 A 
ATOM     10  C   UNL     1       2.334   7.556  18.775  0.00  0.00    +0.000 A 
BRANCH   8  11
ATOM     11  C   UNL     1       2.943   3.792  18.317  0.00  0.00    +0.000 C 
BRANCH  11  12
ATOM     12  N   UNL     1       4.393   3.663  18.270  0.00  0.00    +0.000 N 
ATOM     13  N   UNL     1       5.080   3.659  19.438  0.00  0.00    +0.000 NA
ATOM     14  N   UNL     1       6.191   4.348  19.233  0.00  0.00    +0.000 NA
ATOM     15  C   UNL     1       6.251   4.673  17.902  0.00  0.00    +0.000 A 
ATOM     16  C   UNL     1       7.138   5.492  17.196  0.00  0.00    +0.000 A 
ATOM     17  C   UNL     1       6.954   5.638  15.814  0.00  0.00    +0.000 A 
ATOM     18  C   UNL     1       5.938   4.948  15.147  0.00  0.00    +0.000 A 
ATOM     19  C   UNL     1       5.022   4.151  15.841  0.00  0.00    +0.000 A 
ATOM     20  C   UNL     1       5.194   4.085  17.228  0.00  0.00    +0.000 A 
ENDBRANCH  11  12
ENDBRANCH   8  11
ENDBRANCH   2   5
BRANCH   3  21
ATOM     21  C   UNL     1       0.292  11.093  20.580  0.00  0.00    +0.000 C 
ATOM     22  C   UNL     1      -1.044  11.516  19.987  0.00  0.00    +0.000 C 
ATOM     23  C   UNL     1      -0.618  12.361  18.801  0.00  0.00    +0.000 C 
ATOM     24  N   UNL     1       0.536  13.147  19.274  0.00  0.00    +0.000 NA
ATOM     25  C   UNL     1       1.194  12.312  20.312  0.00  0.00    +0.000 C 
BRANCH  24  26
ATOM     26  C   UNL     1       0.081  14.448  19.808  0.00  0.00    +0.000 C 
BRANCH  26  27
ATOM     27  C   UNL     1       0.485  15.637  18.962  0.00  0.00    +0.000 A 
ATOM     28  C   UNL     1       1.831  15.874  18.649  0.00  0.00    +0.000 A 
ATOM     29  C   UNL     1       2.197  16.980  17.877  0.00  0.00    +0.000 A 
ATOM     30  C   UNL     1       1.219  17.853  17.403  0.00  0.00    +0.000 A 
ATOM     31  C   UNL     1      -0.126  17.622  17.689  0.00  0.00    +0.000 A 
ATOM     32  C   UNL     1      -0.490  16.515  18.460  0.00  0.00    +0.000 A 
ENDBRANCH  26  27
ENDBRANCH  24  26
ENDBRANCH   3  21
TORSDOF 6
ENDMDL
MODEL 2
REMARK VINA RESULT:      -8.5      0.428      1.320
REMARK  Name = 
REMARK  6 active torsions:
REMARK  status: ('A' for Active; 'I' for Inactive)
REMARK    1  A    between atoms: C_2  and  C_16
REMARK    2  A    between atoms: N_3  and  C_4
REMARK    3  A    between atoms: N_7  and  C_8
REMARK    4  A    between atoms: C_8  and  C_9
REMARK    5  A    between atoms: C_19  and  C_20
REMARK    6  A    between atoms: C_20  and  N_21
REMARK                            x       y       z     vdW  Elec       q    Type
REMARK                         _______ _______ _______ _____ _____    ______ ____
ROOT
ATOM      1  O   UNL     1       1.230   8.949  22.031  0.00  0.00    +0.000 OA
ATOM      2  C   UNL     1       1.256   8.881  20.806  0.00  0.00    +0.000 C 
ATOM      3  N   UNL     1       0.864   9.931  19.993  0.00  0.00    +0.000 N 
ATOM      4  H   UNL     1       0.674   9.748  19.013  0.00  0.00    +0.000 HD
ENDROOT
BRANCH   2   5
ATOM      5  C   UNL     1       1.699   7.613  20.151  0.00  0.00    +0.000 A 
ATOM      6  C   UNL     1       2.214   7.700  18.852  0.00  0.00    +0.000 A 
ATOM      7  C   UNL     1       2.581   6.550  18.151  0.00  0.00    +0.000 A 
ATOM      8  C   UNL     1       2.430   5.285  18.733  0.00  0.00    +0.000 A 
ATOM      9  C   UNL     1       1.930   5.203  20.046  0.00  0.00    +0.000 A 
ATOM     10  C   UNL     1       1.560   6.358  20.751  0.00  0.00    +0.000 A 
BRANCH   8  11
ATOM     11  C   UNL     1       2.894   4.036  17.998  0.00  0.00    +0.000 C 
BRANCH  11  12
ATOM     12  N   UNL     1       4.338   3.893  18.130  0.00  0.00    +0.000 N 
ATOM     13  N   UNL     1       4.841   3.501  19.324  0.00  0.00    +0.000 NA
ATOM     14  N   UNL     1       5.953   4.192  19.519  0.00  0.00    +0.000 NA
ATOM     15  C   UNL     1       6.204   4.923  18.387  0.00  0.00    +0.000 A 
ATOM     16  C   UNL     1       7.165   5.903  18.120  0.00  0.00    +0.000 A 
ATOM     17  C   UNL     1       7.187   6.488  16.847  0.00  0.00    +0.000 A 
ATOM     18  C   UNL     1       6.299   6.072  15.850  0.00  0.00    +0.000 A 
ATOM     19  C   UNL     1       5.310   5.117  16.108  0.00  0.00    +0.000 A 
ATOM     20  C   UNL     1       5.274   4.607  17.409  0.00  0.00    +0.000 A 
ENDBRANCH  11  12
ENDBRANCH   8  11
ENDBRANCH   2   5
BRANCH   3  21
ATOM     21  C   UNL     1       0.325  11.157  20.579  0.00  0.00    +0.000 C 
ATOM     22  C   UNL     1      -0.986  11.553  19.913  0.00  0.00    +0.000 C 
ATOM     23  C   UNL     1      -0.511  12.388  18.738  0.00  0.00    +0.000 C 
ATOM     24  N   UNL     1       0.606  13.197  19.258  0.00  0.00    +0.000 NA
ATOM     25  C   UNL     1       1.221  12.386  20.340  0.00  0.00    +0.000 C 
BRANCH  24  26
ATOM     26  C   UNL     1       0.106  14.498  19.750  0.00  0.00    +0.000 C 
BRANCH  26  27
ATOM     27  C   UNL     1       0.529  15.681  18.903  0.00  0.00    +0.000 A 
ATOM     28  C   UNL     1      -0.415  16.604  18.433  0.00  0.00    +0.000 A 
ATOM     29  C   UNL     1      -0.018  17.687  17.643  0.00  0.00    +0.000 A 
ATOM     30  C   UNL     1       1.328  17.860  17.324  0.00  0.00    +0.000 A 
ATOM     31  C   UNL     1       2.283  16.960  17.799  0.00  0.00    +0.000 A 
ATOM     32  C   UNL     1       1.884  15.880  18.589  0.00  0.00    +0.000 A 
ENDBRANCH  26  27
ENDBRANCH  24  26
ENDBRANCH   3  21
TORSDOF 6
ENDMDL
MODEL 3
REMARK VINA RESULT:      -8.4      0.904      1.349
REMARK  Name = 
REMARK  6 active torsions:
REMARK  status: ('A' for Active; 'I' for Inactive)
REMARK    1  A    between atoms: C_2  and  C_16
REMARK    2  A    between atoms: N_3  and  C_4
REMARK    3  A    between atoms: N_7  and  C_8
REMARK    4  A    between atoms: C_8  and  C_9
REMARK    5  A    between atoms: C_19  and  C_20
REMARK    6  A    between atoms: C_20  and  N_21
REMARK                            x       y       z     vdW  Elec       q    Type
REMARK                         _______ _______ _______ _____ _____    ______ ____
ROOT
ATOM      1  O   UNL     1       0.992   9.439  21.685  0.00  0.00    +0.000 OA
ATOM      2  C   UNL     1       1.221   9.468  20.480  0.00  0.00    +0.000 C 
ATOM      3  N   UNL     1       1.056  10.612  19.717  0.00  0.00    +0.000 N 
ATOM      4  H   UNL     1       1.022  10.526  18.706  0.00  0.00    +0.000 HD
ENDROOT
BRANCH   2   5
ATOM      5  C   UNL     1       1.670   8.222  19.789  0.00  0.00    +0.000 A 
ATOM      6  C   UNL     1       1.735   7.046  20.547  0.00  0.00    +0.000 A 
ATOM      7  C   UNL     1       2.214   5.861  19.987  0.00  0.00    +0.000 A 
ATOM      8  C   UNL     1       2.650   5.829  18.657  0.00  0.00    +0.000 A 
ATOM      9  C   UNL     1       2.566   7.007  17.893  0.00  0.00    +0.000 A 
ATOM     10  C   UNL     1       2.085   8.199  18.454  0.00  0.00    +0.000 A 
BRANCH   8  11
ATOM     11  C   UNL     1       3.107   4.523  18.025  0.00  0.00    +0.000 C 
BRANCH  11  12
ATOM     12  N   UNL     1       4.536   4.341  18.246  0.00  0.00    +0.000 N 
ATOM     13  N   UNL     1       4.945   3.815  19.424  0.00  0.00    +0.000 NA
ATOM     14  N   UNL     1       6.047   4.462  19.772  0.00  0.00    +0.000 NA
ATOM     15  C   UNL     1       6.388   5.305  18.746  0.00  0.00    +0.000 A 
ATOM     16  C   UNL     1       7.376   6.290  18.656  0.00  0.00    +0.000 A 
ATOM     17  C   UNL     1       7.498   7.005  17.457  0.00  0.00    +0.000 A 
ATOM     18  C   UNL     1       6.683   6.713  16.360  0.00  0.00    +0.000 A 
ATOM     19  C   UNL     1       5.668   5.754  16.441  0.00  0.00    +0.000 A 
ATOM     20  C   UNL     1       5.530   5.110  17.675  0.00  0.00    +0.000 A 
ENDBRANCH  11  12
ENDBRANCH   8  11
ENDBRANCH   2   5
BRANCH   3  21
ATOM     21  C   UNL     1       0.521  11.831  20.320  0.00  0.00    +0.000 C 
ATOM     22  C   UNL     1      -0.861  12.155  19.770  0.00  0.00    +0.000 C 
ATOM     23  C   UNL     1      -0.532  12.975  18.535  0.00  0.00    +0.000 C 
ATOM     24  N   UNL     1       0.593  13.843  18.930  0.00  0.00    +0.000 NA
ATOM     25  C   UNL     1       1.339  13.088  19.969  0.00  0.00    +0.000 C 
BRANCH  24  26
ATOM     26  C   UNL     1       0.085  15.136  19.434  0.00  0.00    +0.000 C 
BRANCH  26  27
ATOM     27  C   UNL     1       0.371  16.309  18.519  0.00  0.00    +0.000 A 
ATOM     28  C   UNL     1      -0.667  17.125  18.049  0.00  0.00    +0.000 A 
ATOM     29  C   UNL     1      -0.397  18.199  17.197  0.00  0.00    +0.000 A 
ATOM     30  C   UNL     1       0.917  18.471  16.814  0.00  0.00    +0.000 A 
ATOM     31  C   UNL     1       1.963  17.680  17.288  0.00  0.00    +0.000 A 
ATOM     32  C   UNL     1       1.690  16.608  18.141  0.00  0.00    +0.000 A 
ENDBRANCH  26  27
ENDBRANCH  24  26
ENDBRANCH   3  21
TORSDOF 6
ENDMDL
MODEL 4
REMARK VINA RESULT:      -8.4      3.039      5.272
REMARK  Name = 
REMARK  6 active torsions:
REMARK  status: ('A' for Active; 'I' for Inactive)
REMARK    1  A    between atoms: C_2  and  C_16
REMARK    2  A    between atoms: N_3  and  C_4
REMARK    3  A    between atoms: N_7  and  C_8
REMARK    4  A    between atoms: C_8  and  C_9
REMARK    5  A    between atoms: C_19  and  C_20
REMARK    6  A    between atoms: C_20  and  N_21
REMARK                            x       y       z     vdW  Elec       q    Type
REMARK                         _______ _______ _______ _____ _____    ______ ____
ROOT
ATOM      1  O   UNL     1      -0.137   9.877  17.892  0.00  0.00    +0.000 OA
ATOM      2  C   UNL     1       0.711   9.830  18.777  0.00  0.00    +0.000 C 
ATOM      3  N   UNL     1       0.810  10.794  19.766  0.00  0.00    +0.000 N 
ATOM      4  H   UNL     1       1.660  10.843  20.319  0.00  0.00    +0.000 HD
ENDROOT
BRANCH   2   5
ATOM      5  C   UNL     1       1.699   8.709  18.786  0.00  0.00    +0.000 A 
ATOM      6  C   UNL     1       2.511   8.550  17.656  0.00  0.00    +0.000 A 
ATOM      7  C   UNL     1       3.406   7.483  17.565  0.00  0.00    +0.000 A 
ATOM      8  C   UNL     1       3.500   6.544  18.600  0.00  0.00    +0.000 A 
ATOM      9  C   UNL     1       2.696   6.718  19.741  0.00  0.00    +0.000 A 
ATOM     10  C   UNL     1       1.796   7.789  19.835  0.00  0.00    +0.000 A 
BRANCH   8  11
ATOM     11  C   UNL     1       4.524   5.420  18.533  0.00  0.00    +0.000 C 
BRANCH  11  12
ATOM     12  N   UNL     1       3.853   4.158  18.255  0.00  0.00    +0.000 N 
ATOM     13  N   UNL     1       3.470   3.896  16.983  0.00  0.00    +0.000 NA
ATOM     14  N   UNL     1       2.294   3.292  17.051  0.00  0.00    +0.000 NA
ATOM     15  C   UNL     1       2.007   3.069  18.373  0.00  0.00    +0.000 A 
ATOM     16  C   UNL     1       0.849   2.587  18.992  0.00  0.00    +0.000 A 
ATOM     17  C   UNL     1       0.844   2.458  20.388  0.00  0.00    +0.000 A 
ATOM     18  C   UNL     1       1.981   2.759  21.142  0.00  0.00    +0.000 A 
ATOM     19  C   UNL     1       3.137   3.273  20.544  0.00  0.00    +0.000 A 
ATOM     20  C   UNL     1       3.081   3.455  19.158  0.00  0.00    +0.000 A 
ENDBRANCH  11  12
ENDBRANCH   8  11
ENDBRANCH   2   5
BRANCH   3  21
ATOM     21  C   UNL     1      -0.064  11.965  19.747  0.00  0.00    +0.000 C 
ATOM     22  C   UNL     1       0.370  12.991  20.783  0.00  0.00    +0.000 C 
ATOM     23  C   UNL     1      -0.370  12.527  22.025  0.00  0.00    +0.000 C 
ATOM     24  N   UNL     1      -1.705  12.116  21.555  0.00  0.00    +0.000 NA
ATOM     25  C   UNL     1      -1.513  11.644  20.159  0.00  0.00    +0.000 C 
BRANCH  24  26
ATOM     26  C   UNL     1      -2.646  13.252  21.637  0.00  0.00    +0.000 C 
BRANCH  26  27
ATOM     27  C   UNL     1      -3.815  13.019  22.572  0.00  0.00    +0.000 A 
ATOM     28  C   UNL     1      -3.610  12.548  23.876  0.00  0.00    +0.000 A 
ATOM     29  C   UNL     1      -4.694  12.324  24.730  0.00  0.00    +0.000 A 
ATOM     30  C   UNL     1      -5.992  12.578  24.288  0.00  0.00    +0.000 A 
ATOM     31  C   UNL     1      -6.212  13.065  23.000  0.00  0.00    +0.000 A 
ATOM     32  C   UNL     1      -5.127  13.289  22.149  0.00  0.00    +0.000 A 
ENDBRANCH  26  27
ENDBRANCH  24  26
ENDBRANCH   3  21
TORSDOF 6
ENDMDL
MODEL 5
REMARK VINA RESULT:      -8.3      2.794      4.191
REMARK  Name = 
REMARK  6 active torsions:
REMARK  status: ('A' for Active; 'I' for Inactive)
REMARK    1  A    between atoms: C_2  and  C_16
REMARK    2  A    between atoms: N_3  and  C_4
REMARK    3  A    between atoms: N_7  and  C_8
REMARK    4  A    between atoms: C_8  and  C_9
REMARK    5  A    between atoms: C_19  and  C_20
REMARK    6  A    between atoms: C_20  and  N_21
REMARK                            x       y       z     vdW  Elec       q    Type
REMARK                         _______ _______ _______ _____ _____    ______ ____
ROOT
ATOM      1  O   UNL     1       2.085  10.500  18.093  0.00  0.00    +0.000 OA
ATOM      2  C   UNL     1       1.549   9.656  18.804  0.00  0.00    +0.000 C 
ATOM      3  N   UNL     1       0.482   9.951  19.637  0.00  0.00    +0.000 N 
ATOM      4  H   UNL     1       0.237   9.294  20.370  0.00  0.00    +0.000 HD
ENDROOT
BRANCH   2   5
ATOM      5  C   UNL     1       2.073   8.256  18.804  0.00  0.00    +0.000 A 
ATOM      6  C   UNL     1       1.919   7.505  19.975  0.00  0.00    +0.000 A 
ATOM      7  C   UNL     1       2.447   6.217  20.072  0.00  0.00    +0.000 A 
ATOM      8  C   UNL     1       3.151   5.655  18.999  0.00  0.00    +0.000 A 
ATOM      9  C   UNL     1       3.288   6.406  17.817  0.00  0.00    +0.000 A 
ATOM     10  C   UNL     1       2.758   7.701  17.719  0.00  0.00    +0.000 A 
BRANCH   8  11
ATOM     11  C   UNL     1       3.667   4.226  19.077  0.00  0.00    +0.000 C 
BRANCH  11  12
ATOM     12  N   UNL     1       5.093   4.199  18.781  0.00  0.00    +0.000 N 
ATOM     13  N   UNL     1       5.949   4.742  19.680  0.00  0.00    +0.000 NA
ATOM     14  N   UNL     1       6.892   5.362  18.987  0.00  0.00    +0.000 NA
ATOM     15  C   UNL     1       6.687   5.097  17.658  0.00  0.00    +0.000 A 
ATOM     16  C   UNL     1       7.310   5.605  16.514  0.00  0.00    +0.000 A 
ATOM     17  C   UNL     1       6.887   5.139  15.261  0.00  0.00    +0.000 A 
ATOM     18  C   UNL     1       5.898   4.158  15.156  0.00  0.00    +0.000 A 
ATOM     19  C   UNL     1       5.241   3.661  16.287  0.00  0.00    +0.000 A 
ATOM     20  C   UNL     1       5.640   4.201  17.514  0.00  0.00    +0.000 A 
ENDBRANCH  11  12
ENDBRANCH   8  11
ENDBRANCH   2   5
BRANCH   3  21
ATOM     21  C   UNL     1      -0.004  11.324  19.755  0.00  0.00    +0.000 C 
ATOM     22  C   UNL     1       0.612  12.024  20.957  0.00  0.00    +0.000 C 
ATOM     23  C   UNL     1      -0.343  11.647  22.075  0.00  0.00    +0.000 C 
ATOM     24  N   UNL     1      -1.690  11.726  21.481  0.00  0.00    +0.000 NA
ATOM     25  C   UNL     1      -1.515  11.407  20.041  0.00  0.00    +0.000 C 
BRANCH  24  26
ATOM     26  C   UNL     1      -2.261  13.073  21.691  0.00  0.00    +0.000 C 
BRANCH  26  27
ATOM     27  C   UNL     1      -3.554  13.079  22.480  0.00  0.00    +0.000 A 
ATOM     28  C   UNL     1      -4.734  13.593  21.925  0.00  0.00    +0.000 A 
ATOM     29  C   UNL     1      -5.920  13.605  22.663  0.00  0.00    +0.000 A 
ATOM     30  C   UNL     1      -5.938  13.095  23.961  0.00  0.00    +0.000 A 
ATOM     31  C   UNL     1      -4.777  12.563  24.522  0.00  0.00    +0.000 A 
ATOM     32  C   UNL     1      -3.593  12.551  23.781  0.00  0.00    +0.000 A 
ENDBRANCH  26  27
ENDBRANCH  24  26
ENDBRANCH   3  21
TORSDOF 6
ENDMDL
MODEL 6
REMARK VINA RESULT:      -8.3      2.898      4.205
REMARK  Name = 
REMARK  6 active torsions:
REMARK  status: ('A' for Active; 'I' for Inactive)
REMARK    1  A    between atoms: C_2  and  C_16
REMARK    2  A    between atoms: N_3  and  C_4
REMARK    3  A    between atoms: N_7  and  C_8
REMARK    4  A    between atoms: C_8  and  C_9
REMARK    5  A    between atoms: C_19  and  C_20
REMARK    6  A    between atoms: C_20  and  N_21
REMARK                            x       y       z     vdW  Elec       q    Type
REMARK                         _______ _______ _______ _____ _____    ______ ____
ROOT
ATOM      1  O   UNL     1       2.027  10.118  18.001  0.00  0.00    +0.000 OA
ATOM      2  C   UNL     1       1.610   9.334  18.848  0.00  0.00    +0.000 C 
ATOM      3  N   UNL     1       0.665   9.694  19.795  0.00  0.00    +0.000 N 
ATOM      4  H   UNL     1       0.535   9.100  20.607  0.00  0.00    +0.000 HD
ENDROOT
BRANCH   2   5
ATOM      5  C   UNL     1       2.151   7.942  18.890  0.00  0.00    +0.000 A 
ATOM      6  C   UNL     1       2.726   7.434  17.718  0.00  0.00    +0.000 A 
ATOM      7  C   UNL     1       3.187   6.118  17.662  0.00  0.00    +0.000 A 
ATOM      8  C   UNL     1       3.071   5.276  18.776  0.00  0.00    +0.000 A 
ATOM      9  C   UNL     1       2.509   5.796  19.956  0.00  0.00    +0.000 A 
ATOM     10  C   UNL     1       2.045   7.118  20.015  0.00  0.00    +0.000 A 
BRANCH   8  11
ATOM     11  C   UNL     1       3.635   3.864  18.739  0.00  0.00    +0.000 C 
BRANCH  11  12
ATOM     12  N   UNL     1       5.072   3.912  18.503  0.00  0.00    +0.000 N 
ATOM     13  N   UNL     1       5.868   4.422  19.472  0.00  0.00    +0.000 NA
ATOM     14  N   UNL     1       6.812   5.125  18.865  0.00  0.00    +0.000 NA
ATOM     15  C   UNL     1       6.671   4.947  17.513  0.00  0.00    +0.000 A 
ATOM     16  C   UNL     1       7.317   5.558  16.434  0.00  0.00    +0.000 A 
ATOM     17  C   UNL     1       6.964   5.166  15.135  0.00  0.00    +0.000 A 
ATOM     18  C   UNL     1       6.021   4.158  14.921  0.00  0.00    +0.000 A 
ATOM     19  C   UNL     1       5.340   3.558  15.986  0.00  0.00    +0.000 A 
ATOM     20  C   UNL     1       5.668   4.024  17.263  0.00  0.00    +0.000 A 
ENDBRANCH  11  12
ENDBRANCH   8  11
ENDBRANCH   2   5
BRANCH   3  21
ATOM     21  C   UNL     1       0.177  11.070  19.865  0.00  0.00    +0.000 C 
ATOM     22  C   UNL     1       0.681  11.767  21.121  0.00  0.00    +0.000 C 
ATOM     23  C   UNL     1      -0.378  11.397  22.142  0.00  0.00    +0.000 C 
ATOM     24  N   UNL     1      -1.662  11.483  21.424  0.00  0.00    +0.000 NA
ATOM     25  C   UNL     1      -1.354  11.162  20.007  0.00  0.00    +0.000 C 
BRANCH  24  26
ATOM     26  C   UNL     1      -2.242  12.834  21.578  0.00  0.00    +0.000 C 
BRANCH  26  27
ATOM     27  C   UNL     1      -3.511  12.870  22.404  0.00  0.00    +0.000 A 
ATOM     28  C   UNL     1      -3.484  12.595  23.778  0.00  0.00    +0.000 A 
ATOM     29  C   UNL     1      -4.660  12.619  24.532  0.00  0.00    +0.000 A 
ATOM     30  C   UNL     1      -5.874  12.927  23.919  0.00  0.00    +0.000 A 
ATOM     31  C   UNL     1      -5.916  13.222  22.556  0.00  0.00    +0.000 A 
ATOM     32  C   UNL     1      -4.739  13.198  21.805  0.00  0.00    +0.000 A 
ENDBRANCH  26  27
ENDBRANCH  24  26
ENDBRANCH   3  21
TORSDOF 6
ENDMDL
MODEL 7
REMARK VINA RESULT:      -8.2      0.939      1.291
REMARK  Name = 
REMARK  6 active torsions:
REMARK  status: ('A' for Active; 'I' for Inactive)
REMARK    1  A    between atoms: C_2  and  C_16
REMARK    2  A    between atoms: N_3  and  C_4
REMARK    3  A    between atoms: N_7  and  C_8
REMARK    4  A    between atoms: C_8  and  C_9
REMARK    5  A    between atoms: C_19  and  C_20
REMARK    6  A    between atoms: C_20  and  N_21
REMARK                            x       y       z     vdW  Elec       q    Type
REMARK                         _______ _______ _______ _____ _____    ______ ____
ROOT
ATOM      1  O   UNL     1       1.655   8.877  21.883  0.00  0.00    +0.000 OA
ATOM      2  C   UNL     1       1.377   8.625  20.714  0.00  0.00    +0.000 C 
ATOM      3  N   UNL     1       0.661   9.498  19.913  0.00  0.00    +0.000 N 
ATOM      4  H   UNL     1       0.254   9.150  19.051  0.00  0.00    +0.000 HD
ENDROOT
BRANCH   2   5
ATOM      5  C   UNL     1       1.799   7.318  20.126  0.00  0.00    +0.000 A 
ATOM      6  C   UNL     1       2.424   7.342  18.873  0.00  0.00    +0.000 A 
ATOM      7  C   UNL     1       2.780   6.155  18.230  0.00  0.00    +0.000 A 
ATOM      8  C   UNL     1       2.508   4.916  18.824  0.00  0.00    +0.000 A 
ATOM      9  C   UNL     1       1.897   4.897  20.091  0.00  0.00    +0.000 A 
ATOM     10  C   UNL     1       1.538   6.088  20.738  0.00  0.00    +0.000 A 
BRANCH   8  11
ATOM     11  C   UNL     1       2.957   3.624  18.157  0.00  0.00    +0.000 C 
BRANCH  11  12
ATOM     12  N   UNL     1       4.412   3.549  18.158  0.00  0.00    +0.000 N 
ATOM     13  N   UNL     1       5.058   3.556  19.348  0.00  0.00    +0.000 NA
ATOM     14  N   UNL     1       6.150   4.288  19.189  0.00  0.00    +0.000 NA
ATOM     15  C   UNL     1       6.242   4.631  17.865  0.00  0.00    +0.000 A 
ATOM     16  C   UNL     1       7.121   5.491  17.199  0.00  0.00    +0.000 A 
ATOM     17  C   UNL     1       6.979   5.649  15.813  0.00  0.00    +0.000 A 
ATOM     18  C   UNL     1       6.011   4.931  15.105  0.00  0.00    +0.000 A 
ATOM     19  C   UNL     1       5.103   4.091  15.758  0.00  0.00    +0.000 A 
ATOM     20  C   UNL     1       5.231   4.014  17.148  0.00  0.00    +0.000 A 
ENDBRANCH  11  12
ENDBRANCH   8  11
ENDBRANCH   2   5
BRANCH   3  21
ATOM     21  C   UNL     1       0.135  10.745  20.466  0.00  0.00    +0.000 C 
ATOM     22  C   UNL     1      -1.164  11.144  19.781  0.00  0.00    +0.000 C 
ATOM     23  C   UNL     1      -0.667  11.945  18.591  0.00  0.00    +0.000 C 
ATOM     24  N   UNL     1       0.457  12.750  19.102  0.00  0.00    +0.000 NA
ATOM     25  C   UNL     1       1.052  11.955  20.207  0.00  0.00    +0.000 C 
BRANCH  24  26
ATOM     26  C   UNL     1      -0.027  14.069  19.560  0.00  0.00    +0.000 C 
BRANCH  26  27
ATOM     27  C   UNL     1       1.014  15.167  19.488  0.00  0.00    +0.000 A 
ATOM     28  C   UNL     1       2.122  15.054  18.637  0.00  0.00    +0.000 A 
ATOM     29  C   UNL     1       3.084  16.066  18.584  0.00  0.00    +0.000 A 
ATOM     30  C   UNL     1       2.941  17.205  19.377  0.00  0.00    +0.000 A 
ATOM     31  C   UNL     1       1.835  17.341  20.216  0.00  0.00    +0.000 A 
ATOM     32  C   UNL     1       0.874  16.328  20.266  0.00  0.00    +0.000 A 
ENDBRANCH  26  27
ENDBRANCH  24  26
ENDBRANCH   3  21
TORSDOF 6
ENDMDL
MODEL 8
REMARK VINA RESULT:      -8.2      0.847      1.364
REMARK  Name = 
REMARK  6 active torsions:
REMARK  status: ('A' for Active; 'I' for Inactive)
REMARK    1  A    between atoms: C_2  and  C_16
REMARK    2  A    between atoms: N_3  and  C_4
REMARK    3  A    between atoms: N_7  and  C_8
REMARK    4  A    between atoms: C_8  and  C_9
REMARK    5  A    between atoms: C_19  and  C_20
REMARK    6  A    between atoms: C_20  and  N_21
REMARK                            x       y       z     vdW  Elec       q    Type
REMARK                         _______ _______ _______ _____ _____    ______ ____
ROOT
ATOM      1  O   UNL     1       0.512   8.918  21.604  0.00  0.00    +0.000 OA
ATOM      2  C   UNL     1       1.091   9.051  20.531  0.00  0.00    +0.000 C 
ATOM      3  N   UNL     1       1.185  10.271  19.882  0.00  0.00    +0.000 N 
ATOM      4  H   UNL     1       1.453  10.286  18.903  0.00  0.00    +0.000 HD
ENDROOT
BRANCH   2   5
ATOM      5  C   UNL     1       1.700   7.857  19.872  0.00  0.00    +0.000 A 
ATOM      6  C   UNL     1       2.276   8.036  18.609  0.00  0.00    +0.000 A 
ATOM      7  C   UNL     1       2.800   6.951  17.903  0.00  0.00    +0.000 A 
ATOM      8  C   UNL     1       2.748   5.660  18.443  0.00  0.00    +0.000 A 
ATOM      9  C   UNL     1       2.185   5.488  19.721  0.00  0.00    +0.000 A 
ATOM     10  C   UNL     1       1.658   6.576  20.431  0.00  0.00    +0.000 A 
BRANCH   8  11
ATOM     11  C   UNL     1       3.380   4.489  17.706  0.00  0.00    +0.000 C 
BRANCH  11  12
ATOM     12  N   UNL     1       4.771   4.342  18.114  0.00  0.00    +0.000 N 
ATOM     13  N   UNL     1       5.035   3.816  19.333  0.00  0.00    +0.000 NA
ATOM     14  N   UNL     1       6.062   4.488  19.828  0.00  0.00    +0.000 NA
ATOM     15  C   UNL     1       6.514   5.348  18.861  0.00  0.00    +0.000 A 
ATOM     16  C   UNL     1       7.479   6.359  18.909  0.00  0.00    +0.000 A 
ATOM     17  C   UNL     1       7.739   7.089  17.741  0.00  0.00    +0.000 A 
ATOM     18  C   UNL     1       7.085   6.786  16.544  0.00  0.00    +0.000 A 
ATOM     19  C   UNL     1       6.094   5.800  16.484  0.00  0.00    +0.000 A 
ATOM     20  C   UNL     1       5.811   5.142  17.685  0.00  0.00    +0.000 A 
ENDBRANCH  11  12
ENDBRANCH   8  11
ENDBRANCH   2   5
BRANCH   3  21
ATOM     21  C   UNL     1       0.519  11.452  20.429  0.00  0.00    +0.000 C 
ATOM     22  C   UNL     1      -0.560  11.961  19.485  0.00  0.00    +0.000 C 
ATOM     23  C   UNL     1       0.221  12.890  18.574  0.00  0.00    +0.000 C 
ATOM     24  N   UNL     1       1.165  13.601  19.455  0.00  0.00    +0.000 NA
ATOM     25  C   UNL     1       1.459  12.664  20.570  0.00  0.00    +0.000 C 
BRANCH  24  26
ATOM     26  C   UNL     1       0.563  14.865  19.931  0.00  0.00    +0.000 C 
BRANCH  26  27
ATOM     27  C   UNL     1       0.646  16.001  18.933  0.00  0.00    +0.000 A 
ATOM     28  C   UNL     1       1.875  16.389  18.383  0.00  0.00    +0.000 A 
ATOM     29  C   UNL     1       1.945  17.446  17.471  0.00  0.00    +0.000 A 
ATOM     30  C   UNL     1       0.782  18.117  17.093  0.00  0.00    +0.000 A 
ATOM     31  C   UNL     1      -0.452  17.731  17.616  0.00  0.00    +0.000 A 
ATOM     32  C   UNL     1      -0.519  16.674  18.527  0.00  0.00    +0.000 A 
ENDBRANCH  26  27
ENDBRANCH  24  26
ENDBRANCH   3  21
TORSDOF 6
ENDMDL
MODEL 9
REMARK VINA RESULT:      -8.1      2.652      3.754
REMARK  Name = 
REMARK  6 active torsions:
REMARK  status: ('A' for Active; 'I' for Inactive)
REMARK    1  A    between atoms: C_2  and  C_16
REMARK    2  A    between atoms: N_3  and  C_4
REMARK    3  A    between atoms: N_7  and  C_8
REMARK    4  A    between atoms: C_8  and  C_9
REMARK    5  A    between atoms: C_19  and  C_20
REMARK    6  A    between atoms: C_20  and  N_21
REMARK                            x       y       z     vdW  Elec       q    Type
REMARK                         _______ _______ _______ _____ _____    ______ ____
ROOT
ATOM      1  O   UNL     1       1.919  10.092  17.624  0.00  0.00    +0.000 OA
ATOM      2  C   UNL     1       1.607   9.443  18.617  0.00  0.00    +0.000 C 
ATOM      3  N   UNL     1       0.772   9.944  19.602  0.00  0.00    +0.000 N 
ATOM      4  H   UNL     1       0.739   9.475  20.501  0.00  0.00    +0.000 HD
ENDROOT
BRANCH   2   5
ATOM      5  C   UNL     1       2.161   8.068  18.799  0.00  0.00    +0.000 A 
ATOM      6  C   UNL     1       2.810   7.480  17.706  0.00  0.00    +0.000 A 
ATOM      7  C   UNL     1       3.289   6.171  17.780  0.00  0.00    +0.000 A 
ATOM      8  C   UNL     1       3.118   5.416  18.948  0.00  0.00    +0.000 A 
ATOM      9  C   UNL     1       2.482   6.017  20.050  0.00  0.00    +0.000 A 
ATOM     10  C   UNL     1       2.000   7.332  19.977  0.00  0.00    +0.000 A 
BRANCH   8  11
ATOM     11  C   UNL     1       3.701   4.015  19.055  0.00  0.00    +0.000 C 
BRANCH  11  12
ATOM     12  N   UNL     1       5.127   4.050  18.762  0.00  0.00    +0.000 N 
ATOM     13  N   UNL     1       5.960   4.602  19.675  0.00  0.00    +0.000 NA
ATOM     14  N   UNL     1       6.880   5.274  19.001  0.00  0.00    +0.000 NA
ATOM     15  C   UNL     1       6.687   5.035  17.665  0.00  0.00    +0.000 A 
ATOM     16  C   UNL     1       7.292   5.594  16.535  0.00  0.00    +0.000 A 
ATOM     17  C   UNL     1       6.889   5.143  15.270  0.00  0.00    +0.000 A 
ATOM     18  C   UNL     1       5.938   4.128  15.139  0.00  0.00    +0.000 A 
ATOM     19  C   UNL     1       5.299   3.579  16.256  0.00  0.00    +0.000 A 
ATOM     20  C   UNL     1       5.676   4.103  17.496  0.00  0.00    +0.000 A 
ENDBRANCH  11  12
ENDBRANCH   8  11
ENDBRANCH   2   5
BRANCH   3  21
ATOM     21  C   UNL     1       0.283  11.320  19.526  0.00  0.00    +0.000 C 
ATOM     22  C   UNL     1       0.798  12.149  20.694  0.00  0.00    +0.000 C 
ATOM     23  C   UNL     1      -0.253  11.892  21.759  0.00  0.00    +0.000 C 
ATOM     24  N   UNL     1      -1.543  11.900  21.047  0.00  0.00    +0.000 NA
ATOM     25  C   UNL     1      -1.246  11.426  19.671  0.00  0.00    +0.000 C 
BRANCH  24  26
ATOM     26  C   UNL     1      -2.123  13.259  21.058  0.00  0.00    +0.000 C 
BRANCH  26  27
ATOM     27  C   UNL     1      -2.513  13.751  22.437  0.00  0.00    +0.000 A 
ATOM     28  C   UNL     1      -3.413  13.028  23.231  0.00  0.00    +0.000 A 
ATOM     29  C   UNL     1      -3.777  13.494  24.497  0.00  0.00    +0.000 A 
ATOM     30  C   UNL     1      -3.237  14.685  24.983  0.00  0.00    +0.000 A 
ATOM     31  C   UNL     1      -2.325  15.407  24.213  0.00  0.00    +0.000 A 
ATOM     32  C   UNL     1      -1.962  14.938  22.948  0.00  0.00    +0.000 A 
ENDBRANCH  26  27
ENDBRANCH  24  26
ENDBRANCH   3  21
TORSDOF 6
ENDMDL
