MODEL 1
REMARK VINA RESULT:      -6.7      0.000      0.000
REMARK  Name = 
REMARK  5 active torsions:
REMARK  status: ('A' for Active; 'I' for Inactive)
REMARK    1  A    between atoms: C_1  and  N_2
REMARK    2  A    between atoms: N_5  and  S_6
REMARK    3  A    between atoms: S_6  and  C_9
REMARK    4  A    between atoms: C_15  and  C_16
REMARK    5  A    between atoms: C_15  and  C_17
REMARK                            x       y       z     vdW  Elec       q    Type
REMARK                         _______ _______ _______ _____ _____    ______ ____
ROOT
ATOM      1  S   UNL     1      -1.256  14.003  21.297  0.00  0.00    +0.000 S 
ATOM      2  O   UNL     1       0.064  14.009  21.894  0.00  0.00    +0.000 OA
ATOM      3  O   UNL     1      -1.488  14.714  20.062  0.00  0.00    +0.000 OA
ENDROOT
BRANCH   1   4
ATOM      4  C   UNL     1      -2.379  14.768  22.545  0.00  0.00    +0.000 A 
ATOM      5  C   UNL     1      -2.071  14.432  23.862  0.00  0.00    +0.000 A 
ATOM      6  C   UNL     1      -3.102  14.050  24.720  0.00  0.00    +0.000 A 
ATOM      7  C   UNL     1      -4.376  14.007  24.185  0.00  0.00    +0.000 A 
ATOM      8  C   UNL     1      -4.772  14.839  23.166  0.00  0.00    +0.000 A 
ATOM      9  C   UNL     1      -3.737  15.073  22.201  0.00  0.00    +0.000 A 
ATOM     10  C   UNL     1      -6.229  14.424  22.824  0.00  0.00    +0.000 C 
ATOM     11  C   UNL     1      -7.344  14.117  23.934  0.00  0.00    +0.000 C 
ATOM     12  C   UNL     1      -6.880  15.543  22.034  0.00  0.00    +0.000 C 
ATOM     13  C   UNL     1      -5.857  12.939  22.684  0.00  0.00    +0.000 C 
ATOM     14  O   UNL     1      -6.282  12.086  21.935  0.00  0.00    +0.000 OA
ATOM     15  N   UNL     1      -5.004  12.769  23.850  0.00  0.00    +0.000 N 
ATOM     16  H   UNL     1      -4.658  11.870  24.145  0.00  0.00    +0.000 HD
ENDBRANCH   1   4
BRANCH   1  21
ATOM     17  C   UNL     1      -1.884  10.588  17.061  0.00  0.00    +0.000 C 
ATOM     18  N   UNL     1      -1.901  10.718  18.521  0.00  0.00    +0.000 NA
ATOM     19  C   UNL     1      -2.726  11.895  18.882  0.00  0.00    +0.000 C 
ATOM     20  C   UNL     1      -2.973  12.082  20.380  0.00  0.00    +0.000 C 
ATOM     21  N   UNL     1      -1.726  12.408  21.085  0.00  0.00    +0.000 N 
ATOM     22  C   UNL     1      -0.923  11.297  21.480  0.00  0.00    +0.000 A 
ATOM     23  C   UNL     1      -0.881  10.917  22.828  0.00  0.00    +0.000 A 
ATOM     24  C   UNL     1      -0.297   9.704  23.201  0.00  0.00    +0.000 A 
ATOM     25  C   UNL     1       0.251   8.869  22.230  0.00  0.00    +0.000 A 
ATOM     26  C   UNL     1       0.203   9.242  20.885  0.00  0.00    +0.000 A 
ATOM     27  C   UNL     1      -0.398  10.453  20.494  0.00  0.00    +0.000 A 
ATOM     28  C   UNL     1      -0.519  10.809  19.030  0.00  0.00    +0.000 C 
ENDBRANCH   1  21
TORSDOF 2
ENDMDL
MODEL 2
REMARK VINA RESULT:      -6.6      2.054      2.926
REMARK  Name = 
REMARK  5 active torsions:
REMARK  status: ('A' for Active; 'I' for Inactive)
REMARK    1  A    between atoms: C_1  and  N_2
REMARK    2  A    between atoms: N_5  and  S_6
REMARK    3  A    between atoms: S_6  and  C_9
REMARK    4  A    between atoms: C_15  and  C_16
REMARK    5  A    between atoms: C_15  and  C_17
REMARK                            x       y       z     vdW  Elec       q    Type
REMARK                         _______ _______ _______ _____ _____    ______ ____
ROOT
ATOM      1  S   UNL     1      -1.338  12.780  21.970  0.00  0.00    +0.000 S 
ATOM      2  O   UNL     1      -1.695  11.423  22.328  0.00  0.00    +0.000 OA
ATOM      3  O   UNL     1      -0.142  13.375  22.516  0.00  0.00    +0.000 OA
ENDROOT
BRANCH   1   4
ATOM      4  C   UNL     1      -2.739  13.838  22.538  0.00  0.00    +0.000 A 
ATOM      5  C   UNL     1      -3.030  13.709  23.895  0.00  0.00    +0.000 A 
ATOM      6  C   UNL     1      -4.360  13.567  24.291  0.00  0.00    +0.000 A 
ATOM      7  C   UNL     1      -5.309  13.538  23.286  0.00  0.00    +0.000 A 
ATOM      8  C   UNL     1      -5.144  14.214  22.101  0.00  0.00    +0.000 A 
ATOM      9  C   UNL     1      -3.790  14.192  21.630  0.00  0.00    +0.000 A 
ATOM     10  C   UNL     1      -6.391  13.868  21.242  0.00  0.00    +0.000 C 
ATOM     11  C   UNL     1      -7.885  13.851  21.820  0.00  0.00    +0.000 C 
ATOM     12  C   UNL     1      -6.506  14.885  20.122  0.00  0.00    +0.000 C 
ATOM     13  C   UNL     1      -6.215  12.356  21.452  0.00  0.00    +0.000 C 
ATOM     14  O   UNL     1      -6.429  11.426  20.705  0.00  0.00    +0.000 OA
ATOM     15  N   UNL     1      -5.927  12.318  22.877  0.00  0.00    +0.000 N 
ATOM     16  H   UNL     1      -5.861  11.457  23.396  0.00  0.00    +0.000 HD
ENDBRANCH   1   4
BRANCH   1  21
ATOM     17  C   UNL     1       2.562  12.319  18.153  0.00  0.00    +0.000 C 
ATOM     18  N   UNL     1       1.127  12.479  18.399  0.00  0.00    +0.000 NA
ATOM     19  C   UNL     1       0.934  13.565  19.389  0.00  0.00    +0.000 C 
ATOM     20  C   UNL     1      -0.520  13.964  19.644  0.00  0.00    +0.000 C 
ATOM     21  N   UNL     1      -1.261  12.876  20.297  0.00  0.00    +0.000 N 
ATOM     22  C   UNL     1      -1.812  11.886  19.431  0.00  0.00    +0.000 A 
ATOM     23  C   UNL     1      -3.191  11.870  19.186  0.00  0.00    +0.000 A 
ATOM     24  C   UNL     1      -3.717  11.069  18.170  0.00  0.00    +0.000 A 
ATOM     25  C   UNL     1      -2.868  10.278  17.398  0.00  0.00    +0.000 A 
ATOM     26  C   UNL     1      -1.492  10.299  17.635  0.00  0.00    +0.000 A 
ATOM     27  C   UNL     1      -0.947  11.114  18.644  0.00  0.00    +0.000 A 
ATOM     28  C   UNL     1       0.549  11.194  18.839  0.00  0.00    +0.000 C 
ENDBRANCH   1  21
TORSDOF 2
ENDMDL
MODEL 3
REMARK VINA RESULT:      -6.5      2.520      4.760
REMARK  Name = 
REMARK  5 active torsions:
REMARK  status: ('A' for Active; 'I' for Inactive)
REMARK    1  A    between atoms: C_1  and  N_2
REMARK    2  A    between atoms: N_5  and  S_6
REMARK    3  A    between atoms: S_6  and  C_9
REMARK    4  A    between atoms: C_15  and  C_16
REMARK    5  A    between atoms: C_15  and  C_17
REMARK                            x       y       z     vdW  Elec       q    Type
REMARK                         _______ _______ _______ _____ _____    ______ ____
ROOT
ATOM      1  S   UNL     1      -0.963  13.207  19.204  0.00  0.00    +0.000 S 
ATOM      2  O   UNL     1      -1.716  14.427  19.408  0.00  0.00    +0.000 OA
ATOM      3  O   UNL     1      -0.005  13.126  18.128  0.00  0.00    +0.000 OA
ENDROOT
BRANCH   1   4
ATOM      4  C   UNL     1      -2.213  11.890  18.874  0.00  0.00    +0.000 A 
ATOM      5  C   UNL     1      -2.164  11.378  17.578  0.00  0.00    +0.000 A 
ATOM      6  C   UNL     1      -3.354  11.214  16.871  0.00  0.00    +0.000 A 
ATOM      7  C   UNL     1      -4.517  11.603  17.509  0.00  0.00    +0.000 A 
ATOM      8  C   UNL     1      -4.661  11.541  18.875  0.00  0.00    +0.000 A 
ATOM      9  C   UNL     1      -3.461  11.887  19.578  0.00  0.00    +0.000 A 
ATOM     10  C   UNL     1      -6.069  12.123  19.176  0.00  0.00    +0.000 C 
ATOM     11  C   UNL     1      -7.379  11.753  18.330  0.00  0.00    +0.000 C 
ATOM     12  C   UNL     1      -6.478  11.704  20.576  0.00  0.00    +0.000 C 
ATOM     13  C   UNL     1      -5.808  13.394  18.353  0.00  0.00    +0.000 C 
ATOM     14  O   UNL     1      -6.171  14.537  18.529  0.00  0.00    +0.000 OA
ATOM     15  N   UNL     1      -5.184  12.820  17.171  0.00  0.00    +0.000 N 
ATOM     16  H   UNL     1      -4.971  13.363  16.349  0.00  0.00    +0.000 HD
ENDBRANCH   1   4
BRANCH   1  21
ATOM     17  C   UNL     1      -1.425  14.652  24.467  0.00  0.00    +0.000 C 
ATOM     18  N   UNL     1      -0.746  13.773  23.511  0.00  0.00    +0.000 NA
ATOM     19  C   UNL     1      -0.267  14.592  22.372  0.00  0.00    +0.000 C 
ATOM     20  C   UNL     1       0.600  13.849  21.355  0.00  0.00    +0.000 C 
ATOM     21  N   UNL     1      -0.180  12.830  20.639  0.00  0.00    +0.000 N 
ATOM     22  C   UNL     1      -0.294  11.563  21.283  0.00  0.00    +0.000 A 
ATOM     23  C   UNL     1       0.443  10.473  20.804  0.00  0.00    +0.000 A 
ATOM     24  C   UNL     1       0.528   9.296  21.552  0.00  0.00    +0.000 A 
ATOM     25  C   UNL     1      -0.126   9.203  22.778  0.00  0.00    +0.000 A 
ATOM     26  C   UNL     1      -0.856  10.292  23.261  0.00  0.00    +0.000 A 
ATOM     27  C   UNL     1      -0.935  11.489  22.527  0.00  0.00    +0.000 A 
ATOM     28  C   UNL     1      -1.656  12.689  23.095  0.00  0.00    +0.000 C 
ENDBRANCH   1  21
TORSDOF 2
ENDMDL
MODEL 4
REMARK VINA RESULT:      -6.4      4.166      6.590
REMARK  Name = 
REMARK  5 active torsions:
REMARK  status: ('A' for Active; 'I' for Inactive)
REMARK    1  A    between atoms: C_1  and  N_2
REMARK    2  A    between atoms: N_5  and  S_6
REMARK    3  A    between atoms: S_6  and  C_9
REMARK    4  A    between atoms: C_15  and  C_16
REMARK    5  A    between atoms: C_15  and  C_17
REMARK                            x       y       z     vdW  Elec       q    Type
REMARK                         _______ _______ _______ _____ _____    ______ ____
ROOT
ATOM      1  S   UNL     1      -0.367  13.577  19.707  0.00  0.00    +0.000 S 
ATOM      2  O   UNL     1      -0.301  13.850  18.287  0.00  0.00    +0.000 OA
ATOM      3  O   UNL     1      -1.273  14.330  20.541  0.00  0.00    +0.000 OA
ENDROOT
BRANCH   1   4
ATOM      4  C   UNL     1       1.325  13.906  20.365  0.00  0.00    +0.000 A 
ATOM      5  C   UNL     1       1.337  14.646  21.547  0.00  0.00    +0.000 A 
ATOM      6  C   UNL     1       2.227  15.713  21.668  0.00  0.00    +0.000 A 
ATOM      7  C   UNL     1       3.031  15.980  20.575  0.00  0.00    +0.000 A 
ATOM      8  C   UNL     1       3.447  14.996  19.711  0.00  0.00    +0.000 A 
ATOM      9  C   UNL     1       2.441  14.003  19.471  0.00  0.00    +0.000 A 
ATOM     10  C   UNL     1       4.263  15.721  18.607  0.00  0.00    +0.000 C 
ATOM     11  C   UNL     1       5.342  16.866  18.913  0.00  0.00    +0.000 C 
ATOM     12  C   UNL     1       5.105  14.694  17.872  0.00  0.00    +0.000 C 
ATOM     13  C   UNL     1       3.147  16.743  18.341  0.00  0.00    +0.000 C 
ATOM     14  O   UNL     1       2.789  17.271  17.310  0.00  0.00    +0.000 OA
ATOM     15  N   UNL     1       2.767  17.081  19.704  0.00  0.00    +0.000 N 
ATOM     16  H   UNL     1       2.119  17.821  19.921  0.00  0.00    +0.000 HD
ENDBRANCH   1   4
BRANCH   1  21
ATOM     17  C   UNL     1       1.599   8.865  17.724  0.00  0.00    +0.000 C 
ATOM     18  N   UNL     1       0.678   9.480  18.683  0.00  0.00    +0.000 NA
ATOM     19  C   UNL     1      -0.119  10.512  17.978  0.00  0.00    +0.000 C 
ATOM     20  C   UNL     1      -1.240  11.147  18.804  0.00  0.00    +0.000 C 
ATOM     21  N   UNL     1      -0.694  11.945  19.911  0.00  0.00    +0.000 N 
ATOM     22  C   UNL     1      -0.385  11.229  21.105  0.00  0.00    +0.000 A 
ATOM     23  C   UNL     1      -1.222  11.352  22.222  0.00  0.00    +0.000 A 
ATOM     24  C   UNL     1      -1.074  10.489  23.311  0.00  0.00    +0.000 A 
ATOM     25  C   UNL     1      -0.090   9.504  23.289  0.00  0.00    +0.000 A 
ATOM     26  C   UNL     1       0.740   9.374  22.173  0.00  0.00    +0.000 A 
ATOM     27  C   UNL     1       0.591  10.225  21.063  0.00  0.00    +0.000 A 
ATOM     28  C   UNL     1       1.436  10.025  19.826  0.00  0.00    +0.000 C 
ENDBRANCH   1  21
TORSDOF 2
ENDMDL
MODEL 5
REMARK VINA RESULT:      -6.4      1.982      6.977
REMARK  Name = 
REMARK  5 active torsions:
REMARK  status: ('A' for Active; 'I' for Inactive)
REMARK    1  A    between atoms: C_1  and  N_2
REMARK    2  A    between atoms: N_5  and  S_6
REMARK    3  A    between atoms: S_6  and  C_9
REMARK    4  A    between atoms: C_15  and  C_16
REMARK    5  A    between atoms: C_15  and  C_17
REMARK                            x       y       z     vdW  Elec       q    Type
REMARK                         _______ _______ _______ _____ _____    ______ ____
ROOT
ATOM      1  S   UNL     1      -2.733  14.466  22.304  0.00  0.00    +0.000 S 
ATOM      2  O   UNL     1      -3.462  14.985  21.165  0.00  0.00    +0.000 OA
ATOM      3  O   UNL     1      -1.448  15.026  22.649  0.00  0.00    +0.000 OA
ENDROOT
BRANCH   1   4
ATOM      4  C   UNL     1      -2.432  12.682  21.944  0.00  0.00    +0.000 A 
ATOM      5  C   UNL     1      -1.743  12.011  22.953  0.00  0.00    +0.000 A 
ATOM      6  C   UNL     1      -0.682  11.175  22.607  0.00  0.00    +0.000 A 
ATOM      7  C   UNL     1      -0.368  11.090  21.263  0.00  0.00    +0.000 A 
ATOM      8  C   UNL     1      -1.315  11.236  20.277  0.00  0.00    +0.000 A 
ATOM      9  C   UNL     1      -2.297  12.233  20.589  0.00  0.00    +0.000 A 
ATOM     10  C   UNL     1      -0.543  11.137  18.933  0.00  0.00    +0.000 C 
ATOM     11  C   UNL     1       0.588  10.040  18.642  0.00  0.00    +0.000 C 
ATOM     12  C   UNL     1      -1.537  10.857  17.822  0.00  0.00    +0.000 C 
ATOM     13  C   UNL     1       0.489  12.194  19.357  0.00  0.00    +0.000 C 
ATOM     14  O   UNL     1       1.060  13.044  18.708  0.00  0.00    +0.000 OA
ATOM     15  N   UNL     1       0.768  11.761  20.717  0.00  0.00    +0.000 N 
ATOM     16  H   UNL     1       1.498  12.169  21.279  0.00  0.00    +0.000 HD
ENDBRANCH   1   4
BRANCH   1  21
ATOM     17  C   UNL     1      -4.913  18.469  25.342  0.00  0.00    +0.000 C 
ATOM     18  N   UNL     1      -4.867  17.024  25.102  0.00  0.00    +0.000 NA
ATOM     19  C   UNL     1      -3.448  16.604  25.018  0.00  0.00    +0.000 C 
ATOM     20  C   UNL     1      -3.221  15.094  24.922  0.00  0.00    +0.000 C 
ATOM     21  N   UNL     1      -3.730  14.563  23.650  0.00  0.00    +0.000 N 
ATOM     22  C   UNL     1      -5.117  14.232  23.621  0.00  0.00    +0.000 A 
ATOM     23  C   UNL     1      -5.510  12.888  23.649  0.00  0.00    +0.000 A 
ATOM     24  C   UNL     1      -6.849  12.550  23.857  0.00  0.00    +0.000 A 
ATOM     25  C   UNL     1      -7.800  13.552  24.033  0.00  0.00    +0.000 A 
ATOM     26  C   UNL     1      -7.409  14.893  24.013  0.00  0.00    +0.000 A 
ATOM     27  C   UNL     1      -6.061  15.247  23.822  0.00  0.00    +0.000 A 
ATOM     28  C   UNL     1      -5.634  16.695  23.885  0.00  0.00    +0.000 C 
ENDBRANCH   1  21
TORSDOF 2
ENDMDL
MODEL 6
REMARK VINA RESULT:      -6.4      1.933      2.895
REMARK  Name = 
REMARK  5 active torsions:
REMARK  status: ('A' for Active; 'I' for Inactive)
REMARK    1  A    between atoms: C_1  and  N_2
REMARK    2  A    between atoms: N_5  and  S_6
REMARK    3  A    between atoms: S_6  and  C_9
REMARK    4  A    between atoms: C_15  and  C_16
REMARK    5  A    between atoms: C_15  and  C_17
REMARK                            x       y       z     vdW  Elec       q    Type
REMARK                         _______ _______ _______ _____ _____    ______ ____
ROOT
ATOM      1  S   UNL     1      -0.905  12.426  21.790  0.00  0.00    +0.000 S 
ATOM      2  O   UNL     1      -1.705  11.343  22.322  0.00  0.00    +0.000 OA
ATOM      3  O   UNL     1       0.464  12.586  22.219  0.00  0.00    +0.000 OA
ENDROOT
BRANCH   1   4
ATOM      4  C   UNL     1      -1.775  13.981  22.268  0.00  0.00    +0.000 A 
ATOM      5  C   UNL     1      -1.338  14.523  23.476  0.00  0.00    +0.000 A 
ATOM      6  C   UNL     1      -2.285  14.954  24.405  0.00  0.00    +0.000 A 
ATOM      7  C   UNL     1      -3.614  14.784  24.065  0.00  0.00    +0.000 A 
ATOM      8  C   UNL     1      -4.049  14.820  22.761  0.00  0.00    +0.000 A 
ATOM      9  C   UNL     1      -3.126  14.210  21.849  0.00  0.00    +0.000 A 
ATOM     10  C   UNL     1      -5.572  14.525  22.817  0.00  0.00    +0.000 C 
ATOM     11  C   UNL     1      -6.562  15.187  23.890  0.00  0.00    +0.000 C 
ATOM     12  C   UNL     1      -6.199  14.964  21.507  0.00  0.00    +0.000 C 
ATOM     13  C   UNL     1      -5.377  13.261  23.669  0.00  0.00    +0.000 C 
ATOM     14  O   UNL     1      -5.980  12.210  23.670  0.00  0.00    +0.000 OA
ATOM     15  N   UNL     1      -4.405  13.742  24.638  0.00  0.00    +0.000 N 
ATOM     16  H   UNL     1      -4.119  13.200  25.438  0.00  0.00    +0.000 HD
ENDBRANCH   1   4
BRANCH   1  21
ATOM     17  C   UNL     1       2.100   9.928  17.952  0.00  0.00    +0.000 C 
ATOM     18  N   UNL     1       0.900  10.726  18.215  0.00  0.00    +0.000 NA
ATOM     19  C   UNL     1       1.276  11.877  19.072  0.00  0.00    +0.000 C 
ATOM     20  C   UNL     1       0.163  12.898  19.315  0.00  0.00    +0.000 C 
ATOM     21  N   UNL     1      -0.923  12.315  20.116  0.00  0.00    +0.000 N 
ATOM     22  C   UNL     1      -1.914  11.590  19.391  0.00  0.00    +0.000 A 
ATOM     23  C   UNL     1      -3.179  12.159  19.188  0.00  0.00    +0.000 A 
ATOM     24  C   UNL     1      -4.077  11.576  18.291  0.00  0.00    +0.000 A 
ATOM     25  C   UNL     1      -3.718  10.423  17.598  0.00  0.00    +0.000 A 
ATOM     26  C   UNL     1      -2.456   9.859  17.793  0.00  0.00    +0.000 A 
ATOM     27  C   UNL     1      -1.535  10.444  18.680  0.00  0.00    +0.000 A 
ATOM     28  C   UNL     1      -0.142   9.876  18.823  0.00  0.00    +0.000 C 
ENDBRANCH   1  21
TORSDOF 2
ENDMDL
MODEL 7
REMARK VINA RESULT:      -6.4      3.899      6.299
REMARK  Name = 
REMARK  5 active torsions:
REMARK  status: ('A' for Active; 'I' for Inactive)
REMARK    1  A    between atoms: C_1  and  N_2
REMARK    2  A    between atoms: N_5  and  S_6
REMARK    3  A    between atoms: S_6  and  C_9
REMARK    4  A    between atoms: C_15  and  C_16
REMARK    5  A    between atoms: C_15  and  C_17
REMARK                            x       y       z     vdW  Elec       q    Type
REMARK                         _______ _______ _______ _____ _____    ______ ____
ROOT
ATOM      1  S   UNL     1      -0.796  14.120  20.020  0.00  0.00    +0.000 S 
ATOM      2  O   UNL     1      -0.727  14.392  18.599  0.00  0.00    +0.000 OA
ATOM      3  O   UNL     1      -1.447  15.062  20.899  0.00  0.00    +0.000 OA
ENDROOT
BRANCH   1   4
ATOM      4  C   UNL     1       0.952  14.004  20.599  0.00  0.00    +0.000 A 
ATOM      5  C   UNL     1       1.163  14.547  21.865  0.00  0.00    +0.000 A 
ATOM      6  C   UNL     1       2.260  15.384  22.067  0.00  0.00    +0.000 A 
ATOM      7  C   UNL     1       3.059  15.641  20.968  0.00  0.00    +0.000 A 
ATOM      8  C   UNL     1       3.227  14.729  19.954  0.00  0.00    +0.000 A 
ATOM      9  C   UNL     1       2.027  14.004  19.651  0.00  0.00    +0.000 A 
ATOM     10  C   UNL     1       4.132  15.429  18.904  0.00  0.00    +0.000 C 
ATOM     11  C   UNL     1       5.436  16.278  19.287  0.00  0.00    +0.000 C 
ATOM     12  C   UNL     1       4.712  14.373  17.982  0.00  0.00    +0.000 C 
ATOM     13  C   UNL     1       3.243  16.682  18.854  0.00  0.00    +0.000 C 
ATOM     14  O   UNL     1       2.963  17.414  17.931  0.00  0.00    +0.000 OA
ATOM     15  N   UNL     1       2.995  16.887  20.273  0.00  0.00    +0.000 N 
ATOM     16  H   UNL     1       2.525  17.702  20.631  0.00  0.00    +0.000 HD
ENDBRANCH   1   4
BRANCH   1  21
ATOM     17  C   UNL     1      -1.909   9.784  16.864  0.00  0.00    +0.000 C 
ATOM     18  N   UNL     1      -1.924  10.321  18.227  0.00  0.00    +0.000 NA
ATOM     19  C   UNL     1      -2.554  11.662  18.201  0.00  0.00    +0.000 C 
ATOM     20  C   UNL     1      -2.788  12.299  19.572  0.00  0.00    +0.000 C 
ATOM     21  N   UNL     1      -1.513  12.619  20.230  0.00  0.00    +0.000 N 
ATOM     22  C   UNL     1      -0.904  11.557  20.963  0.00  0.00    +0.000 A 
ATOM     23  C   UNL     1      -0.941  11.571  22.363  0.00  0.00    +0.000 A 
ATOM     24  C   UNL     1      -0.564  10.439  23.089  0.00  0.00    +0.000 A 
ATOM     25  C   UNL     1      -0.144   9.292  22.420  0.00  0.00    +0.000 A 
ATOM     26  C   UNL     1      -0.114   9.273  21.024  0.00  0.00    +0.000 A 
ATOM     27  C   UNL     1      -0.508  10.400  20.280  0.00  0.00    +0.000 A 
ATOM     28  C   UNL     1      -0.552  10.344  18.770  0.00  0.00    +0.000 C 
ENDBRANCH   1  21
TORSDOF 2
ENDMDL
MODEL 8
REMARK VINA RESULT:      -6.3      9.698     11.492
REMARK  Name = 
REMARK  5 active torsions:
REMARK  status: ('A' for Active; 'I' for Inactive)
REMARK    1  A    between atoms: C_1  and  N_2
REMARK    2  A    between atoms: N_5  and  S_6
REMARK    3  A    between atoms: S_6  and  C_9
REMARK    4  A    between atoms: C_15  and  C_16
REMARK    5  A    between atoms: C_15  and  C_17
REMARK                            x       y       z     vdW  Elec       q    Type
REMARK                         _______ _______ _______ _____ _____    ______ ____
ROOT
ATOM      1  S   UNL     1       8.579  14.461  21.052  0.00  0.00    +0.000 S 
ATOM      2  O   UNL     1       7.571  13.616  21.660  0.00  0.00    +0.000 OA
ATOM      3  O   UNL     1       9.205  15.503  21.829  0.00  0.00    +0.000 OA
ENDROOT
BRANCH   1   4
ATOM      4  C   UNL     1       7.745  15.307  19.640  0.00  0.00    +0.000 A 
ATOM      5  C   UNL     1       8.071  16.658  19.521  0.00  0.00    +0.000 A 
ATOM      6  C   UNL     1       7.050  17.583  19.307  0.00  0.00    +0.000 A 
ATOM      7  C   UNL     1       5.760  17.086  19.253  0.00  0.00    +0.000 A 
ATOM      8  C   UNL     1       5.479  15.822  18.794  0.00  0.00    +0.000 A 
ATOM      9  C   UNL     1       6.465  14.855  19.183  0.00  0.00    +0.000 A 
ATOM     10  C   UNL     1       3.945  15.645  18.961  0.00  0.00    +0.000 C 
ATOM     11  C   UNL     1       2.877  16.772  18.565  0.00  0.00    +0.000 C 
ATOM     12  C   UNL     1       3.495  14.479  18.101  0.00  0.00    +0.000 C 
ATOM     13  C   UNL     1       3.973  16.086  20.433  0.00  0.00    +0.000 C 
ATOM     14  O   UNL     1       3.318  15.712  21.381  0.00  0.00    +0.000 OA
ATOM     15  N   UNL     1       4.854  17.240  20.346  0.00  0.00    +0.000 N 
ATOM     16  H   UNL     1       5.018  17.860  21.124  0.00  0.00    +0.000 HD
ENDBRANCH   1   4
BRANCH   1  21
ATOM     17  C   UNL     1       8.826   9.507  18.728  0.00  0.00    +0.000 C 
ATOM     18  N   UNL     1       9.579  10.712  19.086  0.00  0.00    +0.000 NA
ATOM     19  C   UNL     1       9.288  11.050  20.499  0.00  0.00    +0.000 C 
ATOM     20  C   UNL     1      10.116  12.198  21.078  0.00  0.00    +0.000 C 
ATOM     21  N   UNL     1       9.781  13.472  20.427  0.00  0.00    +0.000 N 
ATOM     22  C   UNL     1      10.469  13.752  19.210  0.00  0.00    +0.000 A 
ATOM     23  C   UNL     1      11.496  14.705  19.198  0.00  0.00    +0.000 A 
ATOM     24  C   UNL     1      12.333  14.826  18.085  0.00  0.00    +0.000 A 
ATOM     25  C   UNL     1      12.144  13.998  16.981  0.00  0.00    +0.000 A 
ATOM     26  C   UNL     1      11.126  13.042  16.994  0.00  0.00    +0.000 A 
ATOM     27  C   UNL     1      10.288  12.898  18.115  0.00  0.00    +0.000 A 
ATOM     28  C   UNL     1       9.244  11.806  18.154  0.00  0.00    +0.000 C 
ENDBRANCH   1  21
TORSDOF 2
ENDMDL
MODEL 9
REMARK VINA RESULT:      -6.3      1.944      2.790
REMARK  Name = 
REMARK  5 active torsions:
REMARK  status: ('A' for Active; 'I' for Inactive)
REMARK    1  A    between atoms: C_1  and  N_2
REMARK    2  A    between atoms: N_5  and  S_6
REMARK    3  A    between atoms: S_6  and  C_9
REMARK    4  A    between atoms: C_15  and  C_16
REMARK    5  A    between atoms: C_15  and  C_17
REMARK                            x       y       z     vdW  Elec       q    Type
REMARK                         _______ _______ _______ _____ _____    ______ ____
ROOT
ATOM      1  S   UNL     1      -1.262  13.046  22.055  0.00  0.00    +0.000 S 
ATOM      2  O   UNL     1      -1.921  11.816  22.443  0.00  0.00    +0.000 OA
ATOM      3  O   UNL     1       0.059  13.341  22.555  0.00  0.00    +0.000 OA
ENDROOT
BRANCH   1   4
ATOM      4  C   UNL     1      -2.349  14.413  22.649  0.00  0.00    +0.000 A 
ATOM      5  C   UNL     1      -2.171  14.731  23.995  0.00  0.00    +0.000 A 
ATOM      6  C   UNL     1      -3.294  14.904  24.803  0.00  0.00    +0.000 A 
ATOM      7  C   UNL     1      -4.527  14.717  24.206  0.00  0.00    +0.000 A 
ATOM      8  C   UNL     1      -4.746  14.983  22.875  0.00  0.00    +0.000 A 
ATOM      9  C   UNL     1      -3.631  14.630  22.045  0.00  0.00    +0.000 A 
ATOM     10  C   UNL     1      -6.221  14.582  22.603  0.00  0.00    +0.000 C 
ATOM     11  C   UNL     1      -7.433  14.949  23.585  0.00  0.00    +0.000 C 
ATOM     12  C   UNL     1      -6.668  15.230  21.306  0.00  0.00    +0.000 C 
ATOM     13  C   UNL     1      -6.041  13.189  23.227  0.00  0.00    +0.000 C 
ATOM     14  O   UNL     1      -6.528  12.121  22.927  0.00  0.00    +0.000 OA
ATOM     15  N   UNL     1      -5.292  13.531  24.426  0.00  0.00    +0.000 N 
ATOM     16  H   UNL     1      -5.086  12.861  25.150  0.00  0.00    +0.000 HD
ENDBRANCH   1   4
BRANCH   1  21
ATOM     17  C   UNL     1       2.548  12.458  18.165  0.00  0.00    +0.000 C 
ATOM     18  N   UNL     1       1.121  12.642  18.439  0.00  0.00    +0.000 NA
ATOM     19  C   UNL     1       0.965  13.750  19.411  0.00  0.00    +0.000 C 
ATOM     20  C   UNL     1      -0.478  14.174  19.689  0.00  0.00    +0.000 C 
ATOM     21  N   UNL     1      -1.219  13.109  20.380  0.00  0.00    +0.000 N 
ATOM     22  C   UNL     1      -1.802  12.110  19.545  0.00  0.00    +0.000 A 
ATOM     23  C   UNL     1      -3.187  12.109  19.330  0.00  0.00    +0.000 A 
ATOM     24  C   UNL     1      -3.745  11.296  18.340  0.00  0.00    +0.000 A 
ATOM     25  C   UNL     1      -2.924  10.479  17.566  0.00  0.00    +0.000 A 
ATOM     26  C   UNL     1      -1.543  10.485  17.774  0.00  0.00    +0.000 A 
ATOM     27  C   UNL     1      -0.965  11.312  18.754  0.00  0.00    +0.000 A 
ATOM     28  C   UNL     1       0.536  11.374  18.915  0.00  0.00    +0.000 C 
ENDBRANCH   1  21
TORSDOF 2
ENDMDL
