MODEL 1
REMARK VINA RESULT:      -9.0      0.000      0.000
REMARK  Name = 
REMARK  3 active torsions:
REMARK  status: ('A' for Active; 'I' for Inactive)
REMARK    1  A    between atoms: C_1  and  C_2
REMARK    2  A    between atoms: C_4  and  N_5
REMARK    3  A    between atoms: N_8  and  C_9
REMARK                            x       y       z     vdW  Elec       q    Type
REMARK                         _______ _______ _______ _____ _____    ______ ____
ROOT
ATOM      1  N   UNL     1       2.166   6.791  17.893  0.00  0.00    +0.000 N 
ATOM      2  C   UNL     1       2.073   7.618  19.050  0.00  0.00    +0.000 C 
ATOM      3  O   UNL     1       2.323   7.202  20.169  0.00  0.00    +0.000 OA
ATOM      4  N   UNL     1       1.664   8.887  18.759  0.00  0.00    +0.000 N 
ATOM      5  H   UNL     1       2.131   7.185  16.956  0.00  0.00    +0.000 HD
ATOM      6  H   UNL     1       1.182   9.015  17.882  0.00  0.00    +0.000 HD
ENDROOT
BRANCH   4   7
ATOM      7  C   UNL     1       1.325   9.819  19.854  0.00  0.00    +0.000 C 
ATOM      8  C   UNL     1       1.174  11.292  19.419  0.00  0.00    +0.000 C 
ATOM      9  C   UNL     1      -0.180  11.296  18.710  0.00  0.00    +0.000 C 
ATOM     10  C   UNL     1      -1.038  10.277  19.472  0.00  0.00    +0.000 C 
ATOM     11  C   UNL     1      -0.071   9.510  20.410  0.00  0.00    +0.000 C 
ATOM     12  C   UNL     1      -0.142   9.906  21.902  0.00  0.00    +0.000 C 
ATOM     13  C   UNL     1      -0.578  11.326  22.159  0.00  0.00    +0.000 A 
ATOM     14  C   UNL     1      -1.677  11.530  23.014  0.00  0.00    +0.000 A 
ATOM     15  C   UNL     1      -2.234  12.794  23.175  0.00  0.00    +0.000 A 
ATOM     16  C   UNL     1      -1.683  13.875  22.499  0.00  0.00    +0.000 A 
ATOM     17  C   UNL     1      -0.558  13.696  21.690  0.00  0.00    +0.000 A 
ATOM     18  C   UNL     1       0.016  12.423  21.506  0.00  0.00    +0.000 A 
ATOM     19  C   UNL     1       1.236  12.286  20.613  0.00  0.00    +0.000 C 
ENDBRANCH   4   7
BRANCH   1  23
ATOM     20  C   UNL     1       1.827   1.864  18.702  0.00  0.00    +0.000 C 
ATOM     21  C   UNL     1       2.279   3.215  18.295  0.00  0.00    +0.000 A 
ATOM     22  C   UNL     1       1.548   4.416  18.314  0.00  0.00    +0.000 A 
ATOM     23  C   UNL     1       2.435   5.413  17.971  0.00  0.00    +0.000 A 
ATOM     24  N   UNL     1       3.643   4.748  17.729  0.00  0.00    +0.000 N 
ATOM     25  C   UNL     1       4.923   5.337  17.456  0.00  0.00    +0.000 A 
ATOM     26  C   UNL     1       6.008   4.475  17.257  0.00  0.00    +0.000 A 
ATOM     27  C   UNL     1       7.283   5.009  17.107  0.00  0.00    +0.000 A 
ATOM     28  C   UNL     1       7.446   6.385  17.165  0.00  0.00    +0.000 A 
ATOM     29  C   UNL     1       6.317   7.175  17.338  0.00  0.00    +0.000 A 
ATOM     30  N   UNL     1       5.049   6.697  17.470  0.00  0.00    +0.000 NA
ATOM     31  N   UNL     1       3.525   3.409  17.876  0.00  0.00    +0.000 NA
ENDBRANCH   1  23
TORSDOF 2
ENDMDL
MODEL 2
REMARK VINA RESULT:      -8.3      1.443      1.563
REMARK  Name = 
REMARK  3 active torsions:
REMARK  status: ('A' for Active; 'I' for Inactive)
REMARK    1  A    between atoms: C_1  and  C_2
REMARK    2  A    between atoms: C_4  and  N_5
REMARK    3  A    between atoms: N_8  and  C_9
REMARK                            x       y       z     vdW  Elec       q    Type
REMARK                         _______ _______ _______ _____ _____    ______ ____
ROOT
ATOM      1  N   UNL     1       2.089   7.219  19.329  0.00  0.00    +0.000 N 
ATOM      2  C   UNL     1       1.762   8.162  20.347  0.00  0.00    +0.000 C 
ATOM      3  O   UNL     1       1.700   7.852  21.525  0.00  0.00    +0.000 OA
ATOM      4  N   UNL     1       1.516   9.409  19.850  0.00  0.00    +0.000 N 
ATOM      5  H   UNL     1       2.312   7.517  18.383  0.00  0.00    +0.000 HD
ATOM      6  H   UNL     1       1.276   9.465  18.872  0.00  0.00    +0.000 HD
ENDROOT
BRANCH   4   7
ATOM      7  C   UNL     1       0.973  10.459  20.737  0.00  0.00    +0.000 C 
ATOM      8  C   UNL     1       0.908  11.863  20.102  0.00  0.00    +0.000 C 
ATOM      9  C   UNL     1      -0.286  11.748  19.153  0.00  0.00    +0.000 C 
ATOM     10  C   UNL     1      -1.273  10.810  19.858  0.00  0.00    +0.000 C 
ATOM     11  C   UNL     1      -0.504  10.186  21.051  0.00  0.00    +0.000 C 
ATOM     12  C   UNL     1      -0.860  10.759  22.441  0.00  0.00    +0.000 C 
ATOM     13  C   UNL     1      -1.337  12.188  22.432  0.00  0.00    +0.000 A 
ATOM     14  C   UNL     1      -2.580  12.468  23.031  0.00  0.00    +0.000 A 
ATOM     15  C   UNL     1      -3.158  13.729  22.924  0.00  0.00    +0.000 A 
ATOM     16  C   UNL     1      -2.488  14.733  22.237  0.00  0.00    +0.000 A 
ATOM     17  C   UNL     1      -1.229  14.483  21.685  0.00  0.00    +0.000 A 
ATOM     18  C   UNL     1      -0.630  13.212  21.774  0.00  0.00    +0.000 A 
ATOM     19  C   UNL     1       0.739  12.996  21.153  0.00  0.00    +0.000 C 
ENDBRANCH   4   7
BRANCH   1  23
ATOM     20  C   UNL     1       1.995   2.693  21.464  0.00  0.00    +0.000 C 
ATOM     21  C   UNL     1       2.177   3.824  20.523  0.00  0.00    +0.000 A 
ATOM     22  C   UNL     1       1.716   5.145  20.656  0.00  0.00    +0.000 A 
ATOM     23  C   UNL     1       2.246   5.847  19.595  0.00  0.00    +0.000 A 
ATOM     24  N   UNL     1       2.967   4.897  18.862  0.00  0.00    +0.000 N 
ATOM     25  C   UNL     1       3.812   5.129  17.726  0.00  0.00    +0.000 A 
ATOM     26  C   UNL     1       4.452   4.023  17.153  0.00  0.00    +0.000 A 
ATOM     27  C   UNL     1       5.369   4.224  16.127  0.00  0.00    +0.000 A 
ATOM     28  C   UNL     1       5.629   5.519  15.703  0.00  0.00    +0.000 A 
ATOM     29  C   UNL     1       4.934   6.560  16.303  0.00  0.00    +0.000 A 
ATOM     30  N   UNL     1       4.015   6.409  17.295  0.00  0.00    +0.000 NA
ATOM     31  N   UNL     1       2.875   3.660  19.404  0.00  0.00    +0.000 NA
ENDBRANCH   1  23
TORSDOF 2
ENDMDL
MODEL 3
REMARK VINA RESULT:      -8.2      1.653      3.703
REMARK  Name = 
REMARK  3 active torsions:
REMARK  status: ('A' for Active; 'I' for Inactive)
REMARK    1  A    between atoms: C_1  and  C_2
REMARK    2  A    between atoms: C_4  and  N_5
REMARK    3  A    between atoms: N_8  and  C_9
REMARK                            x       y       z     vdW  Elec       q    Type
REMARK                         _______ _______ _______ _____ _____    ______ ____
ROOT
ATOM      1  N   UNL     1       3.144   7.258  18.895  0.00  0.00    +0.000 N 
ATOM      2  C   UNL     1       2.105   8.168  18.539  0.00  0.00    +0.000 C 
ATOM      3  O   UNL     1       1.612   8.187  17.424  0.00  0.00    +0.000 OA
ATOM      4  N   UNL     1       1.759   9.000  19.564  0.00  0.00    +0.000 N 
ATOM      5  H   UNL     1       3.423   7.127  19.864  0.00  0.00    +0.000 HD
ATOM      6  H   UNL     1       2.439   9.114  20.301  0.00  0.00    +0.000 HD
ENDROOT
BRANCH   4   7
ATOM      7  C   UNL     1       0.842  10.132  19.314  0.00  0.00    +0.000 C 
ATOM      8  C   UNL     1      -0.627   9.864  19.699  0.00  0.00    +0.000 C 
ATOM      9  C   UNL     1      -0.596   9.948  21.225  0.00  0.00    +0.000 C 
ATOM     10  C   UNL     1       0.451  11.023  21.549  0.00  0.00    +0.000 C 
ATOM     11  C   UNL     1       1.195  11.318  20.221  0.00  0.00    +0.000 C 
ATOM     12  C   UNL     1       0.808  12.644  19.526  0.00  0.00    +0.000 C 
ATOM     13  C   UNL     1      -0.598  13.114  19.800  0.00  0.00    +0.000 A 
ATOM     14  C   UNL     1      -0.766  14.415  20.309  0.00  0.00    +0.000 A 
ATOM     15  C   UNL     1      -2.013  14.862  20.734  0.00  0.00    +0.000 A 
ATOM     16  C   UNL     1      -3.113  14.020  20.630  0.00  0.00    +0.000 A 
ATOM     17  C   UNL     1      -2.969  12.746  20.076  0.00  0.00    +0.000 A 
ATOM     18  C   UNL     1      -1.714  12.271  19.649  0.00  0.00    +0.000 A 
ATOM     19  C   UNL     1      -1.616  10.876  19.056  0.00  0.00    +0.000 C 
ENDBRANCH   4   7
BRANCH   1  23
ATOM     20  C   UNL     1       5.728   5.438  15.016  0.00  0.00    +0.000 C 
ATOM     21  C   UNL     1       4.928   5.585  16.255  0.00  0.00    +0.000 A 
ATOM     22  C   UNL     1       4.623   6.765  16.955  0.00  0.00    +0.000 A 
ATOM     23  C   UNL     1       3.751   6.403  17.959  0.00  0.00    +0.000 A 
ATOM     24  N   UNL     1       3.610   5.017  17.827  0.00  0.00    +0.000 N 
ATOM     25  C   UNL     1       2.717   4.159  18.551  0.00  0.00    +0.000 A 
ATOM     26  C   UNL     1       2.734   2.792  18.246  0.00  0.00    +0.000 A 
ATOM     27  C   UNL     1       1.802   1.951  18.842  0.00  0.00    +0.000 A 
ATOM     28  C   UNL     1       0.874   2.489  19.720  0.00  0.00    +0.000 A 
ATOM     29  C   UNL     1       0.939   3.849  19.993  0.00  0.00    +0.000 A 
ATOM     30  N   UNL     1       1.845   4.707  19.449  0.00  0.00    +0.000 NA
ATOM     31  N   UNL     1       4.370   4.521  16.824  0.00  0.00    +0.000 NA
ENDBRANCH   1  23
TORSDOF 2
ENDMDL
MODEL 4
REMARK VINA RESULT:      -8.1      2.076      4.103
REMARK  Name = 
REMARK  3 active torsions:
REMARK  status: ('A' for Active; 'I' for Inactive)
REMARK    1  A    between atoms: C_1  and  C_2
REMARK    2  A    between atoms: C_4  and  N_5
REMARK    3  A    between atoms: N_8  and  C_9
REMARK                            x       y       z     vdW  Elec       q    Type
REMARK                         _______ _______ _______ _____ _____    ______ ____
ROOT
ATOM      1  N   UNL     1       2.365   7.684  18.973  0.00  0.00    +0.000 N 
ATOM      2  C   UNL     1       1.790   8.872  18.433  0.00  0.00    +0.000 C 
ATOM      3  O   UNL     1       1.929   9.188  17.264  0.00  0.00    +0.000 OA
ATOM      4  N   UNL     1       1.104   9.595  19.365  0.00  0.00    +0.000 N 
ATOM      5  H   UNL     1       2.100   7.338  19.891  0.00  0.00    +0.000 HD
ATOM      6  H   UNL     1       1.332   9.417  20.331  0.00  0.00    +0.000 HD
ENDROOT
BRANCH   4   7
ATOM      7  C   UNL     1       0.612  10.947  19.028  0.00  0.00    +0.000 C 
ATOM      8  C   UNL     1      -0.521  11.463  19.940  0.00  0.00    +0.000 C 
ATOM      9  C   UNL     1       0.221  11.820  21.229  0.00  0.00    +0.000 C 
ATOM     10  C   UNL     1       1.592  12.337  20.774  0.00  0.00    +0.000 C 
ATOM     11  C   UNL     1       1.710  11.993  19.268  0.00  0.00    +0.000 C 
ATOM     12  C   UNL     1       1.520  13.183  18.300  0.00  0.00    +0.000 C 
ATOM     13  C   UNL     1       0.638  14.288  18.822  0.00  0.00    +0.000 A 
ATOM     14  C   UNL     1       1.164  15.593  18.841  0.00  0.00    +0.000 A 
ATOM     15  C   UNL     1       0.474  16.635  19.451  0.00  0.00    +0.000 A 
ATOM     16  C   UNL     1      -0.765  16.388  20.028  0.00  0.00    +0.000 A 
ATOM     17  C   UNL     1      -1.324  15.108  19.968  0.00  0.00    +0.000 A 
ATOM     18  C   UNL     1      -0.637  14.038  19.364  0.00  0.00    +0.000 A 
ATOM     19  C   UNL     1      -1.290  12.668  19.329  0.00  0.00    +0.000 C 
ENDBRANCH   4   7
BRANCH   1  23
ATOM     20  C   UNL     1       5.588   5.920  15.576  0.00  0.00    +0.000 C 
ATOM     21  C   UNL     1       4.688   6.076  16.743  0.00  0.00    +0.000 A 
ATOM     22  C   UNL     1       4.059   7.246  17.201  0.00  0.00    +0.000 A 
ATOM     23  C   UNL     1       3.227   6.858  18.230  0.00  0.00    +0.000 A 
ATOM     24  N   UNL     1       3.433   5.480  18.356  0.00  0.00    +0.000 N 
ATOM     25  C   UNL     1       2.721   4.565  19.201  0.00  0.00    +0.000 A 
ATOM     26  C   UNL     1       3.088   3.214  19.156  0.00  0.00    +0.000 A 
ATOM     27  C   UNL     1       2.345   2.283  19.872  0.00  0.00    +0.000 A 
ATOM     28  C   UNL     1       1.252   2.718  20.608  0.00  0.00    +0.000 A 
ATOM     29  C   UNL     1       0.968   4.076  20.625  0.00  0.00    +0.000 A 
ATOM     30  N   UNL     1       1.679   5.026  19.956  0.00  0.00    +0.000 NA
ATOM     31  N   UNL     1       4.362   5.023  17.485  0.00  0.00    +0.000 NA
ENDBRANCH   1  23
TORSDOF 2
ENDMDL
MODEL 5
REMARK VINA RESULT:      -8.0      2.294      8.763
REMARK  Name = 
REMARK  3 active torsions:
REMARK  status: ('A' for Active; 'I' for Inactive)
REMARK    1  A    between atoms: C_1  and  C_2
REMARK    2  A    between atoms: C_4  and  N_5
REMARK    3  A    between atoms: N_8  and  C_9
REMARK                            x       y       z     vdW  Elec       q    Type
REMARK                         _______ _______ _______ _____ _____    ______ ____
ROOT
ATOM      1  N   UNL     1      -0.148   8.860  21.305  0.00  0.00    +0.000 N 
ATOM      2  C   UNL     1       1.170   8.653  20.800  0.00  0.00    +0.000 C 
ATOM      3  O   UNL     1       1.970   9.565  20.678  0.00  0.00    +0.000 OA
ATOM      4  N   UNL     1       1.406   7.352  20.462  0.00  0.00    +0.000 N 
ATOM      5  H   UNL     1      -0.742   8.079  21.569  0.00  0.00    +0.000 HD
ATOM      6  H   UNL     1       0.595   6.775  20.296  0.00  0.00    +0.000 HD
ENDROOT
BRANCH   4   7
ATOM      7  C   UNL     1       2.645   6.993  19.742  0.00  0.00    +0.000 C 
ATOM      8  C   UNL     1       3.045   5.507  19.855  0.00  0.00    +0.000 C 
ATOM      9  C   UNL     1       2.049   4.819  18.921  0.00  0.00    +0.000 C 
ATOM     10  C   UNL     1       1.815   5.814  17.777  0.00  0.00    +0.000 C 
ATOM     11  C   UNL     1       2.452   7.153  18.228  0.00  0.00    +0.000 C 
ATOM     12  C   UNL     1       3.802   7.503  17.561  0.00  0.00    +0.000 C 
ATOM     13  C   UNL     1       4.617   6.313  17.125  0.00  0.00    +0.000 A 
ATOM     14  C   UNL     1       5.030   6.258  15.780  0.00  0.00    +0.000 A 
ATOM     15  C   UNL     1       5.648   5.123  15.266  0.00  0.00    +0.000 A 
ATOM     16  C   UNL     1       5.883   4.036  16.099  0.00  0.00    +0.000 A 
ATOM     17  C   UNL     1       5.527   4.099  17.449  0.00  0.00    +0.000 A 
ATOM     18  C   UNL     1       4.892   5.235  17.987  0.00  0.00    +0.000 A 
ATOM     19  C   UNL     1       4.526   5.247  19.460  0.00  0.00    +0.000 C 
ENDBRANCH   4   7
BRANCH   1  23
ATOM     20  C   UNL     1      -1.793  12.976  23.627  0.00  0.00    +0.000 C 
ATOM     21  C   UNL     1      -1.355  11.989  22.612  0.00  0.00    +0.000 A 
ATOM     22  C   UNL     1      -0.751  10.738  22.824  0.00  0.00    +0.000 A 
ATOM     23  C   UNL     1      -0.655  10.141  21.586  0.00  0.00    +0.000 A 
ATOM     24  N   UNL     1      -1.174  11.085  20.693  0.00  0.00    +0.000 N 
ATOM     25  C   UNL     1      -1.416  10.917  19.288  0.00  0.00    +0.000 A 
ATOM     26  C   UNL     1      -1.958  12.001  18.586  0.00  0.00    +0.000 A 
ATOM     27  C   UNL     1      -2.314  11.836  17.252  0.00  0.00    +0.000 A 
ATOM     28  C   UNL     1      -2.129  10.598  16.654  0.00  0.00    +0.000 A 
ATOM     29  C   UNL     1      -1.561   9.581  17.410  0.00  0.00    +0.000 A 
ATOM     30  N   UNL     1      -1.179   9.702  18.711  0.00  0.00    +0.000 NA
ATOM     31  N   UNL     1      -1.547  12.225  21.318  0.00  0.00    +0.000 NA
ENDBRANCH   1  23
TORSDOF 2
ENDMDL
MODEL 6
REMARK VINA RESULT:      -7.8      2.288      8.640
REMARK  Name = 
REMARK  3 active torsions:
REMARK  status: ('A' for Active; 'I' for Inactive)
REMARK    1  A    between atoms: C_1  and  C_2
REMARK    2  A    between atoms: C_4  and  N_5
REMARK    3  A    between atoms: N_8  and  C_9
REMARK                            x       y       z     vdW  Elec       q    Type
REMARK                         _______ _______ _______ _____ _____    ______ ____
ROOT
ATOM      1  N   UNL     1       2.380  10.768  18.643  0.00  0.00    +0.000 N 
ATOM      2  C   UNL     1       2.070   9.507  18.056  0.00  0.00    +0.000 C 
ATOM      3  O   UNL     1       0.955   9.239  17.640  0.00  0.00    +0.000 OA
ATOM      4  N   UNL     1       3.139   8.658  18.036  0.00  0.00    +0.000 N 
ATOM      5  H   UNL     1       3.341  11.047  18.822  0.00  0.00    +0.000 HD
ATOM      6  H   UNL     1       3.885   8.858  18.686  0.00  0.00    +0.000 HD
ENDROOT
BRANCH   4   7
ATOM      7  C   UNL     1       2.949   7.246  17.645  0.00  0.00    +0.000 C 
ATOM      8  C   UNL     1       4.238   6.399  17.656  0.00  0.00    +0.000 C 
ATOM      9  C   UNL     1       4.482   6.176  19.149  0.00  0.00    +0.000 C 
ATOM     10  C   UNL     1       3.085   6.065  19.773  0.00  0.00    +0.000 C 
ATOM     11  C   UNL     1       2.083   6.515  18.679  0.00  0.00    +0.000 C 
ATOM     12  C   UNL     1       1.297   5.374  17.993  0.00  0.00    +0.000 C 
ATOM     13  C   UNL     1       2.011   4.048  17.955  0.00  0.00    +0.000 A 
ATOM     14  C   UNL     1       1.345   2.928  18.487  0.00  0.00    +0.000 A 
ATOM     15  C   UNL     1       1.996   1.708  18.631  0.00  0.00    +0.000 A 
ATOM     16  C   UNL     1       3.318   1.586  18.220  0.00  0.00    +0.000 A 
ATOM     17  C   UNL     1       3.974   2.675  17.640  0.00  0.00    +0.000 A 
ATOM     18  C   UNL     1       3.335   3.922  17.494  0.00  0.00    +0.000 A 
ATOM     19  C   UNL     1       4.097   5.071  16.859  0.00  0.00    +0.000 C 
ENDBRANCH   4   7
BRANCH   1  23
ATOM     20  C   UNL     1      -0.407  14.923  18.522  0.00  0.00    +0.000 C 
ATOM     21  C   UNL     1       0.134  13.576  18.819  0.00  0.00    +0.000 A 
ATOM     22  C   UNL     1       1.185  12.902  18.175  0.00  0.00    +0.000 A 
ATOM     23  C   UNL     1       1.399  11.745  18.892  0.00  0.00    +0.000 A 
ATOM     24  N   UNL     1       0.437  11.772  19.908  0.00  0.00    +0.000 N 
ATOM     25  C   UNL     1       0.303  10.858  21.007  0.00  0.00    +0.000 A 
ATOM     26  C   UNL     1      -0.734  11.085  21.920  0.00  0.00    +0.000 A 
ATOM     27  C   UNL     1      -0.823  10.292  23.058  0.00  0.00    +0.000 A 
ATOM     28  C   UNL     1       0.125   9.299  23.262  0.00  0.00    +0.000 A 
ATOM     29  C   UNL     1       1.106   9.119  22.297  0.00  0.00    +0.000 A 
ATOM     30  N   UNL     1       1.220   9.858  21.159  0.00  0.00    +0.000 NA
ATOM     31  N   UNL     1      -0.362  12.860  19.824  0.00  0.00    +0.000 NA
ENDBRANCH   1  23
TORSDOF 2
ENDMDL
MODEL 7
REMARK VINA RESULT:      -7.8      1.618      2.145
REMARK  Name = 
REMARK  3 active torsions:
REMARK  status: ('A' for Active; 'I' for Inactive)
REMARK    1  A    between atoms: C_1  and  C_2
REMARK    2  A    between atoms: C_4  and  N_5
REMARK    3  A    between atoms: N_8  and  C_9
REMARK                            x       y       z     vdW  Elec       q    Type
REMARK                         _______ _______ _______ _____ _____    ______ ____
ROOT
ATOM      1  N   UNL     1       2.279   7.169  19.441  0.00  0.00    +0.000 N 
ATOM      2  C   UNL     1       1.386   7.929  20.253  0.00  0.00    +0.000 C 
ATOM      3  O   UNL     1       0.870   7.469  21.257  0.00  0.00    +0.000 OA
ATOM      4  N   UNL     1       1.174   9.186  19.767  0.00  0.00    +0.000 N 
ATOM      5  H   UNL     1       2.838   7.608  18.715  0.00  0.00    +0.000 HD
ATOM      6  H   UNL     1       1.380   9.333  18.790  0.00  0.00    +0.000 HD
ENDROOT
BRANCH   4   7
ATOM      7  C   UNL     1       0.130  10.041  20.370  0.00  0.00    +0.000 C 
ATOM      8  C   UNL     1       0.614  10.910  21.548  0.00  0.00    +0.000 C 
ATOM      9  C   UNL     1       1.412  12.011  20.848  0.00  0.00    +0.000 C 
ATOM     10  C   UNL     1       0.680  12.259  19.522  0.00  0.00    +0.000 C 
ATOM     11  C   UNL     1      -0.340  11.102  19.366  0.00  0.00    +0.000 C 
ATOM     12  C   UNL     1      -1.813  11.476  19.649  0.00  0.00    +0.000 C 
ATOM     13  C   UNL     1      -2.001  12.609  20.625  0.00  0.00    +0.000 A 
ATOM     14  C   UNL     1      -2.776  13.709  20.212  0.00  0.00    +0.000 A 
ATOM     15  C   UNL     1      -2.864  14.857  20.993  0.00  0.00    +0.000 A 
ATOM     16  C   UNL     1      -2.197  14.908  22.210  0.00  0.00    +0.000 A 
ATOM     17  C   UNL     1      -1.469  13.802  22.658  0.00  0.00    +0.000 A 
ATOM     18  C   UNL     1      -1.359  12.635  21.878  0.00  0.00    +0.000 A 
ATOM     19  C   UNL     1      -0.553  11.464  22.412  0.00  0.00    +0.000 C 
ENDBRANCH   4   7
BRANCH   1  23
ATOM     20  C   UNL     1       2.606   2.623  21.509  0.00  0.00    +0.000 C 
ATOM     21  C   UNL     1       2.651   3.772  20.574  0.00  0.00    +0.000 A 
ATOM     22  C   UNL     1       2.127   5.063  20.761  0.00  0.00    +0.000 A 
ATOM     23  C   UNL     1       2.534   5.805  19.674  0.00  0.00    +0.000 A 
ATOM     24  N   UNL     1       3.251   4.907  18.875  0.00  0.00    +0.000 N 
ATOM     25  C   UNL     1       3.993   5.200  17.683  0.00  0.00    +0.000 A 
ATOM     26  C   UNL     1       4.650   4.139  17.047  0.00  0.00    +0.000 A 
ATOM     27  C   UNL     1       5.473   4.405  15.958  0.00  0.00    +0.000 A 
ATOM     28  C   UNL     1       5.627   5.716  15.535  0.00  0.00    +0.000 A 
ATOM     29  C   UNL     1       4.921   6.709  16.201  0.00  0.00    +0.000 A 
ATOM     30  N   UNL     1       4.089   6.494  17.257  0.00  0.00    +0.000 NA
ATOM     31  N   UNL     1       3.271   3.662  19.403  0.00  0.00    +0.000 NA
ENDBRANCH   1  23
TORSDOF 2
ENDMDL
MODEL 8
REMARK VINA RESULT:      -7.6      1.532      1.754
REMARK  Name = 
REMARK  3 active torsions:
REMARK  status: ('A' for Active; 'I' for Inactive)
REMARK    1  A    between atoms: C_1  and  C_2
REMARK    2  A    between atoms: C_4  and  N_5
REMARK    3  A    between atoms: N_8  and  C_9
REMARK                            x       y       z     vdW  Elec       q    Type
REMARK                         _______ _______ _______ _____ _____    ______ ____
ROOT
ATOM      1  N   UNL     1       2.080   7.237  19.163  0.00  0.00    +0.000 N 
ATOM      2  C   UNL     1       1.715   8.288  20.055  0.00  0.00    +0.000 C 
ATOM      3  O   UNL     1       1.718   8.143  21.266  0.00  0.00    +0.000 OA
ATOM      4  N   UNL     1       1.354   9.431  19.403  0.00  0.00    +0.000 N 
ATOM      5  H   UNL     1       2.246   7.415  18.176  0.00  0.00    +0.000 HD
ATOM      6  H   UNL     1       1.077   9.331  18.438  0.00  0.00    +0.000 HD
ENDROOT
BRANCH   4   7
ATOM      7  C   UNL     1       0.761  10.552  20.160  0.00  0.00    +0.000 C 
ATOM      8  C   UNL     1       1.368  11.934  19.840  0.00  0.00    +0.000 C 
ATOM      9  C   UNL     1       0.766  12.258  18.472  0.00  0.00    +0.000 C 
ATOM     10  C   UNL     1      -0.643  11.652  18.498  0.00  0.00    +0.000 C 
ATOM     11  C   UNL     1      -0.707  10.753  19.759  0.00  0.00    +0.000 C 
ATOM     12  C   UNL     1      -1.501  11.338  20.949  0.00  0.00    +0.000 C 
ATOM     13  C   UNL     1      -1.525  12.843  21.014  0.00  0.00    +0.000 A 
ATOM     14  C   UNL     1      -2.781  13.477  21.072  0.00  0.00    +0.000 A 
ATOM     15  C   UNL     1      -2.890  14.860  20.975  0.00  0.00    +0.000 A 
ATOM     16  C   UNL     1      -1.741  15.629  20.844  0.00  0.00    +0.000 A 
ATOM     17  C   UNL     1      -0.485  15.016  20.841  0.00  0.00    +0.000 A 
ATOM     18  C   UNL     1      -0.353  13.617  20.928  0.00  0.00    +0.000 A 
ATOM     19  C   UNL     1       1.037  13.005  20.917  0.00  0.00    +0.000 C 
ENDBRANCH   4   7
BRANCH   1  23
ATOM     20  C   UNL     1       2.026   2.894  21.648  0.00  0.00    +0.000 C 
ATOM     21  C   UNL     1       2.312   3.984  20.686  0.00  0.00    +0.000 A 
ATOM     22  C   UNL     1       1.639   5.208  20.537  0.00  0.00    +0.000 A 
ATOM     23  C   UNL     1       2.355   5.931  19.608  0.00  0.00    +0.000 A 
ATOM     24  N   UNL     1       3.399   5.083  19.223  0.00  0.00    +0.000 N 
ATOM     25  C   UNL     1       4.505   5.397  18.364  0.00  0.00    +0.000 A 
ATOM     26  C   UNL     1       5.449   4.391  18.123  0.00  0.00    +0.000 A 
ATOM     27  C   UNL     1       6.593   4.692  17.393  0.00  0.00    +0.000 A 
ATOM     28  C   UNL     1       6.772   5.986  16.927  0.00  0.00    +0.000 A 
ATOM     29  C   UNL     1       5.778   6.921  17.184  0.00  0.00    +0.000 A 
ATOM     30  N   UNL     1       4.634   6.666  17.876  0.00  0.00    +0.000 NA
ATOM     31  N   UNL     1       3.335   3.883  19.842  0.00  0.00    +0.000 NA
ENDBRANCH   1  23
TORSDOF 2
ENDMDL
MODEL 9
REMARK VINA RESULT:      -7.4      1.892      3.847
REMARK  Name = 
REMARK  3 active torsions:
REMARK  status: ('A' for Active; 'I' for Inactive)
REMARK    1  A    between atoms: C_1  and  C_2
REMARK    2  A    between atoms: C_4  and  N_5
REMARK    3  A    between atoms: N_8  and  C_9
REMARK                            x       y       z     vdW  Elec       q    Type
REMARK                         _______ _______ _______ _____ _____    ______ ____
ROOT
ATOM      1  N   UNL     1       2.187   7.114  18.033  0.00  0.00    +0.000 N 
ATOM      2  C   UNL     1       2.102   8.525  17.845  0.00  0.00    +0.000 C 
ATOM      3  O   UNL     1       3.052   9.189  17.468  0.00  0.00    +0.000 OA
ATOM      4  N   UNL     1       0.868   9.023  18.148  0.00  0.00    +0.000 N 
ATOM      5  H   UNL     1       1.355   6.548  18.173  0.00  0.00    +0.000 HD
ATOM      6  H   UNL     1       0.287   8.455  18.747  0.00  0.00    +0.000 HD
ENDROOT
BRANCH   4   7
ATOM      7  C   UNL     1       0.658  10.485  18.199  0.00  0.00    +0.000 C 
ATOM      8  C   UNL     1      -0.738  10.915  18.693  0.00  0.00    +0.000 C 
ATOM      9  C   UNL     1      -0.656  10.659  20.199  0.00  0.00    +0.000 C 
ATOM     10  C   UNL     1       0.795  10.975  20.583  0.00  0.00    +0.000 C 
ATOM     11  C   UNL     1       1.576  11.122  19.252  0.00  0.00    +0.000 C 
ATOM     12  C   UNL     1       1.917  12.573  18.841  0.00  0.00    +0.000 C 
ATOM     13  C   UNL     1       0.953  13.615  19.345  0.00  0.00    +0.000 A 
ATOM     14  C   UNL     1       1.478  14.691  20.085  0.00  0.00    +0.000 A 
ATOM     15  C   UNL     1       0.640  15.605  20.716  0.00  0.00    +0.000 A 
ATOM     16  C   UNL     1      -0.737  15.467  20.592  0.00  0.00    +0.000 A 
ATOM     17  C   UNL     1      -1.271  14.436  19.815  0.00  0.00    +0.000 A 
ATOM     18  C   UNL     1      -0.440  13.495  19.177  0.00  0.00    +0.000 A 
ATOM     19  C   UNL     1      -1.074  12.393  18.347  0.00  0.00    +0.000 C 
ENDBRANCH   4   7
BRANCH   1  23
ATOM     20  C   UNL     1       6.662   5.470  16.513  0.00  0.00    +0.000 C 
ATOM     21  C   UNL     1       5.405   5.696  17.264  0.00  0.00    +0.000 A 
ATOM     22  C   UNL     1       4.436   6.692  17.053  0.00  0.00    +0.000 A 
ATOM     23  C   UNL     1       3.398   6.409  17.913  0.00  0.00    +0.000 A 
ATOM     24  N   UNL     1       3.818   5.277  18.620  0.00  0.00    +0.000 N 
ATOM     25  C   UNL     1       3.057   4.501  19.557  0.00  0.00    +0.000 A 
ATOM     26  C   UNL     1       3.679   3.390  20.141  0.00  0.00    +0.000 A 
ATOM     27  C   UNL     1       2.936   2.549  20.961  0.00  0.00    +0.000 A 
ATOM     28  C   UNL     1       1.594   2.829  21.174  0.00  0.00    +0.000 A 
ATOM     29  C   UNL     1       1.057   3.964  20.581  0.00  0.00    +0.000 A 
ATOM     30  N   UNL     1       1.750   4.826  19.787  0.00  0.00    +0.000 NA
ATOM     31  N   UNL     1       5.060   4.883  18.257  0.00  0.00    +0.000 NA
ENDBRANCH   1  23
TORSDOF 2
ENDMDL
