MODEL 1
REMARK VINA RESULT:      -9.6      0.000      0.000
REMARK  Name = 
REMARK  4 active torsions:
REMARK  status: ('A' for Active; 'I' for Inactive)
REMARK    1  A    between atoms: C_1  and  N_2
REMARK    2  A    between atoms: C_6  and  C_7
REMARK    3  A    between atoms: C_9  and  C_10
REMARK    4  A    between atoms: C_22  and  C_23
REMARK                            x       y       z     vdW  Elec       q    Type
REMARK                         _______ _______ _______ _____ _____    ______ ____
ROOT
ATOM      1  C   UNL     1       1.687   7.566  20.069  0.00  0.00    +0.000 A 
ATOM      2  N   UNL     1       1.838   8.508  19.181  0.00  0.00    +0.000 NA
ATOM      3  C   UNL     1       1.072   9.529  19.682  0.00  0.00    +0.000 A 
ATOM      4  N   UNL     1       0.479   9.245  20.854  0.00  0.00    +0.000 NA
ATOM      5  O   UNL     1       0.901   7.936  21.123  0.00  0.00    +0.000 OA
ENDROOT
BRANCH   3   6
ATOM      6  C   UNL     1       0.849  10.802  18.925  0.00  0.00    +0.000 C 
ATOM      7  C   UNL     1       1.237  12.037  19.756  0.00  0.00    +0.000 C 
ATOM      8  C   UNL     1       0.227  12.343  20.860  0.00  0.00    +0.000 C 
ATOM      9  C   UNL     1      -1.168  12.565  20.286  0.00  0.00    +0.000 C 
ATOM     10  C   UNL     1      -1.566  11.581  19.212  0.00  0.00    +0.000 A 
ATOM     11  C   UNL     1      -2.918  11.507  18.842  0.00  0.00    +0.000 A 
ATOM     12  C   UNL     1      -3.335  10.648  17.825  0.00  0.00    +0.000 A 
ATOM     13  C   UNL     1      -2.404   9.864  17.152  0.00  0.00    +0.000 A 
ATOM     14  C   UNL     1      -1.055   9.934  17.501  0.00  0.00    +0.000 A 
ATOM     15  C   UNL     1      -0.620  10.785  18.537  0.00  0.00    +0.000 A 
ENDBRANCH   3   6
BRANCH   1  21
ATOM     16  C   UNL     1       2.411   3.485  17.450  0.00  0.00    +0.000 C 
ATOM     17  N   UNL     1       2.262   4.328  18.618  0.00  0.00    +0.000 N 
ATOM     18  C   UNL     1       1.495   3.973  19.711  0.00  0.00    +0.000 C 
ATOM     19  O   UNL     1       0.977   2.891  19.914  0.00  0.00    +0.000 OA
ATOM     20  C   UNL     1       1.356   5.160  20.622  0.00  0.00    +0.000 C 
ATOM     21  C   UNL     1       2.284   6.212  20.035  0.00  0.00    +0.000 C 
ATOM     22  C   UNL     1       2.662   5.721  18.631  0.00  0.00    +0.000 C 
BRANCH  22  23
ATOM     23  C   UNL     1       4.154   5.881  18.377  0.00  0.00    +0.000 A 
ATOM     24  C   UNL     1       5.098   5.309  19.256  0.00  0.00    +0.000 A 
ATOM     25  C   UNL     1       6.464   5.504  19.061  0.00  0.00    +0.000 A 
ATOM     26  C   UNL     1       6.895   6.256  17.979  0.00  0.00    +0.000 A 
ATOM     27  F   UNL     1       8.208   6.450  17.793  0.00  0.00    +0.000 F 
ATOM     28  C   UNL     1       5.987   6.816  17.087  0.00  0.00    +0.000 A 
ATOM     29  C   UNL     1       4.616   6.631  17.284  0.00  0.00    +0.000 A 
ENDBRANCH  22  23
ENDBRANCH   1  21
TORSDOF 3
ENDMDL
MODEL 2
REMARK VINA RESULT:      -9.3      1.161      1.508
REMARK  Name = 
REMARK  4 active torsions:
REMARK  status: ('A' for Active; 'I' for Inactive)
REMARK    1  A    between atoms: C_1  and  N_2
REMARK    2  A    between atoms: C_6  and  C_7
REMARK    3  A    between atoms: C_9  and  C_10
REMARK    4  A    between atoms: C_22  and  C_23
REMARK                            x       y       z     vdW  Elec       q    Type
REMARK                         _______ _______ _______ _____ _____    ______ ____
ROOT
ATOM      1  C   UNL     1       2.059   7.232  19.728  0.00  0.00    +0.000 A 
ATOM      2  N   UNL     1       2.157   7.920  18.625  0.00  0.00    +0.000 NA
ATOM      3  C   UNL     1       1.533   9.099  18.943  0.00  0.00    +0.000 A 
ATOM      4  N   UNL     1       1.079   9.157  20.206  0.00  0.00    +0.000 NA
ATOM      5  O   UNL     1       1.443   7.913  20.739  0.00  0.00    +0.000 OA
ENDROOT
BRANCH   3   6
ATOM      6  C   UNL     1       1.299  10.175  17.926  0.00  0.00    +0.000 C 
ATOM      7  C   UNL     1       2.224  11.383  18.149  0.00  0.00    +0.000 C 
ATOM      8  C   UNL     1       1.810  12.226  19.353  0.00  0.00    +0.000 C 
ATOM      9  C   UNL     1       0.379  12.733  19.206  0.00  0.00    +0.000 C 
ATOM     10  C   UNL     1      -0.598  11.705  18.688  0.00  0.00    +0.000 A 
ATOM     11  C   UNL     1      -1.972  11.970  18.805  0.00  0.00    +0.000 A 
ATOM     12  C   UNL     1      -2.918  11.077  18.304  0.00  0.00    +0.000 A 
ATOM     13  C   UNL     1      -2.504   9.913  17.664  0.00  0.00    +0.000 A 
ATOM     14  C   UNL     1      -1.143   9.640  17.530  0.00  0.00    +0.000 A 
ATOM     15  C   UNL     1      -0.175  10.525  18.045  0.00  0.00    +0.000 A 
ENDBRANCH   3   6
BRANCH   1  21
ATOM     16  C   UNL     1       1.953   2.551  18.275  0.00  0.00    +0.000 C 
ATOM     17  N   UNL     1       2.113   3.683  19.165  0.00  0.00    +0.000 N 
ATOM     18  C   UNL     1       1.584   3.719  20.440  0.00  0.00    +0.000 C 
ATOM     19  O   UNL     1       1.061   2.796  21.035  0.00  0.00    +0.000 OA
ATOM     20  C   UNL     1       1.718   5.111  20.989  0.00  0.00    +0.000 C 
ATOM     21  C   UNL     1       2.554   5.857  19.962  0.00  0.00    +0.000 C 
ATOM     22  C   UNL     1       2.587   4.974  18.706  0.00  0.00    +0.000 C 
BRANCH  22  23
ATOM     23  C   UNL     1       3.994   4.887  18.134  0.00  0.00    +0.000 A 
ATOM     24  C   UNL     1       4.198   4.717  16.749  0.00  0.00    +0.000 A 
ATOM     25  C   UNL     1       5.483   4.576  16.227  0.00  0.00    +0.000 A 
ATOM     26  C   UNL     1       6.571   4.621  17.085  0.00  0.00    +0.000 A 
ATOM     27  F   UNL     1       7.808   4.480  16.587  0.00  0.00    +0.000 F 
ATOM     28  C   UNL     1       6.401   4.806  18.453  0.00  0.00    +0.000 A 
ATOM     29  C   UNL     1       5.113   4.938  18.980  0.00  0.00    +0.000 A 
ENDBRANCH  22  23
ENDBRANCH   1  21
TORSDOF 3
ENDMDL
MODEL 3
REMARK VINA RESULT:      -9.0      3.160      8.072
REMARK  Name = 
REMARK  4 active torsions:
REMARK  status: ('A' for Active; 'I' for Inactive)
REMARK    1  A    between atoms: C_1  and  N_2
REMARK    2  A    between atoms: C_6  and  C_7
REMARK    3  A    between atoms: C_9  and  C_10
REMARK    4  A    between atoms: C_22  and  C_23
REMARK                            x       y       z     vdW  Elec       q    Type
REMARK                         _______ _______ _______ _____ _____    ______ ____
ROOT
ATOM      1  C   UNL     1       1.295   8.836  19.359  0.00  0.00    +0.000 A 
ATOM      2  N   UNL     1       2.044   8.026  20.053  0.00  0.00    +0.000 NA
ATOM      3  C   UNL     1       2.564   7.193  19.096  0.00  0.00    +0.000 A 
ATOM      4  N   UNL     1       2.172   7.483  17.844  0.00  0.00    +0.000 NA
ATOM      5  O   UNL     1       1.333   8.592  18.016  0.00  0.00    +0.000 OA
ENDROOT
BRANCH   3   6
ATOM      6  C   UNL     1       3.411   6.008  19.448  0.00  0.00    +0.000 C 
ATOM      7  C   UNL     1       4.664   5.918  18.560  0.00  0.00    +0.000 C 
ATOM      8  C   UNL     1       4.345   5.454  17.140  0.00  0.00    +0.000 C 
ATOM      9  C   UNL     1       3.656   4.094  17.145  0.00  0.00    +0.000 C 
ATOM     10  C   UNL     1       2.587   3.938  18.200  0.00  0.00    +0.000 A 
ATOM     11  C   UNL     1       1.696   2.858  18.094  0.00  0.00    +0.000 A 
ATOM     12  C   UNL     1       0.717   2.641  19.064  0.00  0.00    +0.000 A 
ATOM     13  C   UNL     1       0.626   3.491  20.162  0.00  0.00    +0.000 A 
ATOM     14  C   UNL     1       1.511   4.562  20.286  0.00  0.00    +0.000 A 
ATOM     15  C   UNL     1       2.494   4.804  19.307  0.00  0.00    +0.000 A 
ENDBRANCH   3   6
BRANCH   1  21
ATOM     16  C   UNL     1       0.123  13.582  18.982  0.00  0.00    +0.000 C 
ATOM     17  N   UNL     1       0.299  12.281  19.596  0.00  0.00    +0.000 N 
ATOM     18  C   UNL     1       0.869  12.107  20.841  0.00  0.00    +0.000 C 
ATOM     19  O   UNL     1       1.159  12.981  21.636  0.00  0.00    +0.000 OA
ATOM     20  C   UNL     1       1.124  10.643  21.066  0.00  0.00    +0.000 C 
ATOM     21  C   UNL     1       0.470   9.947  19.882  0.00  0.00    +0.000 C 
ATOM     22  C   UNL     1       0.158  11.044  18.854  0.00  0.00    +0.000 C 
BRANCH  22  23
ATOM     23  C   UNL     1      -1.245  10.882  18.287  0.00  0.00    +0.000 A 
ATOM     24  C   UNL     1      -1.475  10.071  17.158  0.00  0.00    +0.000 A 
ATOM     25  C   UNL     1      -2.748   9.968  16.599  0.00  0.00    +0.000 A 
ATOM     26  C   UNL     1      -3.800  10.662  17.178  0.00  0.00    +0.000 A 
ATOM     27  F   UNL     1      -5.025  10.569  16.640  0.00  0.00    +0.000 F 
ATOM     28  C   UNL     1      -3.605  11.454  18.304  0.00  0.00    +0.000 A 
ATOM     29  C   UNL     1      -2.328  11.567  18.860  0.00  0.00    +0.000 A 
ENDBRANCH  22  23
ENDBRANCH   1  21
TORSDOF 3
ENDMDL
MODEL 4
REMARK VINA RESULT:      -8.8      3.103      7.901
REMARK  Name = 
REMARK  4 active torsions:
REMARK  status: ('A' for Active; 'I' for Inactive)
REMARK    1  A    between atoms: C_1  and  N_2
REMARK    2  A    between atoms: C_6  and  C_7
REMARK    3  A    between atoms: C_9  and  C_10
REMARK    4  A    between atoms: C_22  and  C_23
REMARK                            x       y       z     vdW  Elec       q    Type
REMARK                         _______ _______ _______ _____ _____    ______ ____
ROOT
ATOM      1  C   UNL     1       1.078   8.528  19.766  0.00  0.00    +0.000 A 
ATOM      2  N   UNL     1       1.698   7.540  20.348  0.00  0.00    +0.000 NA
ATOM      3  C   UNL     1       2.609   7.149  19.401  0.00  0.00    +0.000 A 
ATOM      4  N   UNL     1       2.577   7.879  18.274  0.00  0.00    +0.000 NA
ATOM      5  O   UNL     1       1.562   8.813  18.521  0.00  0.00    +0.000 OA
ENDROOT
BRANCH   3   6
ATOM      6  C   UNL     1       3.484   5.947  19.588  0.00  0.00    +0.000 C 
ATOM      7  C   UNL     1       4.663   5.940  18.601  0.00  0.00    +0.000 C 
ATOM      8  C   UNL     1       4.236   5.591  17.177  0.00  0.00    +0.000 C 
ATOM      9  C   UNL     1       3.552   4.229  17.123  0.00  0.00    +0.000 C 
ATOM     10  C   UNL     1       2.569   3.978  18.242  0.00  0.00    +0.000 A 
ATOM     11  C   UNL     1       1.675   2.903  18.118  0.00  0.00    +0.000 A 
ATOM     12  C   UNL     1       0.776   2.599  19.140  0.00  0.00    +0.000 A 
ATOM     13  C   UNL     1       0.769   3.355  20.307  0.00  0.00    +0.000 A 
ATOM     14  C   UNL     1       1.658   4.420  20.450  0.00  0.00    +0.000 A 
ATOM     15  C   UNL     1       2.562   4.751  19.421  0.00  0.00    +0.000 A 
ENDBRANCH   3   6
BRANCH   1  21
ATOM     16  C   UNL     1      -0.648  13.023  20.692  0.00  0.00    +0.000 C 
ATOM     17  N   UNL     1      -0.468  11.592  20.833  0.00  0.00    +0.000 N 
ATOM     18  C   UNL     1      -0.290  10.972  22.054  0.00  0.00    +0.000 C 
ATOM     19  O   UNL     1      -0.400  11.484  23.152  0.00  0.00    +0.000 OA
ATOM     20  C   UNL     1       0.109   9.541  21.826  0.00  0.00    +0.000 C 
ATOM     21  C   UNL     1      -0.031   9.332  20.326  0.00  0.00    +0.000 C 
ATOM     22  C   UNL     1      -0.178  10.729  19.706  0.00  0.00    +0.000 C 
BRANCH  22  23
ATOM     23  C   UNL     1      -1.295  10.755  18.672  0.00  0.00    +0.000 A 
ATOM     24  C   UNL     1      -2.470  11.500  18.903  0.00  0.00    +0.000 A 
ATOM     25  C   UNL     1      -3.520  11.479  17.987  0.00  0.00    +0.000 A 
ATOM     26  C   UNL     1      -3.395  10.727  16.829  0.00  0.00    +0.000 A 
ATOM     27  F   UNL     1      -4.406  10.701  15.949  0.00  0.00    +0.000 F 
ATOM     28  C   UNL     1      -2.240   9.998  16.567  0.00  0.00    +0.000 A 
ATOM     29  C   UNL     1      -1.189  10.010  17.487  0.00  0.00    +0.000 A 
ENDBRANCH  22  23
ENDBRANCH   1  21
TORSDOF 3
ENDMDL
MODEL 5
REMARK VINA RESULT:      -8.6      2.767      4.457
REMARK  Name = 
REMARK  4 active torsions:
REMARK  status: ('A' for Active; 'I' for Inactive)
REMARK    1  A    between atoms: C_1  and  N_2
REMARK    2  A    between atoms: C_6  and  C_7
REMARK    3  A    between atoms: C_9  and  C_10
REMARK    4  A    between atoms: C_22  and  C_23
REMARK                            x       y       z     vdW  Elec       q    Type
REMARK                         _______ _______ _______ _____ _____    ______ ____
ROOT
ATOM      1  C   UNL     1       2.607   8.247  17.920  0.00  0.00    +0.000 A 
ATOM      2  N   UNL     1       1.835   8.424  18.955  0.00  0.00    +0.000 NA
ATOM      3  C   UNL     1       1.401   9.715  18.797  0.00  0.00    +0.000 A 
ATOM      4  N   UNL     1       1.867  10.320  17.692  0.00  0.00    +0.000 NA
ATOM      5  O   UNL     1       2.664   9.334  17.094  0.00  0.00    +0.000 OA
ENDROOT
BRANCH   3   6
ATOM      6  C   UNL     1       0.564  10.405  19.831  0.00  0.00    +0.000 C 
ATOM      7  C   UNL     1      -0.896   9.922  19.799  0.00  0.00    +0.000 C 
ATOM      8  C   UNL     1      -1.668  10.465  18.598  0.00  0.00    +0.000 C 
ATOM      9  C   UNL     1      -1.661  11.990  18.581  0.00  0.00    +0.000 C 
ATOM     10  C   UNL     1      -0.326  12.614  18.909  0.00  0.00    +0.000 A 
ATOM     11  C   UNL     1      -0.137  13.976  18.625  0.00  0.00    +0.000 A 
ATOM     12  C   UNL     1       1.061  14.614  18.948  0.00  0.00    +0.000 A 
ATOM     13  C   UNL     1       2.080  13.903  19.573  0.00  0.00    +0.000 A 
ATOM     14  C   UNL     1       1.904  12.552  19.870  0.00  0.00    +0.000 A 
ATOM     15  C   UNL     1       0.706  11.889  19.537  0.00  0.00    +0.000 A 
ENDBRANCH   3   6
BRANCH   1  21
ATOM     16  C   UNL     1       5.842   4.892  19.439  0.00  0.00    +0.000 C 
ATOM     17  N   UNL     1       5.091   5.720  18.518  0.00  0.00    +0.000 N 
ATOM     18  C   UNL     1       5.673   6.388  17.458  0.00  0.00    +0.000 C 
ATOM     19  O   UNL     1       6.819   6.269  17.067  0.00  0.00    +0.000 OA
ATOM     20  C   UNL     1       4.672   7.337  16.864  0.00  0.00    +0.000 C 
ATOM     21  C   UNL     1       3.366   7.024  17.579  0.00  0.00    +0.000 C 
ATOM     22  C   UNL     1       3.732   6.148  18.786  0.00  0.00    +0.000 C 
BRANCH  22  23
ATOM     23  C   UNL     1       2.783   4.966  18.913  0.00  0.00    +0.000 A 
ATOM     24  C   UNL     1       2.691   4.004  17.886  0.00  0.00    +0.000 A 
ATOM     25  C   UNL     1       1.779   2.953  17.971  0.00  0.00    +0.000 A 
ATOM     26  C   UNL     1       0.969   2.848  19.092  0.00  0.00    +0.000 A 
ATOM     27  F   UNL     1       0.087   1.841  19.174  0.00  0.00    +0.000 F 
ATOM     28  C   UNL     1       1.052   3.771  20.128  0.00  0.00    +0.000 A 
ATOM     29  C   UNL     1       1.958   4.832  20.041  0.00  0.00    +0.000 A 
ENDBRANCH  22  23
ENDBRANCH   1  21
TORSDOF 3
ENDMDL
MODEL 6
REMARK VINA RESULT:      -8.6      3.117      8.113
REMARK  Name = 
REMARK  4 active torsions:
REMARK  status: ('A' for Active; 'I' for Inactive)
REMARK    1  A    between atoms: C_1  and  N_2
REMARK    2  A    between atoms: C_6  and  C_7
REMARK    3  A    between atoms: C_9  and  C_10
REMARK    4  A    between atoms: C_22  and  C_23
REMARK                            x       y       z     vdW  Elec       q    Type
REMARK                         _______ _______ _______ _____ _____    ______ ____
ROOT
ATOM      1  C   UNL     1       1.850   8.294  18.912  0.00  0.00    +0.000 A 
ATOM      2  N   UNL     1       2.349   7.093  18.830  0.00  0.00    +0.000 NA
ATOM      3  C   UNL     1       3.227   7.195  17.782  0.00  0.00    +0.000 A 
ATOM      4  N   UNL     1       3.294   8.423  17.240  0.00  0.00    +0.000 NA
ATOM      5  O   UNL     1       2.383   9.165  18.004  0.00  0.00    +0.000 OA
ENDROOT
BRANCH   3   6
ATOM      6  C   UNL     1       3.963   6.007  17.241  0.00  0.00    +0.000 C 
ATOM      7  C   UNL     1       3.299   4.685  17.661  0.00  0.00    +0.000 C 
ATOM      8  C   UNL     1       3.537   4.349  19.132  0.00  0.00    +0.000 C 
ATOM      9  C   UNL     1       5.027   4.263  19.444  0.00  0.00    +0.000 C 
ATOM     10  C   UNL     1       5.861   5.356  18.822  0.00  0.00    +0.000 A 
ATOM     11  C   UNL     1       7.171   5.545  19.288  0.00  0.00    +0.000 A 
ATOM     12  C   UNL     1       8.001   6.511  18.719  0.00  0.00    +0.000 A 
ATOM     13  C   UNL     1       7.537   7.291  17.665  0.00  0.00    +0.000 A 
ATOM     14  C   UNL     1       6.241   7.108  17.183  0.00  0.00    +0.000 A 
ATOM     15  C   UNL     1       5.385   6.148  17.757  0.00  0.00    +0.000 A 
ENDBRANCH   3   6
BRANCH   1  21
ATOM     16  C   UNL     1       0.192  12.042  21.603  0.00  0.00    +0.000 C 
ATOM     17  N   UNL     1       0.424  10.669  21.201  0.00  0.00    +0.000 N 
ATOM     18  C   UNL     1       0.808   9.680  22.085  0.00  0.00    +0.000 C 
ATOM     19  O   UNL     1       0.862   9.770  23.296  0.00  0.00    +0.000 OA
ATOM     20  C   UNL     1       1.198   8.453  21.311  0.00  0.00    +0.000 C 
ATOM     21  C   UNL     1       0.826   8.766  19.870  0.00  0.00    +0.000 C 
ATOM     22  C   UNL     1       0.551  10.275  19.812  0.00  0.00    +0.000 C 
BRANCH  22  23
ATOM     23  C   UNL     1      -0.716  10.572  19.023  0.00  0.00    +0.000 A 
ATOM     24  C   UNL     1      -0.950   9.952  17.778  0.00  0.00    +0.000 A 
ATOM     25  C   UNL     1      -2.079  10.266  17.025  0.00  0.00    +0.000 A 
ATOM     26  C   UNL     1      -2.989  11.189  17.519  0.00  0.00    +0.000 A 
ATOM     27  F   UNL     1      -4.074  11.497  16.794  0.00  0.00    +0.000 F 
ATOM     28  C   UNL     1      -2.793  11.801  18.752  0.00  0.00    +0.000 A 
ATOM     29  C   UNL     1      -1.657  11.496  19.506  0.00  0.00    +0.000 A 
ENDBRANCH  22  23
ENDBRANCH   1  21
TORSDOF 3
ENDMDL
MODEL 7
REMARK VINA RESULT:      -8.6      2.461      3.718
REMARK  Name = 
REMARK  4 active torsions:
REMARK  status: ('A' for Active; 'I' for Inactive)
REMARK    1  A    between atoms: C_1  and  N_2
REMARK    2  A    between atoms: C_6  and  C_7
REMARK    3  A    between atoms: C_9  and  C_10
REMARK    4  A    between atoms: C_22  and  C_23
REMARK                            x       y       z     vdW  Elec       q    Type
REMARK                         _______ _______ _______ _____ _____    ______ ____
ROOT
ATOM      1  C   UNL     1       2.254   8.269  18.286  0.00  0.00    +0.000 A 
ATOM      2  N   UNL     1       1.990   9.401  17.696  0.00  0.00    +0.000 NA
ATOM      3  C   UNL     1       1.215  10.055  18.619  0.00  0.00    +0.000 A 
ATOM      4  N   UNL     1       1.016   9.367  19.756  0.00  0.00    +0.000 NA
ATOM      5  O   UNL     1       1.723   8.176  19.542  0.00  0.00    +0.000 OA
ENDROOT
BRANCH   3   6
ATOM      6  C   UNL     1       0.572  11.376  18.324  0.00  0.00    +0.000 C 
ATOM      7  C   UNL     1       0.895  12.422  19.404  0.00  0.00    +0.000 C 
ATOM      8  C   UNL     1       0.135  12.176  20.706  0.00  0.00    +0.000 C 
ATOM      9  C   UNL     1      -1.372  12.169  20.474  0.00  0.00    +0.000 C 
ATOM     10  C   UNL     1      -1.811  11.416  19.241  0.00  0.00    +0.000 A 
ATOM     11  C   UNL     1      -3.171  11.093  19.104  0.00  0.00    +0.000 A 
ATOM     12  C   UNL     1      -3.639  10.437  17.966  0.00  0.00    +0.000 A 
ATOM     13  C   UNL     1      -2.758  10.109  16.941  0.00  0.00    +0.000 A 
ATOM     14  C   UNL     1      -1.406  10.433  17.057  0.00  0.00    +0.000 A 
ATOM     15  C   UNL     1      -0.914  11.081  18.207  0.00  0.00    +0.000 A 
ENDBRANCH   3   6
BRANCH   1  21
ATOM     16  C   UNL     1       5.810   5.001  19.127  0.00  0.00    +0.000 C 
ATOM     17  N   UNL     1       4.932   5.873  18.375  0.00  0.00    +0.000 N 
ATOM     18  C   UNL     1       5.376   6.698  17.360  0.00  0.00    +0.000 C 
ATOM     19  O   UNL     1       6.488   6.707  16.867  0.00  0.00    +0.000 OA
ATOM     20  C   UNL     1       4.270   7.636  16.967  0.00  0.00    +0.000 C 
ATOM     21  C   UNL     1       3.054   7.151  17.741  0.00  0.00    +0.000 C 
ATOM     22  C   UNL     1       3.578   6.171  18.801  0.00  0.00    +0.000 C 
BRANCH  22  23
ATOM     23  C   UNL     1       2.718   4.917  18.861  0.00  0.00    +0.000 A 
ATOM     24  C   UNL     1       2.687   4.014  17.778  0.00  0.00    +0.000 A 
ATOM     25  C   UNL     1       1.855   2.896  17.804  0.00  0.00    +0.000 A 
ATOM     26  C   UNL     1       1.063   2.665  18.919  0.00  0.00    +0.000 A 
ATOM     27  F   UNL     1       0.257   1.594  18.944  0.00  0.00    +0.000 F 
ATOM     28  C   UNL     1       1.087   3.529  20.008  0.00  0.00    +0.000 A 
ATOM     29  C   UNL     1       1.913   4.656  19.982  0.00  0.00    +0.000 A 
ENDBRANCH  22  23
ENDBRANCH   1  21
TORSDOF 3
ENDMDL
MODEL 8
REMARK VINA RESULT:      -8.5      2.540      3.797
REMARK  Name = 
REMARK  4 active torsions:
REMARK  status: ('A' for Active; 'I' for Inactive)
REMARK    1  A    between atoms: C_1  and  N_2
REMARK    2  A    between atoms: C_6  and  C_7
REMARK    3  A    between atoms: C_9  and  C_10
REMARK    4  A    between atoms: C_22  and  C_23
REMARK                            x       y       z     vdW  Elec       q    Type
REMARK                         _______ _______ _______ _____ _____    ______ ____
ROOT
ATOM      1  C   UNL     1       2.227   8.590  18.282  0.00  0.00    +0.000 A 
ATOM      2  N   UNL     1       2.216   9.782  17.756  0.00  0.00    +0.000 NA
ATOM      3  C   UNL     1       1.456  10.502  18.640  0.00  0.00    +0.000 A 
ATOM      4  N   UNL     1       1.022   9.792  19.696  0.00  0.00    +0.000 NA
ATOM      5  O   UNL     1       1.549   8.514  19.466  0.00  0.00    +0.000 OA
ENDROOT
BRANCH   3   6
ATOM      6  C   UNL     1       1.070  11.927  18.382  0.00  0.00    +0.000 C 
ATOM      7  C   UNL     1       1.988  12.911  19.125  0.00  0.00    +0.000 C 
ATOM      8  C   UNL     1       1.711  12.953  20.627  0.00  0.00    +0.000 C 
ATOM      9  C   UNL     1       0.262  13.334  20.910  0.00  0.00    +0.000 C 
ATOM     10  C   UNL     1      -0.750  12.653  20.020  0.00  0.00    +0.000 A 
ATOM     11  C   UNL     1      -2.103  12.696  20.391  0.00  0.00    +0.000 A 
ATOM     12  C   UNL     1      -3.085  12.122  19.584  0.00  0.00    +0.000 A 
ATOM     13  C   UNL     1      -2.729  11.512  18.386  0.00  0.00    +0.000 A 
ATOM     14  C   UNL     1      -1.390  11.470  17.998  0.00  0.00    +0.000 A 
ATOM     15  C   UNL     1      -0.385  12.031  18.810  0.00  0.00    +0.000 A 
ENDBRANCH   3   6
BRANCH   1  21
ATOM     16  C   UNL     1       5.610   5.116  19.009  0.00  0.00    +0.000 C 
ATOM     17  N   UNL     1       4.729   6.009  18.285  0.00  0.00    +0.000 N 
ATOM     18  C   UNL     1       5.135   6.741  17.187  0.00  0.00    +0.000 C 
ATOM     19  O   UNL     1       6.195   6.641  16.599  0.00  0.00    +0.000 OA
ATOM     20  C   UNL     1       4.066   7.736  16.834  0.00  0.00    +0.000 C 
ATOM     21  C   UNL     1       2.895   7.386  17.739  0.00  0.00    +0.000 C 
ATOM     22  C   UNL     1       3.443   6.429  18.807  0.00  0.00    +0.000 C 
BRANCH  22  23
ATOM     23  C   UNL     1       2.507   5.248  19.018  0.00  0.00    +0.000 A 
ATOM     24  C   UNL     1       2.017   4.941  20.304  0.00  0.00    +0.000 A 
ATOM     25  C   UNL     1       1.209   3.824  20.512  0.00  0.00    +0.000 A 
ATOM     26  C   UNL     1       0.872   3.020  19.433  0.00  0.00    +0.000 A 
ATOM     27  F   UNL     1       0.100   1.943  19.631  0.00  0.00    +0.000 F 
ATOM     28  C   UNL     1       1.327   3.310  18.152  0.00  0.00    +0.000 A 
ATOM     29  C   UNL     1       2.145   4.423  17.941  0.00  0.00    +0.000 A 
ENDBRANCH  22  23
ENDBRANCH   1  21
TORSDOF 3
ENDMDL
MODEL 9
REMARK VINA RESULT:      -8.5      2.989      7.771
REMARK  Name = 
REMARK  4 active torsions:
REMARK  status: ('A' for Active; 'I' for Inactive)
REMARK    1  A    between atoms: C_1  and  N_2
REMARK    2  A    between atoms: C_6  and  C_7
REMARK    3  A    between atoms: C_9  and  C_10
REMARK    4  A    between atoms: C_22  and  C_23
REMARK                            x       y       z     vdW  Elec       q    Type
REMARK                         _______ _______ _______ _____ _____    ______ ____
ROOT
ATOM      1  C   UNL     1       1.422   8.083  19.871  0.00  0.00    +0.000 A 
ATOM      2  N   UNL     1       2.034   7.053  20.385  0.00  0.00    +0.000 NA
ATOM      3  C   UNL     1       2.948   6.724  19.417  0.00  0.00    +0.000 A 
ATOM      4  N   UNL     1       2.925   7.531  18.343  0.00  0.00    +0.000 NA
ATOM      5  O   UNL     1       1.914   8.451  18.651  0.00  0.00    +0.000 OA
ENDROOT
BRANCH   3   6
ATOM      6  C   UNL     1       3.816   5.507  19.523  0.00  0.00    +0.000 C 
ATOM      7  C   UNL     1       4.975   5.542  18.514  0.00  0.00    +0.000 C 
ATOM      8  C   UNL     1       4.517   5.272  17.082  0.00  0.00    +0.000 C 
ATOM      9  C   UNL     1       3.820   3.920  16.972  0.00  0.00    +0.000 C 
ATOM     10  C   UNL     1       2.857   3.619  18.096  0.00  0.00    +0.000 A 
ATOM     11  C   UNL     1       1.952   2.558  17.934  0.00  0.00    +0.000 A 
ATOM     12  C   UNL     1       1.070   2.208  18.957  0.00  0.00    +0.000 A 
ATOM     13  C   UNL     1       1.093   2.903  20.161  0.00  0.00    +0.000 A 
ATOM     14  C   UNL     1       1.994   3.952  20.342  0.00  0.00    +0.000 A 
ATOM     15  C   UNL     1       2.880   4.328  19.313  0.00  0.00    +0.000 A 
ENDBRANCH   3   6
BRANCH   1  21
ATOM     16  C   UNL     1      -0.099  12.437  21.534  0.00  0.00    +0.000 C 
ATOM     17  N   UNL     1      -0.028  10.996  21.396  0.00  0.00    +0.000 N 
ATOM     18  C   UNL     1      -0.019  10.135  22.476  0.00  0.00    +0.000 C 
ATOM     19  O   UNL     1      -0.211  10.429  23.640  0.00  0.00    +0.000 OA
ATOM     20  C   UNL     1       0.309   8.749  21.998  0.00  0.00    +0.000 C 
ATOM     21  C   UNL     1       0.314   8.851  20.480  0.00  0.00    +0.000 C 
ATOM     22  C   UNL     1       0.324  10.350  20.147  0.00  0.00    +0.000 C 
BRANCH  22  23
ATOM     23  C   UNL     1      -0.675  10.673  19.044  0.00  0.00    +0.000 A 
ATOM     24  C   UNL     1      -1.589   9.698  18.594  0.00  0.00    +0.000 A 
ATOM     25  C   UNL     1      -2.463   9.970  17.544  0.00  0.00    +0.000 A 
ATOM     26  C   UNL     1      -2.441  11.224  16.950  0.00  0.00    +0.000 A 
ATOM     27  F   UNL     1      -3.277  11.486  15.936  0.00  0.00    +0.000 F 
ATOM     28  C   UNL     1      -1.563  12.209  17.386  0.00  0.00    +0.000 A 
ATOM     29  C   UNL     1      -0.678  11.937  18.433  0.00  0.00    +0.000 A 
ENDBRANCH  22  23
ENDBRANCH   1  21
TORSDOF 3
ENDMDL
