MODEL 1
REMARK VINA RESULT:      -8.3      0.000      0.000
REMARK  Name = 
REMARK  5 active torsions:
REMARK  status: ('A' for Active; 'I' for Inactive)
REMARK    1  A    between atoms: C_1  and  S_2
REMARK    2  A    between atoms: S_2  and  C_5
REMARK    3  A    between atoms: C_9  and  C_10
REMARK    4  A    between atoms: N_12  and  C_13
REMARK    5  A    between atoms: C_14  and  C_15
REMARK                            x       y       z     vdW  Elec       q    Type
REMARK                         _______ _______ _______ _____ _____    ______ ____
ROOT
ATOM      1  C   UNL     1       2.198   7.254  19.333  0.00  0.00    +0.000 C 
ATOM      2  O   UNL     1       2.024   6.657  20.369  0.00  0.00    +0.000 OA
ATOM      3  N   UNL     1       2.816   6.607  18.203  0.00  0.00    +0.000 N 
ATOM      4  H   UNL     1       3.135   7.156  17.411  0.00  0.00    +0.000 HD
ENDROOT
BRANCH   3   5
ATOM      5  C   UNL     1       3.348   5.311  18.294  0.00  0.00    +0.000 A 
ATOM      6  C   UNL     1       4.686   4.973  18.133  0.00  0.00    +0.000 A 
ATOM      7  N   UNL     1       4.873   3.613  18.156  0.00  0.00    +0.000 NA
ATOM      8  C   UNL     1       3.685   3.110  18.408  0.00  0.00    +0.000 A 
ATOM      9  C   UNL     1       3.289   1.759  18.626  0.00  0.00    +0.000 A 
ATOM     10  C   UNL     1       1.984   1.459  18.757  0.00  0.00    +0.000 A 
ATOM     11  C   UNL     1       0.961   2.486  18.659  0.00  0.00    +0.000 A 
ATOM     12  C   UNL     1       1.332   3.769  18.502  0.00  0.00    +0.000 A 
ATOM     13  N   UNL     1       2.692   4.094  18.430  0.00  0.00    +0.000 N 
BRANCH   6  14
ATOM     14  C   UNL     1       5.825   5.921  18.012  0.00  0.00    +0.000 A 
ATOM     15  C   UNL     1       7.061   5.788  18.620  0.00  0.00    +0.000 A 
ATOM     16  C   UNL     1       7.839   6.899  18.209  0.00  0.00    +0.000 A 
ATOM     17  C   UNL     1       7.023   7.655  17.400  0.00  0.00    +0.000 A 
ATOM     18  O   UNL     1       5.807   7.065  17.261  0.00  0.00    +0.000 OA
ENDBRANCH   6  14
ENDBRANCH   3   5
BRANCH   1  23
ATOM     19  C   UNL     1       0.873  10.721  20.096  0.00  0.00    +0.000 A 
ATOM     20  C   UNL     1       1.248  11.439  18.958  0.00  0.00    +0.000 A 
ATOM     21  C   UNL     1       1.865  10.770  17.902  0.00  0.00    +0.000 A 
ATOM     22  C   UNL     1       2.141   9.399  17.998  0.00  0.00    +0.000 A 
ATOM     23  C   UNL     1       1.798   8.688  19.159  0.00  0.00    +0.000 A 
ATOM     24  C   UNL     1       1.129   9.349  20.198  0.00  0.00    +0.000 A 
BRANCH  19  26
ATOM     25  C   UNL     1      -1.544  11.921  20.905  0.00  0.00    +0.000 C 
ATOM     26  S   UNL     1       0.110  11.587  21.455  0.00  0.00    +0.000 S 
ATOM     27  O   UNL     1       0.817  12.857  21.561  0.00  0.00    +0.000 OA
ATOM     28  O   UNL     1       0.046  10.668  22.565  0.00  0.00    +0.000 OA
ENDBRANCH  19  26
ENDBRANCH   1  23
TORSDOF 4
ENDMDL
MODEL 2
REMARK VINA RESULT:      -8.1      1.809      4.083
REMARK  Name = 
REMARK  5 active torsions:
REMARK  status: ('A' for Active; 'I' for Inactive)
REMARK    1  A    between atoms: C_1  and  S_2
REMARK    2  A    between atoms: S_2  and  C_5
REMARK    3  A    between atoms: C_9  and  C_10
REMARK    4  A    between atoms: N_12  and  C_13
REMARK    5  A    between atoms: C_14  and  C_15
REMARK                            x       y       z     vdW  Elec       q    Type
REMARK                         _______ _______ _______ _____ _____    ______ ____
ROOT
ATOM      1  C   UNL     1       2.612   7.870  18.260  0.00  0.00    +0.000 C 
ATOM      2  O   UNL     1       2.837   7.826  17.074  0.00  0.00    +0.000 OA
ATOM      3  N   UNL     1       3.238   6.940  19.166  0.00  0.00    +0.000 N 
ATOM      4  H   UNL     1       2.903   6.853  20.120  0.00  0.00    +0.000 HD
ENDROOT
BRANCH   3   5
ATOM      5  C   UNL     1       4.029   5.877  18.702  0.00  0.00    +0.000 A 
ATOM      6  C   UNL     1       3.843   4.535  19.011  0.00  0.00    +0.000 A 
ATOM      7  N   UNL     1       4.853   3.753  18.509  0.00  0.00    +0.000 NA
ATOM      8  C   UNL     1       5.617   4.579  17.827  0.00  0.00    +0.000 A 
ATOM      9  C   UNL     1       6.764   4.316  17.024  0.00  0.00    +0.000 A 
ATOM     10  C   UNL     1       7.463   5.340  16.503  0.00  0.00    +0.000 A 
ATOM     11  C   UNL     1       7.085   6.719  16.762  0.00  0.00    +0.000 A 
ATOM     12  C   UNL     1       5.975   6.973  17.478  0.00  0.00    +0.000 A 
ATOM     13  N   UNL     1       5.208   5.908  17.967  0.00  0.00    +0.000 N 
BRANCH   6  14
ATOM     14  C   UNL     1       2.684   3.951  19.736  0.00  0.00    +0.000 A 
ATOM     15  C   UNL     1       2.746   2.977  20.717  0.00  0.00    +0.000 A 
ATOM     16  C   UNL     1       1.416   2.744  21.145  0.00  0.00    +0.000 A 
ATOM     17  C   UNL     1       0.622   3.567  20.380  0.00  0.00    +0.000 A 
ATOM     18  O   UNL     1       1.380   4.314  19.536  0.00  0.00    +0.000 OA
ENDBRANCH   6  14
ENDBRANCH   3   5
BRANCH   1  23
ATOM     19  C   UNL     1       0.470   9.706  20.790  0.00  0.00    +0.000 A 
ATOM     20  C   UNL     1       0.107  10.858  20.089  0.00  0.00    +0.000 A 
ATOM     21  C   UNL     1       0.495  11.000  18.759  0.00  0.00    +0.000 A 
ATOM     22  C   UNL     1       1.277  10.013  18.142  0.00  0.00    +0.000 A 
ATOM     23  C   UNL     1       1.673   8.873  18.859  0.00  0.00    +0.000 A 
ATOM     24  C   UNL     1       1.236   8.706  20.181  0.00  0.00    +0.000 A 
BRANCH  19  26
ATOM     25  C   UNL     1      -0.990  10.983  22.832  0.00  0.00    +0.000 C 
ATOM     26  S   UNL     1      -0.007   9.544  22.500  0.00  0.00    +0.000 S 
ATOM     27  O   UNL     1       1.228   9.651  23.266  0.00  0.00    +0.000 OA
ATOM     28  O   UNL     1      -0.852   8.379  22.599  0.00  0.00    +0.000 OA
ENDBRANCH  19  26
ENDBRANCH   1  23
TORSDOF 4
ENDMDL
MODEL 3
REMARK VINA RESULT:      -8.0      1.874      4.352
REMARK  Name = 
REMARK  5 active torsions:
REMARK  status: ('A' for Active; 'I' for Inactive)
REMARK    1  A    between atoms: C_1  and  S_2
REMARK    2  A    between atoms: S_2  and  C_5
REMARK    3  A    between atoms: C_9  and  C_10
REMARK    4  A    between atoms: N_12  and  C_13
REMARK    5  A    between atoms: C_14  and  C_15
REMARK                            x       y       z     vdW  Elec       q    Type
REMARK                         _______ _______ _______ _____ _____    ______ ____
ROOT
ATOM      1  C   UNL     1       2.522   7.651  18.608  0.00  0.00    +0.000 C 
ATOM      2  O   UNL     1       2.637   7.888  17.429  0.00  0.00    +0.000 OA
ATOM      3  N   UNL     1       3.210   6.535  19.207  0.00  0.00    +0.000 N 
ATOM      4  H   UNL     1       2.963   6.224  20.141  0.00  0.00    +0.000 HD
ENDROOT
BRANCH   3   5
ATOM      5  C   UNL     1       3.936   5.614  18.435  0.00  0.00    +0.000 A 
ATOM      6  C   UNL     1       3.636   4.265  18.291  0.00  0.00    +0.000 A 
ATOM      7  N   UNL     1       4.602   3.603  17.575  0.00  0.00    +0.000 NA
ATOM      8  C   UNL     1       5.452   4.536  17.206  0.00  0.00    +0.000 A 
ATOM      9  C   UNL     1       6.607   4.448  16.375  0.00  0.00    +0.000 A 
ATOM     10  C   UNL     1       7.402   5.522  16.223  0.00  0.00    +0.000 A 
ATOM     11  C   UNL     1       7.120   6.772  16.909  0.00  0.00    +0.000 A 
ATOM     12  C   UNL     1       6.006   6.875  17.654  0.00  0.00    +0.000 A 
ATOM     13  N   UNL     1       5.142   5.780  17.764  0.00  0.00    +0.000 N 
BRANCH   6  14
ATOM     14  C   UNL     1       2.408   3.580  18.774  0.00  0.00    +0.000 A 
ATOM     15  C   UNL     1       1.771   2.521  18.153  0.00  0.00    +0.000 A 
ATOM     16  C   UNL     1       0.667   2.172  18.970  0.00  0.00    +0.000 A 
ATOM     17  C   UNL     1       0.680   3.058  20.022  0.00  0.00    +0.000 A 
ATOM     18  O   UNL     1       1.738   3.905  19.922  0.00  0.00    +0.000 OA
ENDBRANCH   6  14
ENDBRANCH   3   5
BRANCH   1  23
ATOM     19  C   UNL     1       0.050  10.268  19.789  0.00  0.00    +0.000 A 
ATOM     20  C   UNL     1      -0.144   9.911  21.125  0.00  0.00    +0.000 A 
ATOM     21  C   UNL     1       0.595   8.861  21.665  0.00  0.00    +0.000 A 
ATOM     22  C   UNL     1       1.496   8.145  20.864  0.00  0.00    +0.000 A 
ATOM     23  C   UNL     1       1.661   8.481  19.511  0.00  0.00    +0.000 A 
ATOM     24  C   UNL     1       0.957   9.573  18.983  0.00  0.00    +0.000 A 
BRANCH  19  26
ATOM     25  C   UNL     1      -1.785  10.856  17.735  0.00  0.00    +0.000 C 
ATOM     26  S   UNL     1      -0.920  11.594  19.097  0.00  0.00    +0.000 S 
ATOM     27  O   UNL     1       0.042  12.548  18.559  0.00  0.00    +0.000 OA
ATOM     28  O   UNL     1      -1.885  11.984  20.095  0.00  0.00    +0.000 OA
ENDBRANCH  19  26
ENDBRANCH   1  23
TORSDOF 4
ENDMDL
MODEL 4
REMARK VINA RESULT:      -8.0      2.024      4.367
REMARK  Name = 
REMARK  5 active torsions:
REMARK  status: ('A' for Active; 'I' for Inactive)
REMARK    1  A    between atoms: C_1  and  S_2
REMARK    2  A    between atoms: S_2  and  C_5
REMARK    3  A    between atoms: C_9  and  C_10
REMARK    4  A    between atoms: N_12  and  C_13
REMARK    5  A    between atoms: C_14  and  C_15
REMARK                            x       y       z     vdW  Elec       q    Type
REMARK                         _______ _______ _______ _____ _____    ______ ____
ROOT
ATOM      1  C   UNL     1       2.337   7.547  19.000  0.00  0.00    +0.000 C 
ATOM      2  O   UNL     1       2.222   7.476  17.800  0.00  0.00    +0.000 OA
ATOM      3  N   UNL     1       3.275   6.709  19.703  0.00  0.00    +0.000 N 
ATOM      4  H   UNL     1       3.232   6.630  20.714  0.00  0.00    +0.000 HD
ENDROOT
BRANCH   3   5
ATOM      5  C   UNL     1       4.000   5.701  19.047  0.00  0.00    +0.000 A 
ATOM      6  C   UNL     1       3.829   4.334  19.228  0.00  0.00    +0.000 A 
ATOM      7  N   UNL     1       4.770   3.608  18.541  0.00  0.00    +0.000 NA
ATOM      8  C   UNL     1       5.469   4.501  17.876  0.00  0.00    +0.000 A 
ATOM      9  C   UNL     1       6.523   4.324  16.933  0.00  0.00    +0.000 A 
ATOM     10  C   UNL     1       7.178   5.397  16.455  0.00  0.00    +0.000 A 
ATOM     11  C   UNL     1       6.848   6.741  16.899  0.00  0.00    +0.000 A 
ATOM     12  C   UNL     1       5.822   6.918  17.750  0.00  0.00    +0.000 A 
ATOM     13  N   UNL     1       5.096   5.808  18.200  0.00  0.00    +0.000 N 
BRANCH   6  14
ATOM     14  C   UNL     1       2.743   3.678  20.004  0.00  0.00    +0.000 A 
ATOM     15  C   UNL     1       1.401   3.664  19.670  0.00  0.00    +0.000 A 
ATOM     16  C   UNL     1       0.739   2.907  20.669  0.00  0.00    +0.000 A 
ATOM     17  C   UNL     1       1.712   2.531  21.566  0.00  0.00    +0.000 A 
ATOM     18  O   UNL     1       2.931   2.978  21.165  0.00  0.00    +0.000 OA
ENDBRANCH   6  14
ENDBRANCH   3   5
BRANCH   1  23
ATOM     19  C   UNL     1       0.067  10.425  19.960  0.00  0.00    +0.000 A 
ATOM     20  C   UNL     1      -0.223  10.141  21.296  0.00  0.00    +0.000 A 
ATOM     21  C   UNL     1       0.388   9.050  21.910  0.00  0.00    +0.000 A 
ATOM     22  C   UNL     1       1.255   8.223  21.182  0.00  0.00    +0.000 A 
ATOM     23  C   UNL     1       1.516   8.488  19.828  0.00  0.00    +0.000 A 
ATOM     24  C   UNL     1       0.943   9.618  19.226  0.00  0.00    +0.000 A 
BRANCH  19  26
ATOM     25  C   UNL     1       0.583  12.886  18.689  0.00  0.00    +0.000 C 
ATOM     26  S   UNL     1      -0.740  11.806  19.172  0.00  0.00    +0.000 S 
ATOM     27  O   UNL     1      -1.506  12.467  20.220  0.00  0.00    +0.000 OA
ATOM     28  O   UNL     1      -1.378  11.304  17.980  0.00  0.00    +0.000 OA
ENDBRANCH  19  26
ENDBRANCH   1  23
TORSDOF 4
ENDMDL
MODEL 5
REMARK VINA RESULT:      -8.0      1.257      1.348
REMARK  Name = 
REMARK  5 active torsions:
REMARK  status: ('A' for Active; 'I' for Inactive)
REMARK    1  A    between atoms: C_1  and  S_2
REMARK    2  A    between atoms: S_2  and  C_5
REMARK    3  A    between atoms: C_9  and  C_10
REMARK    4  A    between atoms: N_12  and  C_13
REMARK    5  A    between atoms: C_14  and  C_15
REMARK                            x       y       z     vdW  Elec       q    Type
REMARK                         _______ _______ _______ _____ _____    ______ ____
ROOT
ATOM      1  C   UNL     1       2.303   7.387  18.413  0.00  0.00    +0.000 C 
ATOM      2  O   UNL     1       2.138   7.100  17.251  0.00  0.00    +0.000 OA
ATOM      3  N   UNL     1       3.070   6.531  19.283  0.00  0.00    +0.000 N 
ATOM      4  H   UNL     1       3.044   6.669  20.288  0.00  0.00    +0.000 HD
ENDROOT
BRANCH   3   5
ATOM      5  C   UNL     1       3.549   5.283  18.856  0.00  0.00    +0.000 A 
ATOM      6  C   UNL     1       4.783   5.051  18.259  0.00  0.00    +0.000 A 
ATOM      7  N   UNL     1       4.909   3.750  17.839  0.00  0.00    +0.000 NA
ATOM      8  C   UNL     1       3.806   3.155  18.240  0.00  0.00    +0.000 A 
ATOM      9  C   UNL     1       3.421   1.786  18.157  0.00  0.00    +0.000 A 
ATOM     10  C   UNL     1       2.184   1.417  18.535  0.00  0.00    +0.000 A 
ATOM     11  C   UNL     1       1.217   2.394  19.007  0.00  0.00    +0.000 A 
ATOM     12  C   UNL     1       1.591   3.679  19.134  0.00  0.00    +0.000 A 
ATOM     13  N   UNL     1       2.898   4.056  18.804  0.00  0.00    +0.000 N 
BRANCH   6  14
ATOM     14  C   UNL     1       5.891   6.033  18.119  0.00  0.00    +0.000 A 
ATOM     15  C   UNL     1       7.151   5.919  18.680  0.00  0.00    +0.000 A 
ATOM     16  C   UNL     1       7.885   7.059  18.268  0.00  0.00    +0.000 A 
ATOM     17  C   UNL     1       7.021   7.811  17.507  0.00  0.00    +0.000 A 
ATOM     18  O   UNL     1       5.817   7.192  17.397  0.00  0.00    +0.000 OA
ENDBRANCH   6  14
ENDBRANCH   3   5
BRANCH   1  23
ATOM     19  C   UNL     1       0.693   9.731  20.917  0.00  0.00    +0.000 A 
ATOM     20  C   UNL     1       0.834  10.973  20.293  0.00  0.00    +0.000 A 
ATOM     21  C   UNL     1       1.384  11.036  19.015  0.00  0.00    +0.000 A 
ATOM     22  C   UNL     1       1.828   9.869  18.377  0.00  0.00    +0.000 A 
ATOM     23  C   UNL     1       1.720   8.626  19.022  0.00  0.00    +0.000 A 
ATOM     24  C   UNL     1       1.117   8.557  20.285  0.00  0.00    +0.000 A 
BRANCH  19  26
ATOM     25  C   UNL     1      -0.862  11.191  22.757  0.00  0.00    +0.000 C 
ATOM     26  S   UNL     1       0.014   9.660  22.564  0.00  0.00    +0.000 S 
ATOM     27  O   UNL     1       1.159   9.676  23.464  0.00  0.00    +0.000 OA
ATOM     28  O   UNL     1      -0.942   8.580  22.585  0.00  0.00    +0.000 OA
ENDBRANCH  19  26
ENDBRANCH   1  23
TORSDOF 4
ENDMDL
MODEL 6
REMARK VINA RESULT:      -8.0      2.054      4.113
REMARK  Name = 
REMARK  5 active torsions:
REMARK  status: ('A' for Active; 'I' for Inactive)
REMARK    1  A    between atoms: C_1  and  S_2
REMARK    2  A    between atoms: S_2  and  C_5
REMARK    3  A    between atoms: C_9  and  C_10
REMARK    4  A    between atoms: N_12  and  C_13
REMARK    5  A    between atoms: C_14  and  C_15
REMARK                            x       y       z     vdW  Elec       q    Type
REMARK                         _______ _______ _______ _____ _____    ______ ____
ROOT
ATOM      1  C   UNL     1       2.131   7.527  18.759  0.00  0.00    +0.000 C 
ATOM      2  O   UNL     1       1.770   7.506  17.607  0.00  0.00    +0.000 OA
ATOM      3  N   UNL     1       3.109   6.585  19.244  0.00  0.00    +0.000 N 
ATOM      4  H   UNL     1       3.264   6.477  20.241  0.00  0.00    +0.000 HD
ENDROOT
BRANCH   3   5
ATOM      5  C   UNL     1       3.587   5.539  18.440  0.00  0.00    +0.000 A 
ATOM      6  C   UNL     1       3.499   4.184  18.738  0.00  0.00    +0.000 A 
ATOM      7  N   UNL     1       4.169   3.416  17.818  0.00  0.00    +0.000 NA
ATOM      8  C   UNL     1       4.601   4.267  16.914  0.00  0.00    +0.000 A 
ATOM      9  C   UNL     1       5.287   4.033  15.687  0.00  0.00    +0.000 A 
ATOM     10  C   UNL     1       5.738   5.074  14.965  0.00  0.00    +0.000 A 
ATOM     11  C   UNL     1       5.558   6.442  15.422  0.00  0.00    +0.000 A 
ATOM     12  C   UNL     1       4.869   6.671  16.553  0.00  0.00    +0.000 A 
ATOM     13  N   UNL     1       4.342   5.593  17.274  0.00  0.00    +0.000 N 
BRANCH   6  14
ATOM     14  C   UNL     1       2.736   3.578  19.861  0.00  0.00    +0.000 A 
ATOM     15  C   UNL     1       1.373   3.691  20.071  0.00  0.00    +0.000 A 
ATOM     16  C   UNL     1       1.076   2.939  21.235  0.00  0.00    +0.000 A 
ATOM     17  C   UNL     1       2.278   2.439  21.680  0.00  0.00    +0.000 A 
ATOM     18  O   UNL     1       3.287   2.807  20.848  0.00  0.00    +0.000 OA
ENDBRANCH   6  14
ENDBRANCH   3   5
BRANCH   1  23
ATOM     19  C   UNL     1       0.539  10.646  20.206  0.00  0.00    +0.000 A 
ATOM     20  C   UNL     1       0.344  10.287  21.542  0.00  0.00    +0.000 A 
ATOM     21  C   UNL     1       0.806   9.052  21.991  0.00  0.00    +0.000 A 
ATOM     22  C   UNL     1       1.426   8.163  21.102  0.00  0.00    +0.000 A 
ATOM     23  C   UNL     1       1.587   8.510  19.751  0.00  0.00    +0.000 A 
ATOM     24  C   UNL     1       1.170   9.775  19.312  0.00  0.00    +0.000 A 
BRANCH  19  26
ATOM     25  C   UNL     1      -1.541  11.812  18.706  0.00  0.00    +0.000 C 
ATOM     26  S   UNL     1      -0.081  12.215  19.631  0.00  0.00    +0.000 S 
ATOM     27  O   UNL     1       0.920  12.719  18.700  0.00  0.00    +0.000 OA
ATOM     28  O   UNL     1      -0.472  12.973  20.795  0.00  0.00    +0.000 OA
ENDBRANCH  19  26
ENDBRANCH   1  23
TORSDOF 4
ENDMDL
MODEL 7
REMARK VINA RESULT:      -7.9      2.013      4.302
REMARK  Name = 
REMARK  5 active torsions:
REMARK  status: ('A' for Active; 'I' for Inactive)
REMARK    1  A    between atoms: C_1  and  S_2
REMARK    2  A    between atoms: S_2  and  C_5
REMARK    3  A    between atoms: C_9  and  C_10
REMARK    4  A    between atoms: N_12  and  C_13
REMARK    5  A    between atoms: C_14  and  C_15
REMARK                            x       y       z     vdW  Elec       q    Type
REMARK                         _______ _______ _______ _____ _____    ______ ____
ROOT
ATOM      1  C   UNL     1       2.343   7.537  18.976  0.00  0.00    +0.000 C 
ATOM      2  O   UNL     1       2.235   7.464  17.775  0.00  0.00    +0.000 OA
ATOM      3  N   UNL     1       3.277   6.700  19.686  0.00  0.00    +0.000 N 
ATOM      4  H   UNL     1       3.228   6.624  20.697  0.00  0.00    +0.000 HD
ENDROOT
BRANCH   3   5
ATOM      5  C   UNL     1       4.004   5.690  19.037  0.00  0.00    +0.000 A 
ATOM      6  C   UNL     1       3.833   4.324  19.222  0.00  0.00    +0.000 A 
ATOM      7  N   UNL     1       4.777   3.596  18.542  0.00  0.00    +0.000 NA
ATOM      8  C   UNL     1       5.479   4.486  17.875  0.00  0.00    +0.000 A 
ATOM      9  C   UNL     1       6.536   4.306  16.937  0.00  0.00    +0.000 A 
ATOM     10  C   UNL     1       7.192   5.378  16.457  0.00  0.00    +0.000 A 
ATOM     11  C   UNL     1       6.860   6.723  16.895  0.00  0.00    +0.000 A 
ATOM     12  C   UNL     1       5.831   6.903  17.742  0.00  0.00    +0.000 A 
ATOM     13  N   UNL     1       5.104   5.795  18.193  0.00  0.00    +0.000 N 
BRANCH   6  14
ATOM     14  C   UNL     1       2.745   3.670  19.996  0.00  0.00    +0.000 A 
ATOM     15  C   UNL     1       2.912   2.833  21.084  0.00  0.00    +0.000 A 
ATOM     16  C   UNL     1       1.615   2.466  21.521  0.00  0.00    +0.000 A 
ATOM     17  C   UNL     1       0.737   3.077  20.656  0.00  0.00    +0.000 A 
ATOM     18  O   UNL     1       1.409   3.821  19.739  0.00  0.00    +0.000 OA
ENDBRANCH   6  14
ENDBRANCH   3   5
BRANCH   1  23
ATOM     19  C   UNL     1       0.083  10.430  19.918  0.00  0.00    +0.000 A 
ATOM     20  C   UNL     1      -0.227  10.141  21.249  0.00  0.00    +0.000 A 
ATOM     21  C   UNL     1       0.366   9.043  21.866  0.00  0.00    +0.000 A 
ATOM     22  C   UNL     1       1.237   8.212  21.146  0.00  0.00    +0.000 A 
ATOM     23  C   UNL     1       1.518   8.481  19.797  0.00  0.00    +0.000 A 
ATOM     24  C   UNL     1       0.963   9.618  19.193  0.00  0.00    +0.000 A 
BRANCH  19  26
ATOM     25  C   UNL     1      -1.628  12.611  20.416  0.00  0.00    +0.000 C 
ATOM     26  S   UNL     1      -0.702  11.820  19.125  0.00  0.00    +0.000 S 
ATOM     27  O   UNL     1      -1.646  11.252  18.173  0.00  0.00    +0.000 OA
ATOM     28  O   UNL     1       0.346  12.716  18.700  0.00  0.00    +0.000 OA
ENDBRANCH  19  26
ENDBRANCH   1  23
TORSDOF 4
ENDMDL
MODEL 8
REMARK VINA RESULT:      -7.9      1.941      4.071
REMARK  Name = 
REMARK  5 active torsions:
REMARK  status: ('A' for Active; 'I' for Inactive)
REMARK    1  A    between atoms: C_1  and  S_2
REMARK    2  A    between atoms: S_2  and  C_5
REMARK    3  A    between atoms: C_9  and  C_10
REMARK    4  A    between atoms: N_12  and  C_13
REMARK    5  A    between atoms: C_14  and  C_15
REMARK                            x       y       z     vdW  Elec       q    Type
REMARK                         _______ _______ _______ _____ _____    ______ ____
ROOT
ATOM      1  C   UNL     1       2.807   6.791  19.092  0.00  0.00    +0.000 C 
ATOM      2  O   UNL     1       3.573   6.340  19.911  0.00  0.00    +0.000 OA
ATOM      3  N   UNL     1       2.670   6.180  17.794  0.00  0.00    +0.000 N 
ATOM      4  H   UNL     1       2.180   6.666  17.050  0.00  0.00    +0.000 HD
ENDROOT
BRANCH   3   5
ATOM      5  C   UNL     1       3.499   5.124  17.384  0.00  0.00    +0.000 A 
ATOM      6  C   UNL     1       3.470   3.830  17.890  0.00  0.00    +0.000 A 
ATOM      7  N   UNL     1       4.486   3.061  17.378  0.00  0.00    +0.000 NA
ATOM      8  C   UNL     1       5.093   3.835  16.506  0.00  0.00    +0.000 A 
ATOM      9  C   UNL     1       6.166   3.547  15.613  0.00  0.00    +0.000 A 
ATOM     10  C   UNL     1       6.708   4.535  14.880  0.00  0.00    +0.000 A 
ATOM     11  C   UNL     1       6.237   5.905  14.996  0.00  0.00    +0.000 A 
ATOM     12  C   UNL     1       5.193   6.175  15.800  0.00  0.00    +0.000 A 
ATOM     13  N   UNL     1       4.584   5.137  16.515  0.00  0.00    +0.000 N 
BRANCH   6  14
ATOM     14  C   UNL     1       2.454   3.271  18.820  0.00  0.00    +0.000 A 
ATOM     15  C   UNL     1       1.201   2.803  18.468  0.00  0.00    +0.000 A 
ATOM     16  C   UNL     1       0.587   2.344  19.659  0.00  0.00    +0.000 A 
ATOM     17  C   UNL     1       1.490   2.585  20.669  0.00  0.00    +0.000 A 
ATOM     18  O   UNL     1       2.630   3.132  20.170  0.00  0.00    +0.000 OA
ENDBRANCH   6  14
ENDBRANCH   3   5
BRANCH   1  23
ATOM     19  C   UNL     1       0.702   9.352  20.927  0.00  0.00    +0.000 A 
ATOM     20  C   UNL     1       0.587  10.374  19.981  0.00  0.00    +0.000 A 
ATOM     21  C   UNL     1       1.131  10.192  18.711  0.00  0.00    +0.000 A 
ATOM     22  C   UNL     1       1.820   9.012  18.399  0.00  0.00    +0.000 A 
ATOM     23  C   UNL     1       1.967   8.002  19.363  0.00  0.00    +0.000 A 
ATOM     24  C   UNL     1       1.373   8.163  20.623  0.00  0.00    +0.000 A 
BRANCH  19  26
ATOM     25  C   UNL     1      -0.711  11.214  22.499  0.00  0.00    +0.000 C 
ATOM     26  S   UNL     1       0.028   9.602  22.558  0.00  0.00    +0.000 S 
ATOM     27  O   UNL     1       1.176   9.662  23.454  0.00  0.00    +0.000 OA
ATOM     28  O   UNL     1      -1.018   8.626  22.743  0.00  0.00    +0.000 OA
ENDBRANCH  19  26
ENDBRANCH   1  23
TORSDOF 4
ENDMDL
MODEL 9
REMARK VINA RESULT:      -7.7      1.649      4.318
REMARK  Name = 
REMARK  5 active torsions:
REMARK  status: ('A' for Active; 'I' for Inactive)
REMARK    1  A    between atoms: C_1  and  S_2
REMARK    2  A    between atoms: S_2  and  C_5
REMARK    3  A    between atoms: C_9  and  C_10
REMARK    4  A    between atoms: N_12  and  C_13
REMARK    5  A    between atoms: C_14  and  C_15
REMARK                            x       y       z     vdW  Elec       q    Type
REMARK                         _______ _______ _______ _____ _____    ______ ____
ROOT
ATOM      1  C   UNL     1       2.424   7.492  18.925  0.00  0.00    +0.000 C 
ATOM      2  O   UNL     1       2.242   7.594  17.735  0.00  0.00    +0.000 OA
ATOM      3  N   UNL     1       3.360   6.530  19.450  0.00  0.00    +0.000 N 
ATOM      4  H   UNL     1       3.367   6.312  20.441  0.00  0.00    +0.000 HD
ENDROOT
BRANCH   3   5
ATOM      5  C   UNL     1       4.001   5.596  18.620  0.00  0.00    +0.000 A 
ATOM      6  C   UNL     1       3.643   4.261  18.477  0.00  0.00    +0.000 A 
ATOM      7  N   UNL     1       4.537   3.576  17.692  0.00  0.00    +0.000 NA
ATOM      8  C   UNL     1       5.396   4.484  17.282  0.00  0.00    +0.000 A 
ATOM      9  C   UNL     1       6.492   4.369  16.379  0.00  0.00    +0.000 A 
ATOM     10  C   UNL     1       7.314   5.416  16.190  0.00  0.00    +0.000 A 
ATOM     11  C   UNL     1       7.123   6.664  16.910  0.00  0.00    +0.000 A 
ATOM     12  C   UNL     1       6.062   6.795  17.726  0.00  0.00    +0.000 A 
ATOM     13  N   UNL     1       5.167   5.729  17.875  0.00  0.00    +0.000 N 
BRANCH   6  14
ATOM     14  C   UNL     1       2.424   3.613  19.028  0.00  0.00    +0.000 A 
ATOM     15  C   UNL     1       1.554   2.793  18.330  0.00  0.00    +0.000 A 
ATOM     16  C   UNL     1       0.556   2.382  19.248  0.00  0.00    +0.000 A 
ATOM     17  C   UNL     1       0.860   2.998  20.440  0.00  0.00    +0.000 A 
ATOM     18  O   UNL     1       1.997   3.733  20.322  0.00  0.00    +0.000 OA
ENDBRANCH   6  14
ENDBRANCH   3   5
BRANCH   1  23
ATOM     19  C   UNL     1       0.755  10.485  20.543  0.00  0.00    +0.000 A 
ATOM     20  C   UNL     1       0.124   9.911  21.648  0.00  0.00    +0.000 A 
ATOM     21  C   UNL     1       0.309   8.556  21.912  0.00  0.00    +0.000 A 
ATOM     22  C   UNL     1       1.090   7.768  21.054  0.00  0.00    +0.000 A 
ATOM     23  C   UNL     1       1.692   8.339  19.922  0.00  0.00    +0.000 A 
ATOM     24  C   UNL     1       1.550   9.715  19.687  0.00  0.00    +0.000 A 
BRANCH  19  26
ATOM     25  C   UNL     1       1.471  12.537  18.751  0.00  0.00    +0.000 C 
ATOM     26  S   UNL     1       0.491  12.214  20.195  0.00  0.00    +0.000 S 
ATOM     27  O   UNL     1       1.080  12.937  21.314  0.00  0.00    +0.000 OA
ATOM     28  O   UNL     1      -0.900  12.372  19.847  0.00  0.00    +0.000 OA
ENDBRANCH  19  26
ENDBRANCH   1  23
TORSDOF 4
ENDMDL
