MODEL 1
REMARK VINA RESULT:      -8.9      0.000      0.000
REMARK  Name = 
REMARK  5 active torsions:
REMARK  status: ('A' for Active; 'I' for Inactive)
REMARK    1  A    between atoms: C_2  and  C_19
REMARK    2  A    between atoms: N_3  and  C_4
REMARK    3  A    between atoms: C_7  and  S_8
REMARK    4  A    between atoms: S_8  and  N_11
REMARK    5  A    between atoms: C_23  and  N_24
REMARK                            x       y       z     vdW  Elec       q    Type
REMARK                         _______ _______ _______ _____ _____    ______ ____
ROOT
ATOM      1  O   UNL     1       1.792   8.280  19.102  0.00  0.00    +0.000 OA
ATOM      2  C   UNL     1       1.841   7.553  20.088  0.00  0.00    +0.000 C 
ATOM      3  N   UNL     1       1.402   7.858  21.368  0.00  0.00    +0.000 N 
ATOM      4  H   UNL     1       1.705   7.251  22.119  0.00  0.00    +0.000 HD
ENDROOT
BRANCH   3   5
ATOM      5  C   UNL     1       0.757   9.052  21.747  0.00  0.00    +0.000 A 
ATOM      6  C   UNL     1      -0.132   9.116  22.822  0.00  0.00    +0.000 A 
ATOM      7  C   UNL     1      -0.815  10.296  23.118  0.00  0.00    +0.000 A 
ATOM      8  C   UNL     1      -0.586  11.436  22.347  0.00  0.00    +0.000 A 
ATOM      9  C   UNL     1       0.322  11.397  21.283  0.00  0.00    +0.000 A 
ATOM     10  C   UNL     1       1.006  10.210  20.997  0.00  0.00    +0.000 A 
BRANCH   8  11
ATOM     11  S   UNL     1      -1.568  12.886  22.642  0.00  0.00    +0.000 S 
ATOM     12  O   UNL     1      -0.908  13.640  23.696  0.00  0.00    +0.000 OA
ATOM     13  O   UNL     1      -1.851  13.488  21.362  0.00  0.00    +0.000 OA
BRANCH  11  14
ATOM     14  N   UNL     1      -2.960  12.229  23.355  0.00  0.00    +0.000 N 
ATOM     15  C   UNL     1      -4.087  13.047  23.112  0.00  0.00    +0.000 A 
ATOM     16  N   UNL     1      -4.492  13.893  24.028  0.00  0.00    +0.000 NA
ATOM     17  C   UNL     1      -5.580  14.592  23.533  0.00  0.00    +0.000 A 
ATOM     18  C   UNL     1      -6.053  14.170  22.308  0.00  0.00    +0.000 A 
ATOM     19  S   UNL     1      -5.062  12.902  21.717  0.00  0.00    +0.000 S 
ATOM     20  H   UNL     1      -2.770  12.203  24.357  0.00  0.00    +0.000 HD
ENDBRANCH  11  14
ENDBRANCH   8  11
ENDBRANCH   3   5
BRANCH   2  21
ATOM     21  C   UNL     1       2.489   6.228  19.935  0.00  0.00    +0.000 A 
ATOM     22  C   UNL     1       2.042   5.121  20.657  0.00  0.00    +0.000 A 
ATOM     23  C   UNL     1       2.658   3.891  20.468  0.00  0.00    +0.000 A 
ATOM     24  C   UNL     1       3.694   3.766  19.539  0.00  0.00    +0.000 A 
ATOM     25  C   UNL     1       4.141   4.854  18.778  0.00  0.00    +0.000 A 
ATOM     26  C   UNL     1       3.531   6.094  19.000  0.00  0.00    +0.000 A 
BRANCH  25  27
ATOM     27  N   UNL     1       5.156   4.699  17.796  0.00  0.00    +0.000 N 
ATOM     28  C   UNL     1       4.877   4.586  16.382  0.00  0.00    +0.000 C 
ATOM     29  C   UNL     1       6.149   4.001  15.802  0.00  0.00    +0.000 C 
ATOM     30  C   UNL     1       7.237   4.535  16.711  0.00  0.00    +0.000 C 
ATOM     31  C   UNL     1       6.539   4.706  18.033  0.00  0.00    +0.000 C 
ATOM     32  O   UNL     1       7.148   4.875  19.079  0.00  0.00    +0.000 OA
ENDBRANCH  25  27
ENDBRANCH   2  21
TORSDOF 5
ENDMDL
MODEL 2
REMARK VINA RESULT:      -8.7      7.491     11.156
REMARK  Name = 
REMARK  5 active torsions:
REMARK  status: ('A' for Active; 'I' for Inactive)
REMARK    1  A    between atoms: C_2  and  C_19
REMARK    2  A    between atoms: N_3  and  C_4
REMARK    3  A    between atoms: C_7  and  S_8
REMARK    4  A    between atoms: S_8  and  N_11
REMARK    5  A    between atoms: C_23  and  N_24
REMARK                            x       y       z     vdW  Elec       q    Type
REMARK                         _______ _______ _______ _____ _____    ______ ____
ROOT
ATOM      1  O   UNL     1       7.856  10.658  17.567  0.00  0.00    +0.000 OA
ATOM      2  C   UNL     1       8.738  10.267  18.324  0.00  0.00    +0.000 C 
ATOM      3  N   UNL     1       8.918   8.972  18.789  0.00  0.00    +0.000 N 
ATOM      4  H   UNL     1       9.549   8.844  19.571  0.00  0.00    +0.000 HD
ENDROOT
BRANCH   3   5
ATOM      5  C   UNL     1       8.144   7.856  18.417  0.00  0.00    +0.000 A 
ATOM      6  C   UNL     1       7.265   7.879  17.331  0.00  0.00    +0.000 A 
ATOM      7  C   UNL     1       6.455   6.783  17.042  0.00  0.00    +0.000 A 
ATOM      8  C   UNL     1       6.542   5.634  17.830  0.00  0.00    +0.000 A 
ATOM      9  C   UNL     1       7.437   5.583  18.904  0.00  0.00    +0.000 A 
ATOM     10  C   UNL     1       8.250   6.687  19.183  0.00  0.00    +0.000 A 
BRANCH   8  11
ATOM     11  S   UNL     1       5.403   4.302  17.539  0.00  0.00    +0.000 S 
ATOM     12  O   UNL     1       5.745   3.723  16.251  0.00  0.00    +0.000 OA
ATOM     13  O   UNL     1       5.367   3.493  18.733  0.00  0.00    +0.000 OA
BRANCH  11  14
ATOM     14  N   UNL     1       3.945   5.134  17.293  0.00  0.00    +0.000 N 
ATOM     15  C   UNL     1       2.897   4.551  18.041  0.00  0.00    +0.000 A 
ATOM     16  N   UNL     1       2.067   3.717  17.465  0.00  0.00    +0.000 NA
ATOM     17  C   UNL     1       1.166   3.264  18.414  0.00  0.00    +0.000 A 
ATOM     18  C   UNL     1       1.254   3.861  19.654  0.00  0.00    +0.000 A 
ATOM     19  S   UNL     1       2.555   4.980  19.658  0.00  0.00    +0.000 S 
ATOM     20  H   UNL     1       3.742   5.043  16.298  0.00  0.00    +0.000 HD
ENDBRANCH  11  14
ENDBRANCH   8  11
ENDBRANCH   3   5
BRANCH   2  21
ATOM     21  C   UNL     1       9.686  11.275  18.858  0.00  0.00    +0.000 A 
ATOM     22  C   UNL     1      10.551  10.963  19.908  0.00  0.00    +0.000 A 
ATOM     23  C   UNL     1      11.441  11.925  20.364  0.00  0.00    +0.000 A 
ATOM     24  C   UNL     1      11.484  13.181  19.753  0.00  0.00    +0.000 A 
ATOM     25  C   UNL     1      10.647  13.510  18.678  0.00  0.00    +0.000 A 
ATOM     26  C   UNL     1       9.736  12.540  18.247  0.00  0.00    +0.000 A 
BRANCH  25  27
ATOM     27  N   UNL     1      10.743  14.770  18.029  0.00  0.00    +0.000 N 
ATOM     28  C   UNL     1      11.832  15.126  17.147  0.00  0.00    +0.000 C 
ATOM     29  C   UNL     1      11.760  16.637  17.066  0.00  0.00    +0.000 C 
ATOM     30  C   UNL     1      10.285  16.937  17.234  0.00  0.00    +0.000 C 
ATOM     31  C   UNL     1       9.789  15.798  18.085  0.00  0.00    +0.000 C 
ATOM     32  O   UNL     1       8.704  15.823  18.646  0.00  0.00    +0.000 OA
ENDBRANCH  25  27
ENDBRANCH   2  21
TORSDOF 5
ENDMDL
MODEL 3
REMARK VINA RESULT:      -8.7      1.336      1.780
REMARK  Name = 
REMARK  5 active torsions:
REMARK  status: ('A' for Active; 'I' for Inactive)
REMARK    1  A    between atoms: C_2  and  C_19
REMARK    2  A    between atoms: N_3  and  C_4
REMARK    3  A    between atoms: C_7  and  S_8
REMARK    4  A    between atoms: S_8  and  N_11
REMARK    5  A    between atoms: C_23  and  N_24
REMARK                            x       y       z     vdW  Elec       q    Type
REMARK                         _______ _______ _______ _____ _____    ______ ____
ROOT
ATOM      1  O   UNL     1       0.556   5.566  20.687  0.00  0.00    +0.000 OA
ATOM      2  C   UNL     1       1.713   5.896  20.447  0.00  0.00    +0.000 C 
ATOM      3  N   UNL     1       2.214   7.189  20.396  0.00  0.00    +0.000 N 
ATOM      4  H   UNL     1       3.126   7.316  19.976  0.00  0.00    +0.000 HD
ENDROOT
BRANCH   3   5
ATOM      5  C   UNL     1       1.482   8.360  20.677  0.00  0.00    +0.000 A 
ATOM      6  C   UNL     1       1.078   9.250  19.679  0.00  0.00    +0.000 A 
ATOM      7  C   UNL     1       0.426  10.439  20.002  0.00  0.00    +0.000 A 
ATOM      8  C   UNL     1       0.150  10.733  21.338  0.00  0.00    +0.000 A 
ATOM      9  C   UNL     1       0.524   9.840  22.348  0.00  0.00    +0.000 A 
ATOM     10  C   UNL     1       1.172   8.646  22.014  0.00  0.00    +0.000 A 
BRANCH   8  11
ATOM     11  S   UNL     1      -0.547  12.316  21.745  0.00  0.00    +0.000 S 
ATOM     12  O   UNL     1      -0.696  12.356  23.191  0.00  0.00    +0.000 OA
ATOM     13  O   UNL     1       0.219  13.320  21.048  0.00  0.00    +0.000 OA
BRANCH  11  14
ATOM     14  N   UNL     1      -2.120  12.176  21.128  0.00  0.00    +0.000 N 
ATOM     15  C   UNL     1      -3.041  12.900  21.919  0.00  0.00    +0.000 A 
ATOM     16  N   UNL     1      -3.759  12.279  22.822  0.00  0.00    +0.000 NA
ATOM     17  C   UNL     1      -4.545  13.210  23.478  0.00  0.00    +0.000 A 
ATOM     18  C   UNL     1      -4.501  14.492  22.972  0.00  0.00    +0.000 A 
ATOM     19  S   UNL     1      -3.382  14.555  21.673  0.00  0.00    +0.000 S 
ATOM     20  H   UNL     1      -2.346  11.182  21.171  0.00  0.00    +0.000 HD
ENDBRANCH  11  14
ENDBRANCH   8  11
ENDBRANCH   3   5
BRANCH   2  21
ATOM     21  C   UNL     1       2.680   4.823  20.113  0.00  0.00    +0.000 A 
ATOM     22  C   UNL     1       2.659   3.601  20.787  0.00  0.00    +0.000 A 
ATOM     23  C   UNL     1       3.565   2.612  20.429  0.00  0.00    +0.000 A 
ATOM     24  C   UNL     1       4.464   2.835  19.384  0.00  0.00    +0.000 A 
ATOM     25  C   UNL     1       4.486   4.041  18.671  0.00  0.00    +0.000 A 
ATOM     26  C   UNL     1       3.587   5.039  19.061  0.00  0.00    +0.000 A 
BRANCH  25  27
ATOM     27  N   UNL     1       5.366   4.232  17.572  0.00  0.00    +0.000 N 
ATOM     28  C   UNL     1       4.928   4.208  16.194  0.00  0.00    +0.000 C 
ATOM     29  C   UNL     1       6.206   4.000  15.406  0.00  0.00    +0.000 C 
ATOM     30  C   UNL     1       7.265   4.672  16.255  0.00  0.00    +0.000 C 
ATOM     31  C   UNL     1       6.734   4.534  17.656  0.00  0.00    +0.000 C 
ATOM     32  O   UNL     1       7.428   4.726  18.643  0.00  0.00    +0.000 OA
ENDBRANCH  25  27
ENDBRANCH   2  21
TORSDOF 5
ENDMDL
MODEL 4
REMARK VINA RESULT:      -8.6      0.932      1.238
REMARK  Name = 
REMARK  5 active torsions:
REMARK  status: ('A' for Active; 'I' for Inactive)
REMARK    1  A    between atoms: C_2  and  C_19
REMARK    2  A    between atoms: N_3  and  C_4
REMARK    3  A    between atoms: C_7  and  S_8
REMARK    4  A    between atoms: S_8  and  N_11
REMARK    5  A    between atoms: C_23  and  N_24
REMARK                            x       y       z     vdW  Elec       q    Type
REMARK                         _______ _______ _______ _____ _____    ______ ____
ROOT
ATOM      1  O   UNL     1       2.093   8.509  19.059  0.00  0.00    +0.000 OA
ATOM      2  C   UNL     1       1.799   7.683  19.917  0.00  0.00    +0.000 C 
ATOM      3  N   UNL     1       0.952   7.876  20.999  0.00  0.00    +0.000 N 
ATOM      4  H   UNL     1       0.977   7.181  21.735  0.00  0.00    +0.000 HD
ENDROOT
BRANCH   3   5
ATOM      5  C   UNL     1       0.226   9.052  21.268  0.00  0.00    +0.000 A 
ATOM      6  C   UNL     1      -0.244   9.893  20.256  0.00  0.00    +0.000 A 
ATOM      7  C   UNL     1      -0.888  11.091  20.562  0.00  0.00    +0.000 A 
ATOM      8  C   UNL     1      -1.092  11.442  21.897  0.00  0.00    +0.000 A 
ATOM      9  C   UNL     1      -0.653  10.600  22.923  0.00  0.00    +0.000 A 
ATOM     10  C   UNL     1      -0.012   9.396  22.606  0.00  0.00    +0.000 A 
BRANCH   8  11
ATOM     11  S   UNL     1      -1.782  13.036  22.271  0.00  0.00    +0.000 S 
ATOM     12  O   UNL     1      -2.104  13.038  23.689  0.00  0.00    +0.000 OA
ATOM     13  O   UNL     1      -0.905  14.033  21.707  0.00  0.00    +0.000 OA
BRANCH  11  14
ATOM     14  N   UNL     1      -3.272  12.973  21.464  0.00  0.00    +0.000 N 
ATOM     15  C   UNL     1      -4.330  13.349  22.323  0.00  0.00    +0.000 A 
ATOM     16  N   UNL     1      -5.052  12.429  22.913  0.00  0.00    +0.000 NA
ATOM     17  C   UNL     1      -5.988  13.053  23.721  0.00  0.00    +0.000 A 
ATOM     18  C   UNL     1      -6.037  14.428  23.625  0.00  0.00    +0.000 A 
ATOM     19  S   UNL     1      -4.823  14.969  22.540  0.00  0.00    +0.000 S 
ATOM     20  H   UNL     1      -3.393  11.999  21.185  0.00  0.00    +0.000 HD
ENDBRANCH  11  14
ENDBRANCH   8  11
ENDBRANCH   3   5
BRANCH   2  21
ATOM     21  C   UNL     1       2.450   6.352  19.844  0.00  0.00    +0.000 A 
ATOM     22  C   UNL     1       2.000   5.289  20.628  0.00  0.00    +0.000 A 
ATOM     23  C   UNL     1       2.620   4.051  20.514  0.00  0.00    +0.000 A 
ATOM     24  C   UNL     1       3.661   3.874  19.599  0.00  0.00    +0.000 A 
ATOM     25  C   UNL     1       4.111   4.917  18.779  0.00  0.00    +0.000 A 
ATOM     26  C   UNL     1       3.497   6.166  18.925  0.00  0.00    +0.000 A 
BRANCH  25  27
ATOM     27  N   UNL     1       5.131   4.708  17.813  0.00  0.00    +0.000 N 
ATOM     28  C   UNL     1       4.860   4.513  16.406  0.00  0.00    +0.000 C 
ATOM     29  C   UNL     1       6.136   3.897  15.868  0.00  0.00    +0.000 C 
ATOM     30  C   UNL     1       7.218   4.483  16.751  0.00  0.00    +0.000 C 
ATOM     31  C   UNL     1       6.513   4.729  18.057  0.00  0.00    +0.000 C 
ATOM     32  O   UNL     1       7.115   4.957  19.095  0.00  0.00    +0.000 OA
ENDBRANCH  25  27
ENDBRANCH   2  21
TORSDOF 5
ENDMDL
MODEL 5
REMARK VINA RESULT:      -8.6      2.446      3.451
REMARK  Name = 
REMARK  5 active torsions:
REMARK  status: ('A' for Active; 'I' for Inactive)
REMARK    1  A    between atoms: C_2  and  C_19
REMARK    2  A    between atoms: N_3  and  C_4
REMARK    3  A    between atoms: C_7  and  S_8
REMARK    4  A    between atoms: S_8  and  N_11
REMARK    5  A    between atoms: C_23  and  N_24
REMARK                            x       y       z     vdW  Elec       q    Type
REMARK                         _______ _______ _______ _____ _____    ______ ____
ROOT
ATOM      1  O   UNL     1       2.299   9.974  17.474  0.00  0.00    +0.000 OA
ATOM      2  C   UNL     1       1.968   9.015  18.163  0.00  0.00    +0.000 C 
ATOM      3  N   UNL     1       1.021   9.009  19.176  0.00  0.00    +0.000 N 
ATOM      4  H   UNL     1       1.011   8.209  19.797  0.00  0.00    +0.000 HD
ENDROOT
BRANCH   3   5
ATOM      5  C   UNL     1       0.220  10.106  19.553  0.00  0.00    +0.000 A 
ATOM      6  C   UNL     1       0.480  10.868  20.694  0.00  0.00    +0.000 A 
ATOM      7  C   UNL     1      -0.381  11.895  21.080  0.00  0.00    +0.000 A 
ATOM      8  C   UNL     1      -1.502  12.184  20.301  0.00  0.00    +0.000 A 
ATOM      9  C   UNL     1      -1.763  11.448  19.140  0.00  0.00    +0.000 A 
ATOM     10  C   UNL     1      -0.890  10.423  18.758  0.00  0.00    +0.000 A 
BRANCH   8  11
ATOM     11  S   UNL     1      -2.666  13.394  20.882  0.00  0.00    +0.000 S 
ATOM     12  O   UNL     1      -3.058  12.997  22.224  0.00  0.00    +0.000 OA
ATOM     13  O   UNL     1      -2.100  14.697  20.628  0.00  0.00    +0.000 OA
BRANCH  11  14
ATOM     14  N   UNL     1      -4.014  13.086  19.902  0.00  0.00    +0.000 N 
ATOM     15  C   UNL     1      -5.212  13.172  20.646  0.00  0.00    +0.000 A 
ATOM     16  N   UNL     1      -5.781  12.083  21.100  0.00  0.00    +0.000 NA
ATOM     17  C   UNL     1      -6.908  12.441  21.821  0.00  0.00    +0.000 A 
ATOM     18  C   UNL     1      -7.238  13.780  21.788  0.00  0.00    +0.000 A 
ATOM     19  S   UNL     1      -6.059  14.636  20.883  0.00  0.00    +0.000 S 
ATOM     20  H   UNL     1      -3.895  12.131  19.562  0.00  0.00    +0.000 HD
ENDBRANCH  11  14
ENDBRANCH   8  11
ENDBRANCH   3   5
BRANCH   2  21
ATOM     21  C   UNL     1       2.683   7.734  17.950  0.00  0.00    +0.000 A 
ATOM     22  C   UNL     1       3.915   7.698  17.295  0.00  0.00    +0.000 A 
ATOM     23  C   UNL     1       4.566   6.482  17.137  0.00  0.00    +0.000 A 
ATOM     24  C   UNL     1       4.000   5.315  17.658  0.00  0.00    +0.000 A 
ATOM     25  C   UNL     1       2.780   5.328  18.346  0.00  0.00    +0.000 A 
ATOM     26  C   UNL     1       2.121   6.556  18.473  0.00  0.00    +0.000 A 
BRANCH  25  27
ATOM     27  N   UNL     1       2.246   4.144  18.921  0.00  0.00    +0.000 N 
ATOM     28  C   UNL     1       1.929   2.963  18.150  0.00  0.00    +0.000 C 
ATOM     29  C   UNL     1       1.005   2.171  19.053  0.00  0.00    +0.000 C 
ATOM     30  C   UNL     1       1.471   2.531  20.448  0.00  0.00    +0.000 C 
ATOM     31  C   UNL     1       2.020   3.923  20.289  0.00  0.00    +0.000 C 
ATOM     32  O   UNL     1       2.255   4.649  21.243  0.00  0.00    +0.000 OA
ENDBRANCH  25  27
ENDBRANCH   2  21
TORSDOF 5
ENDMDL
MODEL 6
REMARK VINA RESULT:      -8.5      1.531      1.966
REMARK  Name = 
REMARK  5 active torsions:
REMARK  status: ('A' for Active; 'I' for Inactive)
REMARK    1  A    between atoms: C_2  and  C_19
REMARK    2  A    between atoms: N_3  and  C_4
REMARK    3  A    between atoms: C_7  and  S_8
REMARK    4  A    between atoms: S_8  and  N_11
REMARK    5  A    between atoms: C_23  and  N_24
REMARK                            x       y       z     vdW  Elec       q    Type
REMARK                         _______ _______ _______ _____ _____    ______ ____
ROOT
ATOM      1  O   UNL     1       2.017   7.924  17.935  0.00  0.00    +0.000 OA
ATOM      2  C   UNL     1       2.376   7.318  18.938  0.00  0.00    +0.000 C 
ATOM      3  N   UNL     1       2.045   7.616  20.252  0.00  0.00    +0.000 N 
ATOM      4  H   UNL     1       2.586   7.167  20.979  0.00  0.00    +0.000 HD
ENDROOT
BRANCH   3   5
ATOM      5  C   UNL     1       1.175   8.646  20.661  0.00  0.00    +0.000 A 
ATOM      6  C   UNL     1       1.070   9.858  19.973  0.00  0.00    +0.000 A 
ATOM      7  C   UNL     1       0.259  10.885  20.453  0.00  0.00    +0.000 A 
ATOM      8  C   UNL     1      -0.480  10.691  21.621  0.00  0.00    +0.000 A 
ATOM      9  C   UNL     1      -0.408   9.474  22.307  0.00  0.00    +0.000 A 
ATOM     10  C   UNL     1       0.404   8.447  21.814  0.00  0.00    +0.000 A 
BRANCH   8  11
ATOM     11  S   UNL     1      -1.393  12.057  22.298  0.00  0.00    +0.000 S 
ATOM     12  O   UNL     1      -2.169  11.538  23.413  0.00  0.00    +0.000 OA
ATOM     13  O   UNL     1      -0.469  13.150  22.479  0.00  0.00    +0.000 OA
BRANCH  11  14
ATOM     14  N   UNL     1      -2.516  12.373  21.068  0.00  0.00    +0.000 N 
ATOM     15  C   UNL     1      -3.638  13.069  21.573  0.00  0.00    +0.000 A 
ATOM     16  N   UNL     1      -4.734  12.415  21.870  0.00  0.00    +0.000 NA
ATOM     17  C   UNL     1      -5.660  13.313  22.376  0.00  0.00    +0.000 A 
ATOM     18  C   UNL     1      -5.291  14.641  22.329  0.00  0.00    +0.000 A 
ATOM     19  S   UNL     1      -3.702  14.771  21.697  0.00  0.00    +0.000 S 
ATOM     20  H   UNL     1      -2.812  11.460  20.723  0.00  0.00    +0.000 HD
ENDBRANCH  11  14
ENDBRANCH   8  11
ENDBRANCH   3   5
BRANCH   2  21
ATOM     21  C   UNL     1       3.312   6.181  18.758  0.00  0.00    +0.000 A 
ATOM     22  C   UNL     1       3.434   5.189  19.732  0.00  0.00    +0.000 A 
ATOM     23  C   UNL     1       4.301   4.127  19.517  0.00  0.00    +0.000 A 
ATOM     24  C   UNL     1       5.018   4.044  18.320  0.00  0.00    +0.000 A 
ATOM     25  C   UNL     1       4.891   5.010  17.313  0.00  0.00    +0.000 A 
ATOM     26  C   UNL     1       4.034   6.089  17.556  0.00  0.00    +0.000 A 
BRANCH  25  27
ATOM     27  N   UNL     1       5.581   4.882  16.078  0.00  0.00    +0.000 N 
ATOM     28  C   UNL     1       5.043   4.170  14.940  0.00  0.00    +0.000 C 
ATOM     29  C   UNL     1       6.251   3.911  14.063  0.00  0.00    +0.000 C 
ATOM     30  C   UNL     1       7.159   5.090  14.345  0.00  0.00    +0.000 C 
ATOM     31  C   UNL     1       6.816   5.469  15.761  0.00  0.00    +0.000 C 
ATOM     32  O   UNL     1       7.518   6.212  16.429  0.00  0.00    +0.000 OA
ENDBRANCH  25  27
ENDBRANCH   2  21
TORSDOF 5
ENDMDL
MODEL 7
REMARK VINA RESULT:      -8.5      2.793      3.420
REMARK  Name = 
REMARK  5 active torsions:
REMARK  status: ('A' for Active; 'I' for Inactive)
REMARK    1  A    between atoms: C_2  and  C_19
REMARK    2  A    between atoms: N_3  and  C_4
REMARK    3  A    between atoms: C_7  and  S_8
REMARK    4  A    between atoms: S_8  and  N_11
REMARK    5  A    between atoms: C_23  and  N_24
REMARK                            x       y       z     vdW  Elec       q    Type
REMARK                         _______ _______ _______ _____ _____    ______ ____
ROOT
ATOM      1  O   UNL     1       0.817   5.552  20.834  0.00  0.00    +0.000 OA
ATOM      2  C   UNL     1       1.897   5.891  20.364  0.00  0.00    +0.000 C 
ATOM      3  N   UNL     1       2.307   7.184  20.071  0.00  0.00    +0.000 N 
ATOM      4  H   UNL     1       3.129   7.289  19.490  0.00  0.00    +0.000 HD
ENDROOT
BRANCH   3   5
ATOM      5  C   UNL     1       1.564   8.353  20.326  0.00  0.00    +0.000 A 
ATOM      6  C   UNL     1       1.136   9.208  19.308  0.00  0.00    +0.000 A 
ATOM      7  C   UNL     1       0.473  10.399  19.604  0.00  0.00    +0.000 A 
ATOM      8  C   UNL     1       0.209  10.728  20.933  0.00  0.00    +0.000 A 
ATOM      9  C   UNL     1       0.606   9.871  21.965  0.00  0.00    +0.000 A 
ATOM     10  C   UNL     1       1.265   8.675  21.658  0.00  0.00    +0.000 A 
BRANCH   8  11
ATOM     11  S   UNL     1      -0.504  12.313  21.302  0.00  0.00    +0.000 S 
ATOM     12  O   UNL     1      -1.788  12.065  21.938  0.00  0.00    +0.000 OA
ATOM     13  O   UNL     1       0.510  13.104  21.956  0.00  0.00    +0.000 OA
BRANCH  11  14
ATOM     14  N   UNL     1      -0.869  12.904  19.755  0.00  0.00    +0.000 N 
ATOM     15  C   UNL     1      -0.109  14.059  19.461  0.00  0.00    +0.000 A 
ATOM     16  N   UNL     1      -0.640  15.247  19.614  0.00  0.00    +0.000 NA
ATOM     17  C   UNL     1       0.314  16.200  19.299  0.00  0.00    +0.000 A 
ATOM     18  C   UNL     1       1.501  15.713  18.793  0.00  0.00    +0.000 A 
ATOM     19  S   UNL     1       1.453  13.999  18.775  0.00  0.00    +0.000 S 
ATOM     20  H   UNL     1      -1.859  13.147  19.779  0.00  0.00    +0.000 HD
ENDBRANCH  11  14
ENDBRANCH   8  11
ENDBRANCH   3   5
BRANCH   2  21
ATOM     21  C   UNL     1       2.859   4.820  20.005  0.00  0.00    +0.000 A 
ATOM     22  C   UNL     1       2.851   3.594  20.672  0.00  0.00    +0.000 A 
ATOM     23  C   UNL     1       3.750   2.607  20.290  0.00  0.00    +0.000 A 
ATOM     24  C   UNL     1       4.629   2.838  19.229  0.00  0.00    +0.000 A 
ATOM     25  C   UNL     1       4.636   4.048  18.524  0.00  0.00    +0.000 A 
ATOM     26  C   UNL     1       3.745   5.044  18.937  0.00  0.00    +0.000 A 
BRANCH  25  27
ATOM     27  N   UNL     1       5.495   4.246  17.409  0.00  0.00    +0.000 N 
ATOM     28  C   UNL     1       5.026   4.272  16.042  0.00  0.00    +0.000 C 
ATOM     29  C   UNL     1       6.279   4.053  15.218  0.00  0.00    +0.000 C 
ATOM     30  C   UNL     1       7.374   4.674  16.059  0.00  0.00    +0.000 C 
ATOM     31  C   UNL     1       6.873   4.511  17.469  0.00  0.00    +0.000 C 
ATOM     32  O   UNL     1       7.595   4.658  18.444  0.00  0.00    +0.000 OA
ENDBRANCH  25  27
ENDBRANCH   2  21
TORSDOF 5
ENDMDL
MODEL 8
REMARK VINA RESULT:      -8.5      7.857     10.001
REMARK  Name = 
REMARK  5 active torsions:
REMARK  status: ('A' for Active; 'I' for Inactive)
REMARK    1  A    between atoms: C_2  and  C_19
REMARK    2  A    between atoms: N_3  and  C_4
REMARK    3  A    between atoms: C_7  and  S_8
REMARK    4  A    between atoms: S_8  and  N_11
REMARK    5  A    between atoms: C_23  and  N_24
REMARK                            x       y       z     vdW  Elec       q    Type
REMARK                         _______ _______ _______ _____ _____    ______ ____
ROOT
ATOM      1  O   UNL     1       8.139   6.699  18.858  0.00  0.00    +0.000 OA
ATOM      2  C   UNL     1       7.547   7.089  17.858  0.00  0.00    +0.000 C 
ATOM      3  N   UNL     1       7.492   8.390  17.381  0.00  0.00    +0.000 N 
ATOM      4  H   UNL     1       6.794   8.597  16.678  0.00  0.00    +0.000 HD
ENDROOT
BRANCH   3   5
ATOM      5  C   UNL     1       8.169   9.494  17.938  0.00  0.00    +0.000 A 
ATOM      6  C   UNL     1       8.090  10.777  17.391  0.00  0.00    +0.000 A 
ATOM      7  C   UNL     1       8.837  11.828  17.920  0.00  0.00    +0.000 A 
ATOM      8  C   UNL     1       9.654  11.602  19.029  0.00  0.00    +0.000 A 
ATOM      9  C   UNL     1       9.725  10.330  19.606  0.00  0.00    +0.000 A 
ATOM     10  C   UNL     1       8.966   9.283  19.071  0.00  0.00    +0.000 A 
BRANCH   8  11
ATOM     11  S   UNL     1      10.710  12.912  19.600  0.00  0.00    +0.000 S 
ATOM     12  O   UNL     1       9.887  13.800  20.406  0.00  0.00    +0.000 OA
ATOM     13  O   UNL     1      11.901  12.305  20.143  0.00  0.00    +0.000 OA
BRANCH  11  14
ATOM     14  N   UNL     1      11.027  13.760  18.166  0.00  0.00    +0.000 N 
ATOM     15  C   UNL     1      10.641  15.115  18.283  0.00  0.00    +0.000 A 
ATOM     16  N   UNL     1       9.488  15.511  17.803  0.00  0.00    +0.000 NA
ATOM     17  C   UNL     1       9.336  16.860  18.077  0.00  0.00    +0.000 A 
ATOM     18  C   UNL     1      10.430  17.481  18.642  0.00  0.00    +0.000 A 
ATOM     19  S   UNL     1      11.670  16.327  18.908  0.00  0.00    +0.000 S 
ATOM     20  H   UNL     1      10.460  13.308  17.449  0.00  0.00    +0.000 HD
ENDBRANCH  11  14
ENDBRANCH   8  11
ENDBRANCH   3   5
BRANCH   2  21
ATOM     21  C   UNL     1       6.750   6.096  17.097  0.00  0.00    +0.000 A 
ATOM     22  C   UNL     1       7.199   5.601  15.872  0.00  0.00    +0.000 A 
ATOM     23  C   UNL     1       6.438   4.653  15.202  0.00  0.00    +0.000 A 
ATOM     24  C   UNL     1       5.250   4.184  15.770  0.00  0.00    +0.000 A 
ATOM     25  C   UNL     1       4.793   4.642  17.013  0.00  0.00    +0.000 A 
ATOM     26  C   UNL     1       5.556   5.617  17.664  0.00  0.00    +0.000 A 
BRANCH  25  27
ATOM     27  N   UNL     1       3.615   4.112  17.605  0.00  0.00    +0.000 N 
ATOM     28  C   UNL     1       3.455   2.714  17.937  0.00  0.00    +0.000 C 
ATOM     29  C   UNL     1       1.958   2.544  18.101  0.00  0.00    +0.000 C 
ATOM     30  C   UNL     1       1.497   3.896  18.605  0.00  0.00    +0.000 C 
ATOM     31  C   UNL     1       2.495   4.853  18.012  0.00  0.00    +0.000 C 
ATOM     32  O   UNL     1       2.308   6.060  17.982  0.00  0.00    +0.000 OA
ENDBRANCH  25  27
ENDBRANCH   2  21
TORSDOF 5
ENDMDL
MODEL 9
REMARK VINA RESULT:      -8.5      2.347      3.467
REMARK  Name = 
REMARK  5 active torsions:
REMARK  status: ('A' for Active; 'I' for Inactive)
REMARK    1  A    between atoms: C_2  and  C_19
REMARK    2  A    between atoms: N_3  and  C_4
REMARK    3  A    between atoms: C_7  and  S_8
REMARK    4  A    between atoms: S_8  and  N_11
REMARK    5  A    between atoms: C_23  and  N_24
REMARK                            x       y       z     vdW  Elec       q    Type
REMARK                         _______ _______ _______ _____ _____    ______ ____
ROOT
ATOM      1  O   UNL     1       2.164   9.992  17.520  0.00  0.00    +0.000 OA
ATOM      2  C   UNL     1       1.924   9.137  18.366  0.00  0.00    +0.000 C 
ATOM      3  N   UNL     1       1.139   9.289  19.499  0.00  0.00    +0.000 N 
ATOM      4  H   UNL     1       1.210   8.573  20.211  0.00  0.00    +0.000 HD
ENDROOT
BRANCH   3   5
ATOM      5  C   UNL     1       0.420  10.450  19.845  0.00  0.00    +0.000 A 
ATOM      6  C   UNL     1       0.863  11.344  20.823  0.00  0.00    +0.000 A 
ATOM      7  C   UNL     1       0.086  12.440  21.196  0.00  0.00    +0.000 A 
ATOM      8  C   UNL     1      -1.139  12.662  20.566  0.00  0.00    +0.000 A 
ATOM      9  C   UNL     1      -1.586  11.793  19.566  0.00  0.00    +0.000 A 
ATOM     10  C   UNL     1      -0.796  10.699  19.194  0.00  0.00    +0.000 A 
BRANCH   8  11
ATOM     11  S   UNL     1      -2.183  13.975  21.154  0.00  0.00    +0.000 S 
ATOM     12  O   UNL     1      -2.063  13.998  22.602  0.00  0.00    +0.000 OA
ATOM     13  O   UNL     1      -1.892  15.147  20.364  0.00  0.00    +0.000 OA
BRANCH  11  14
ATOM     14  N   UNL     1      -3.731  13.363  20.833  0.00  0.00    +0.000 N 
ATOM     15  C   UNL     1      -4.584  13.533  21.948  0.00  0.00    +0.000 A 
ATOM     16  N   UNL     1      -4.787  12.538  22.775  0.00  0.00    +0.000 NA
ATOM     17  C   UNL     1      -5.622  12.971  23.791  0.00  0.00    +0.000 A 
ATOM     18  C   UNL     1      -6.134  14.243  23.641  0.00  0.00    +0.000 A 
ATOM     19  S   UNL     1      -5.495  14.952  22.216  0.00  0.00    +0.000 S 
ATOM     20  H   UNL     1      -3.602  12.367  20.655  0.00  0.00    +0.000 HD
ENDBRANCH  11  14
ENDBRANCH   8  11
ENDBRANCH   3   5
BRANCH   2  21
ATOM     21  C   UNL     1       2.580   7.816  18.216  0.00  0.00    +0.000 A 
ATOM     22  C   UNL     1       3.702   7.658  17.401  0.00  0.00    +0.000 A 
ATOM     23  C   UNL     1       4.304   6.411  17.306  0.00  0.00    +0.000 A 
ATOM     24  C   UNL     1       3.802   5.336  18.046  0.00  0.00    +0.000 A 
ATOM     25  C   UNL     1       2.696   5.475  18.895  0.00  0.00    +0.000 A 
ATOM     26  C   UNL     1       2.083   6.731  18.959  0.00  0.00    +0.000 A 
BRANCH  25  27
ATOM     27  N   UNL     1       2.234   4.389  19.686  0.00  0.00    +0.000 N 
ATOM     28  C   UNL     1       2.382   4.337  21.123  0.00  0.00    +0.000 C 
ATOM     29  C   UNL     1       2.177   2.874  21.461  0.00  0.00    +0.000 C 
ATOM     30  C   UNL     1       1.215   2.390  20.396  0.00  0.00    +0.000 C 
ATOM     31  C   UNL     1       1.522   3.274  19.217  0.00  0.00    +0.000 C 
ATOM     32  O   UNL     1       1.131   3.020  18.087  0.00  0.00    +0.000 OA
ENDBRANCH  25  27
ENDBRANCH   2  21
TORSDOF 5
ENDMDL
