MODEL 1
REMARK VINA RESULT:      -8.5      0.000      0.000
REMARK  Name = 
REMARK  8 active torsions:
REMARK  status: ('A' for Active; 'I' for Inactive)
REMARK    1  A    between atoms: C_1  and  C_2
REMARK    2  A    between atoms: C_5  and  C_6
REMARK    3  A    between atoms: C_7  and  S_8
REMARK    4  A    between atoms: S_8  and  C_9
REMARK    5  A    between atoms: C_14  and  C_15
REMARK    6  A    between atoms: N_17  and  C_18
REMARK    7  A    between atoms: N_22  and  C_23
REMARK    8  A    between atoms: C_23  and  C_24
REMARK                            x       y       z     vdW  Elec       q    Type
REMARK                         _______ _______ _______ _____ _____    ______ ____
ROOT
ATOM      1  C   UNL     1       1.855   7.988  19.813  0.00  0.00    +0.000 C 
ATOM      2  O   UNL     1       1.778   8.489  20.923  0.00  0.00    +0.000 OA
ATOM      3  N   UNL     1       1.537   8.746  18.630  0.00  0.00    +0.000 N 
ATOM      4  H   UNL     1       1.490   8.264  17.743  0.00  0.00    +0.000 HD
ENDROOT
BRANCH   1  10
ATOM      5  C   UNL     1       3.092   6.029  18.785  0.00  0.00    +0.000 A 
ATOM      6  N   UNL     1       3.339   4.694  18.717  0.00  0.00    +0.000 NA
ATOM      7  C   UNL     1       2.662   3.865  19.544  0.00  0.00    +0.000 A 
ATOM      8  C   UNL     1       1.729   4.303  20.463  0.00  0.00    +0.000 A 
ATOM      9  C   UNL     1       1.473   5.669  20.524  0.00  0.00    +0.000 A 
ATOM     10  C   UNL     1       2.151   6.553  19.666  0.00  0.00    +0.000 A 
BRANCH   5  11
ATOM     11  S   UNL     1       4.163   7.016  17.752  0.00  0.00    +0.000 S 
BRANCH  11  18
ATOM     12  C   UNL     1       5.648   4.016  13.651  0.00  0.00    +0.000 C 
ATOM     13  C   UNL     1       5.958   4.526  15.028  0.00  0.00    +0.000 A 
ATOM     14  C   UNL     1       7.113   4.130  15.697  0.00  0.00    +0.000 A 
ATOM     15  C   UNL     1       7.330   4.532  17.013  0.00  0.00    +0.000 A 
ATOM     16  C   UNL     1       6.408   5.360  17.681  0.00  0.00    +0.000 A 
ATOM     17  C   UNL     1       6.694   5.705  19.121  0.00  0.00    +0.000 C 
ATOM     18  C   UNL     1       5.277   5.837  16.982  0.00  0.00    +0.000 A 
ATOM     19  C   UNL     1       5.054   5.380  15.674  0.00  0.00    +0.000 A 
ENDBRANCH  11  18
ENDBRANCH   5  11
ENDBRANCH   1  10
BRANCH   3  20
ATOM     20  C   UNL     1       1.274  10.117  18.651  0.00  0.00    +0.000 A 
ATOM     21  C   UNL     1       2.170  11.146  18.459  0.00  0.00    +0.000 A 
ATOM     22  C   UNL     1       1.412  12.327  18.547  0.00  0.00    +0.000 A 
ATOM     23  N   UNL     1       0.121  12.083  18.761  0.00  0.00    +0.000 NA
ATOM     24  N   UNL     1       0.054  10.735  18.846  0.00  0.00    +0.000 N 
BRANCH  24  25
ATOM     25  C   UNL     1      -1.239  10.123  19.106  0.00  0.00    +0.000 C 
BRANCH  25  26
ATOM     26  C   UNL     1      -2.212  10.380  17.994  0.00  0.00    +0.000 A 
ATOM     27  C   UNL     1      -2.026   9.832  16.723  0.00  0.00    +0.000 A 
ATOM     28  C   UNL     1      -2.931  10.124  15.707  0.00  0.00    +0.000 A 
ATOM     29  C   UNL     1      -3.991  10.967  15.994  0.00  0.00    +0.000 A 
ATOM     30  N   UNL     1      -4.207  11.509  17.213  0.00  0.00    +0.000 NA
ATOM     31  C   UNL     1      -3.323  11.195  18.182  0.00  0.00    +0.000 A 
ENDBRANCH  25  26
ENDBRANCH  24  25
ENDBRANCH   3  20
TORSDOF 6
ENDMDL
MODEL 2
REMARK VINA RESULT:      -8.1      2.602      8.335
REMARK  Name = 
REMARK  8 active torsions:
REMARK  status: ('A' for Active; 'I' for Inactive)
REMARK    1  A    between atoms: C_1  and  C_2
REMARK    2  A    between atoms: C_5  and  C_6
REMARK    3  A    between atoms: C_7  and  S_8
REMARK    4  A    between atoms: S_8  and  C_9
REMARK    5  A    between atoms: C_14  and  C_15
REMARK    6  A    between atoms: N_17  and  C_18
REMARK    7  A    between atoms: N_22  and  C_23
REMARK    8  A    between atoms: C_23  and  C_24
REMARK                            x       y       z     vdW  Elec       q    Type
REMARK                         _______ _______ _______ _____ _____    ______ ____
ROOT
ATOM      1  C   UNL     1       1.551   8.609  19.262  0.00  0.00    +0.000 C 
ATOM      2  O   UNL     1       1.369   9.064  18.144  0.00  0.00    +0.000 OA
ATOM      3  N   UNL     1       2.355   7.431  19.464  0.00  0.00    +0.000 N 
ATOM      4  H   UNL     1       2.379   7.011  20.383  0.00  0.00    +0.000 HD
ENDROOT
BRANCH   1  10
ATOM      5  C   UNL     1       0.279  10.450  20.450  0.00  0.00    +0.000 A 
ATOM      6  N   UNL     1      -0.390  10.908  21.543  0.00  0.00    +0.000 NA
ATOM      7  C   UNL     1      -0.522  10.091  22.613  0.00  0.00    +0.000 A 
ATOM      8  C   UNL     1      -0.014   8.808  22.657  0.00  0.00    +0.000 A 
ATOM      9  C   UNL     1       0.676   8.346  21.540  0.00  0.00    +0.000 A 
ATOM     10  C   UNL     1       0.842   9.179  20.419  0.00  0.00    +0.000 A 
BRANCH   5  11
ATOM     11  S   UNL     1       0.243  11.570  19.060  0.00  0.00    +0.000 S 
BRANCH  11  18
ATOM     12  C   UNL     1      -3.047   9.579  15.420  0.00  0.00    +0.000 C 
ATOM     13  C   UNL     1      -2.883  10.369  16.686  0.00  0.00    +0.000 A 
ATOM     14  C   UNL     1      -3.984  10.916  17.338  0.00  0.00    +0.000 A 
ATOM     15  C   UNL     1      -3.801  11.732  18.453  0.00  0.00    +0.000 A 
ATOM     16  C   UNL     1      -2.513  11.997  18.955  0.00  0.00    +0.000 A 
ATOM     17  C   UNL     1      -2.400  12.933  20.133  0.00  0.00    +0.000 C 
ATOM     18  C   UNL     1      -1.396  11.377  18.353  0.00  0.00    +0.000 A 
ATOM     19  C   UNL     1      -1.600  10.598  17.202  0.00  0.00    +0.000 A 
ENDBRANCH  11  18
ENDBRANCH   5  11
ENDBRANCH   1  10
BRANCH   3  20
ATOM     20  C   UNL     1       3.095   6.829  18.445  0.00  0.00    +0.000 A 
ATOM     21  C   UNL     1       4.232   7.312  17.835  0.00  0.00    +0.000 A 
ATOM     22  C   UNL     1       4.607   6.330  16.903  0.00  0.00    +0.000 A 
ATOM     23  N   UNL     1       3.787   5.280  16.918  0.00  0.00    +0.000 NA
ATOM     24  N   UNL     1       2.858   5.607  17.844  0.00  0.00    +0.000 N 
BRANCH  24  25
ATOM     25  C   UNL     1       1.776   4.670  18.097  0.00  0.00    +0.000 C 
BRANCH  25  26
ATOM     26  C   UNL     1       2.017   3.860  19.336  0.00  0.00    +0.000 A 
ATOM     27  C   UNL     1       1.034   3.724  20.319  0.00  0.00    +0.000 A 
ATOM     28  C   UNL     1       1.308   2.994  21.472  0.00  0.00    +0.000 A 
ATOM     29  C   UNL     1       2.566   2.433  21.610  0.00  0.00    +0.000 A 
ATOM     30  N   UNL     1       3.538   2.537  20.678  0.00  0.00    +0.000 NA
ATOM     31  C   UNL     1       3.239   3.235  19.564  0.00  0.00    +0.000 A 
ENDBRANCH  25  26
ENDBRANCH  24  25
ENDBRANCH   3  20
TORSDOF 6
ENDMDL
MODEL 3
REMARK VINA RESULT:      -8.1      0.587      1.865
REMARK  Name = 
REMARK  8 active torsions:
REMARK  status: ('A' for Active; 'I' for Inactive)
REMARK    1  A    between atoms: C_1  and  C_2
REMARK    2  A    between atoms: C_5  and  C_6
REMARK    3  A    between atoms: C_7  and  S_8
REMARK    4  A    between atoms: S_8  and  C_9
REMARK    5  A    between atoms: C_14  and  C_15
REMARK    6  A    between atoms: N_17  and  C_18
REMARK    7  A    between atoms: N_22  and  C_23
REMARK    8  A    between atoms: C_23  and  C_24
REMARK                            x       y       z     vdW  Elec       q    Type
REMARK                         _______ _______ _______ _____ _____    ______ ____
ROOT
ATOM      1  C   UNL     1       1.852   8.065  19.738  0.00  0.00    +0.000 C 
ATOM      2  O   UNL     1       1.860   8.591  20.839  0.00  0.00    +0.000 OA
ATOM      3  N   UNL     1       1.538   8.821  18.553  0.00  0.00    +0.000 N 
ATOM      4  H   UNL     1       1.417   8.327  17.679  0.00  0.00    +0.000 HD
ENDROOT
BRANCH   1  10
ATOM      5  C   UNL     1       2.844   6.000  18.654  0.00  0.00    +0.000 A 
ATOM      6  N   UNL     1       2.997   4.649  18.606  0.00  0.00    +0.000 NA
ATOM      7  C   UNL     1       2.360   3.891  19.528  0.00  0.00    +0.000 A 
ATOM      8  C   UNL     1       1.560   4.416  20.523  0.00  0.00    +0.000 A 
ATOM      9  C   UNL     1       1.400   5.797  20.564  0.00  0.00    +0.000 A 
ATOM     10  C   UNL     1       2.038   6.610  19.610  0.00  0.00    +0.000 A 
BRANCH   5  11
ATOM     11  S   UNL     1       3.860   6.884  17.481  0.00  0.00    +0.000 S 
BRANCH  11  18
ATOM     12  C   UNL     1       8.310   5.472  19.978  0.00  0.00    +0.000 C 
ATOM     13  C   UNL     1       7.454   5.361  18.750  0.00  0.00    +0.000 A 
ATOM     14  C   UNL     1       7.855   4.588  17.663  0.00  0.00    +0.000 A 
ATOM     15  C   UNL     1       7.096   4.582  16.494  0.00  0.00    +0.000 A 
ATOM     16  C   UNL     1       5.907   5.328  16.396  0.00  0.00    +0.000 A 
ATOM     17  C   UNL     1       5.175   5.307  15.077  0.00  0.00    +0.000 C 
ATOM     18  C   UNL     1       5.448   6.046  17.522  0.00  0.00    +0.000 A 
ATOM     19  C   UNL     1       6.252   6.078  18.672  0.00  0.00    +0.000 A 
ENDBRANCH  11  18
ENDBRANCH   5  11
ENDBRANCH   1  10
BRANCH   3  20
ATOM     20  C   UNL     1       1.374  10.208  18.555  0.00  0.00    +0.000 A 
ATOM     21  C   UNL     1       2.320  11.165  18.256  0.00  0.00    +0.000 A 
ATOM     22  C   UNL     1       1.658  12.399  18.372  0.00  0.00    +0.000 A 
ATOM     23  N   UNL     1       0.376  12.255  18.703  0.00  0.00    +0.000 NA
ATOM     24  N   UNL     1       0.222  10.918  18.833  0.00  0.00    +0.000 N 
BRANCH  24  25
ATOM     25  C   UNL     1      -1.083  10.408  19.221  0.00  0.00    +0.000 C 
BRANCH  25  26
ATOM     26  C   UNL     1      -2.087  10.546  18.115  0.00  0.00    +0.000 A 
ATOM     27  C   UNL     1      -1.936   9.864  16.905  0.00  0.00    +0.000 A 
ATOM     28  C   UNL     1      -2.870  10.046  15.889  0.00  0.00    +0.000 A 
ATOM     29  C   UNL     1      -3.921  10.918  16.114  0.00  0.00    +0.000 A 
ATOM     30  N   UNL     1      -4.104  11.588  17.272  0.00  0.00    +0.000 NA
ATOM     31  C   UNL     1      -3.193  11.379  18.245  0.00  0.00    +0.000 A 
ENDBRANCH  25  26
ENDBRANCH  24  25
ENDBRANCH   3  20
TORSDOF 6
ENDMDL
MODEL 4
REMARK VINA RESULT:      -8.0      3.790      8.100
REMARK  Name = 
REMARK  8 active torsions:
REMARK  status: ('A' for Active; 'I' for Inactive)
REMARK    1  A    between atoms: C_1  and  C_2
REMARK    2  A    between atoms: C_5  and  C_6
REMARK    3  A    between atoms: C_7  and  S_8
REMARK    4  A    between atoms: S_8  and  C_9
REMARK    5  A    between atoms: C_14  and  C_15
REMARK    6  A    between atoms: N_17  and  C_18
REMARK    7  A    between atoms: N_22  and  C_23
REMARK    8  A    between atoms: C_23  and  C_24
REMARK                            x       y       z     vdW  Elec       q    Type
REMARK                         _______ _______ _______ _____ _____    ______ ____
ROOT
ATOM      1  C   UNL     1       4.016   3.695  17.714  0.00  0.00    +0.000 C 
ATOM      2  O   UNL     1       5.084   3.354  18.193  0.00  0.00    +0.000 OA
ATOM      3  N   UNL     1       3.946   4.314  16.414  0.00  0.00    +0.000 N 
ATOM      4  H   UNL     1       3.063   4.698  16.106  0.00  0.00    +0.000 HD
ENDROOT
BRANCH   1  10
ATOM      5  C   UNL     1       2.432   4.483  19.528  0.00  0.00    +0.000 A 
ATOM      6  N   UNL     1       1.261   4.360  20.208  0.00  0.00    +0.000 NA
ATOM      7  C   UNL     1       0.413   3.364  19.865  0.00  0.00    +0.000 A 
ATOM      8  C   UNL     1       0.670   2.460  18.853  0.00  0.00    +0.000 A 
ATOM      9  C   UNL     1       1.873   2.585  18.165  0.00  0.00    +0.000 A 
ATOM     10  C   UNL     1       2.781   3.602  18.510  0.00  0.00    +0.000 A 
BRANCH   5  11
ATOM     11  S   UNL     1       3.379   5.928  19.978  0.00  0.00    +0.000 S 
BRANCH  11  18
ATOM     12  C   UNL     1      -0.339   8.963  22.212  0.00  0.00    +0.000 C 
ATOM     13  C   UNL     1       0.544   8.705  21.026  0.00  0.00    +0.000 A 
ATOM     14  C   UNL     1       0.496   9.526  19.903  0.00  0.00    +0.000 A 
ATOM     15  C   UNL     1       1.249   9.208  18.774  0.00  0.00    +0.000 A 
ATOM     16  C   UNL     1       2.086   8.077  18.753  0.00  0.00    +0.000 A 
ATOM     17  C   UNL     1       2.825   7.776  17.473  0.00  0.00    +0.000 C 
ATOM     18  C   UNL     1       2.207   7.287  19.918  0.00  0.00    +0.000 A 
ATOM     19  C   UNL     1       1.403   7.597  21.027  0.00  0.00    +0.000 A 
ENDBRANCH  11  18
ENDBRANCH   5  11
ENDBRANCH   1  10
BRANCH   3  20
ATOM     20  C   UNL     1       5.047   4.425  15.563  0.00  0.00    +0.000 A 
ATOM     21  C   UNL     1       5.545   3.468  14.706  0.00  0.00    +0.000 A 
ATOM     22  C   UNL     1       6.634   4.074  14.055  0.00  0.00    +0.000 A 
ATOM     23  N   UNL     1       6.818   5.334  14.445  0.00  0.00    +0.000 NA
ATOM     24  N   UNL     1       5.860   5.528  15.380  0.00  0.00    +0.000 N 
BRANCH  24  25
ATOM     25  C   UNL     1       5.793   6.820  16.043  0.00  0.00    +0.000 C 
BRANCH  25  26
ATOM     26  C   UNL     1       6.785   6.925  17.163  0.00  0.00    +0.000 A 
ATOM     27  C   UNL     1       6.995   5.866  18.050  0.00  0.00    +0.000 A 
ATOM     28  C   UNL     1       7.897   6.015  19.099  0.00  0.00    +0.000 A 
ATOM     29  C   UNL     1       8.553   7.226  19.234  0.00  0.00    +0.000 A 
ATOM     30  N   UNL     1       8.381   8.268  18.392  0.00  0.00    +0.000 NA
ATOM     31  C   UNL     1       7.514   8.090  17.375  0.00  0.00    +0.000 A 
ENDBRANCH  25  26
ENDBRANCH  24  25
ENDBRANCH   3  20
TORSDOF 6
ENDMDL
MODEL 5
REMARK VINA RESULT:      -8.0      3.860      8.102
REMARK  Name = 
REMARK  8 active torsions:
REMARK  status: ('A' for Active; 'I' for Inactive)
REMARK    1  A    between atoms: C_1  and  C_2
REMARK    2  A    between atoms: C_5  and  C_6
REMARK    3  A    between atoms: C_7  and  S_8
REMARK    4  A    between atoms: S_8  and  C_9
REMARK    5  A    between atoms: C_14  and  C_15
REMARK    6  A    between atoms: N_17  and  C_18
REMARK    7  A    between atoms: N_22  and  C_23
REMARK    8  A    between atoms: C_23  and  C_24
REMARK                            x       y       z     vdW  Elec       q    Type
REMARK                         _______ _______ _______ _____ _____    ______ ____
ROOT
ATOM      1  C   UNL     1       4.041   3.387  17.749  0.00  0.00    +0.000 C 
ATOM      2  O   UNL     1       4.954   2.641  18.064  0.00  0.00    +0.000 OA
ATOM      3  N   UNL     1       4.209   4.373  16.712  0.00  0.00    +0.000 N 
ATOM      4  H   UNL     1       3.477   5.055  16.567  0.00  0.00    +0.000 HD
ENDROOT
BRANCH   1  10
ATOM      5  C   UNL     1       2.455   4.321  19.491  0.00  0.00    +0.000 A 
ATOM      6  N   UNL     1       1.262   4.282  20.143  0.00  0.00    +0.000 NA
ATOM      7  C   UNL     1       0.373   3.318  19.813  0.00  0.00    +0.000 A 
ATOM      8  C   UNL     1       0.609   2.366  18.842  0.00  0.00    +0.000 A 
ATOM      9  C   UNL     1       1.833   2.404  18.182  0.00  0.00    +0.000 A 
ATOM     10  C   UNL     1       2.784   3.386  18.515  0.00  0.00    +0.000 A 
BRANCH   5  11
ATOM     11  S   UNL     1       3.464   5.732  19.914  0.00  0.00    +0.000 S 
BRANCH  11  18
ATOM     12  C   UNL     1      -0.254   8.913  21.935  0.00  0.00    +0.000 C 
ATOM     13  C   UNL     1       0.693   8.625  20.807  0.00  0.00    +0.000 A 
ATOM     14  C   UNL     1       0.755   9.456  19.692  0.00  0.00    +0.000 A 
ATOM     15  C   UNL     1       1.565   9.115  18.611  0.00  0.00    +0.000 A 
ATOM     16  C   UNL     1       2.350   7.947  18.632  0.00  0.00    +0.000 A 
ATOM     17  C   UNL     1       3.157   7.624  17.399  0.00  0.00    +0.000 C 
ATOM     18  C   UNL     1       2.360   7.143  19.793  0.00  0.00    +0.000 A 
ATOM     19  C   UNL     1       1.500   7.480  20.851  0.00  0.00    +0.000 A 
ENDBRANCH  11  18
ENDBRANCH   5  11
ENDBRANCH   1  10
BRANCH   3  20
ATOM     20  C   UNL     1       5.346   4.443  15.905  0.00  0.00    +0.000 A 
ATOM     21  C   UNL     1       5.414   4.289  14.536  0.00  0.00    +0.000 A 
ATOM     22  C   UNL     1       6.766   4.479  14.203  0.00  0.00    +0.000 A 
ATOM     23  N   UNL     1       7.516   4.755  15.268  0.00  0.00    +0.000 NA
ATOM     24  N   UNL     1       6.643   4.707  16.300  0.00  0.00    +0.000 N 
BRANCH  24  25
ATOM     25  C   UNL     1       7.148   4.942  17.643  0.00  0.00    +0.000 C 
BRANCH  25  26
ATOM     26  C   UNL     1       7.473   6.388  17.872  0.00  0.00    +0.000 A 
ATOM     27  C   UNL     1       6.902   7.395  17.090  0.00  0.00    +0.000 A 
ATOM     28  C   UNL     1       7.256   8.723  17.310  0.00  0.00    +0.000 A 
ATOM     29  C   UNL     1       8.183   9.000  18.300  0.00  0.00    +0.000 A 
ATOM     30  N   UNL     1       8.750   8.054  19.080  0.00  0.00    +0.000 NA
ATOM     31  C   UNL     1       8.375   6.778  18.856  0.00  0.00    +0.000 A 
ENDBRANCH  25  26
ENDBRANCH  24  25
ENDBRANCH   3  20
TORSDOF 6
ENDMDL
MODEL 6
REMARK VINA RESULT:      -8.0      2.853      4.038
REMARK  Name = 
REMARK  8 active torsions:
REMARK  status: ('A' for Active; 'I' for Inactive)
REMARK    1  A    between atoms: C_1  and  C_2
REMARK    2  A    between atoms: C_5  and  C_6
REMARK    3  A    between atoms: C_7  and  S_8
REMARK    4  A    between atoms: S_8  and  C_9
REMARK    5  A    between atoms: C_14  and  C_15
REMARK    6  A    between atoms: N_17  and  C_18
REMARK    7  A    between atoms: N_22  and  C_23
REMARK    8  A    between atoms: C_23  and  C_24
REMARK                            x       y       z     vdW  Elec       q    Type
REMARK                         _______ _______ _______ _____ _____    ______ ____
ROOT
ATOM      1  C   UNL     1       2.216   5.435  18.921  0.00  0.00    +0.000 C 
ATOM      2  O   UNL     1       1.544   5.402  17.904  0.00  0.00    +0.000 OA
ATOM      3  N   UNL     1       2.572   6.688  19.538  0.00  0.00    +0.000 N 
ATOM      4  H   UNL     1       3.232   6.682  20.303  0.00  0.00    +0.000 HD
ENDROOT
BRANCH   1  10
ATOM      5  C   UNL     1       3.751   3.422  18.831  0.00  0.00    +0.000 A 
ATOM      6  N   UNL     1       4.265   2.302  19.407  0.00  0.00    +0.000 NA
ATOM      7  C   UNL     1       3.839   1.953  20.642  0.00  0.00    +0.000 A 
ATOM      8  C   UNL     1       2.907   2.678  21.358  0.00  0.00    +0.000 A 
ATOM      9  C   UNL     1       2.378   3.819  20.762  0.00  0.00    +0.000 A 
ATOM     10  C   UNL     1       2.791   4.197  19.472  0.00  0.00    +0.000 A 
BRANCH   5  11
ATOM     11  S   UNL     1       4.513   3.847  17.273  0.00  0.00    +0.000 S 
BRANCH  11  18
ATOM     12  C   UNL     1       8.480   5.590  20.315  0.00  0.00    +0.000 C 
ATOM     13  C   UNL     1       7.642   5.788  19.086  0.00  0.00    +0.000 A 
ATOM     14  C   UNL     1       7.848   6.879  18.245  0.00  0.00    +0.000 A 
ATOM     15  C   UNL     1       6.993   7.101  17.168  0.00  0.00    +0.000 A 
ATOM     16  C   UNL     1       5.928   6.222  16.893  0.00  0.00    +0.000 A 
ATOM     17  C   UNL     1       5.018   6.565  15.739  0.00  0.00    +0.000 C 
ATOM     18  C   UNL     1       5.764   5.067  17.688  0.00  0.00    +0.000 A 
ATOM     19  C   UNL     1       6.607   4.889  18.797  0.00  0.00    +0.000 A 
ENDBRANCH  11  18
ENDBRANCH   5  11
ENDBRANCH   1  10
BRANCH   3  20
ATOM     20  C   UNL     1       2.060   7.917  19.118  0.00  0.00    +0.000 A 
ATOM     21  C   UNL     1       2.084   8.445  17.845  0.00  0.00    +0.000 A 
ATOM     22  C   UNL     1       1.419   9.680  17.937  0.00  0.00    +0.000 A 
ATOM     23  N   UNL     1       0.980   9.927  19.169  0.00  0.00    +0.000 NA
ATOM     24  N   UNL     1       1.397   8.857  19.883  0.00  0.00    +0.000 N 
BRANCH  24  25
ATOM     25  C   UNL     1       1.099   8.817  21.306  0.00  0.00    +0.000 C 
BRANCH  25  26
ATOM     26  C   UNL     1       0.429  10.076  21.771  0.00  0.00    +0.000 A 
ATOM     27  C   UNL     1      -0.701  10.038  22.592  0.00  0.00    +0.000 A 
ATOM     28  C   UNL     1      -1.317  11.227  22.973  0.00  0.00    +0.000 A 
ATOM     29  C   UNL     1      -0.788  12.418  22.508  0.00  0.00    +0.000 A 
ATOM     30  N   UNL     1       0.306  12.494  21.719  0.00  0.00    +0.000 NA
ATOM     31  C   UNL     1       0.892  11.327  21.379  0.00  0.00    +0.000 A 
ENDBRANCH  25  26
ENDBRANCH  24  25
ENDBRANCH   3  20
TORSDOF 6
ENDMDL
MODEL 7
REMARK VINA RESULT:      -7.8      2.003      9.003
REMARK  Name = 
REMARK  8 active torsions:
REMARK  status: ('A' for Active; 'I' for Inactive)
REMARK    1  A    between atoms: C_1  and  C_2
REMARK    2  A    between atoms: C_5  and  C_6
REMARK    3  A    between atoms: C_7  and  S_8
REMARK    4  A    between atoms: S_8  and  C_9
REMARK    5  A    between atoms: C_14  and  C_15
REMARK    6  A    between atoms: N_17  and  C_18
REMARK    7  A    between atoms: N_22  and  C_23
REMARK    8  A    between atoms: C_23  and  C_24
REMARK                            x       y       z     vdW  Elec       q    Type
REMARK                         _______ _______ _______ _____ _____    ______ ____
ROOT
ATOM      1  C   UNL     1       1.596   9.431  18.264  0.00  0.00    +0.000 C 
ATOM      2  O   UNL     1       1.137   8.859  17.289  0.00  0.00    +0.000 OA
ATOM      3  N   UNL     1       2.137   8.692  19.376  0.00  0.00    +0.000 N 
ATOM      4  H   UNL     1       2.390   9.194  20.216  0.00  0.00    +0.000 HD
ENDROOT
BRANCH   1  10
ATOM      5  C   UNL     1       0.371  11.563  18.879  0.00  0.00    +0.000 A 
ATOM      6  N   UNL     1       0.344  12.918  18.992  0.00  0.00    +0.000 NA
ATOM      7  C   UNL     1       1.440  13.622  18.632  0.00  0.00    +0.000 A 
ATOM      8  C   UNL     1       2.596  13.037  18.154  0.00  0.00    +0.000 A 
ATOM      9  C   UNL     1       2.618  11.652  18.032  0.00  0.00    +0.000 A 
ATOM     10  C   UNL     1       1.486  10.894  18.385  0.00  0.00    +0.000 A 
BRANCH   5  11
ATOM     11  S   UNL     1      -1.080  10.753  19.534  0.00  0.00    +0.000 S 
BRANCH  11  18
ATOM     12  C   UNL     1      -2.961   9.970  14.647  0.00  0.00    +0.000 C 
ATOM     13  C   UNL     1      -3.195  10.519  16.025  0.00  0.00    +0.000 A 
ATOM     14  C   UNL     1      -4.388  11.159  16.349  0.00  0.00    +0.000 A 
ATOM     15  C   UNL     1      -4.545  11.752  17.600  0.00  0.00    +0.000 A 
ATOM     16  C   UNL     1      -3.521  11.696  18.564  0.00  0.00    +0.000 A 
ATOM     17  C   UNL     1      -3.752  12.409  19.873  0.00  0.00    +0.000 C 
ATOM     18  C   UNL     1      -2.341  10.975  18.275  0.00  0.00    +0.000 A 
ATOM     19  C   UNL     1      -2.185  10.427  16.992  0.00  0.00    +0.000 A 
ENDBRANCH  11  18
ENDBRANCH   5  11
ENDBRANCH   1  10
BRANCH   3  20
ATOM     20  C   UNL     1       2.316   7.308  19.355  0.00  0.00    +0.000 A 
ATOM     21  C   UNL     1       1.719   6.372  20.174  0.00  0.00    +0.000 A 
ATOM     22  C   UNL     1       2.201   5.127  19.736  0.00  0.00    +0.000 A 
ATOM     23  N   UNL     1       3.032   5.241  18.702  0.00  0.00    +0.000 NA
ATOM     24  N   UNL     1       3.111   6.575  18.495  0.00  0.00    +0.000 N 
BRANCH  24  25
ATOM     25  C   UNL     1       3.975   7.059  17.430  0.00  0.00    +0.000 C 
BRANCH  25  26
ATOM     26  C   UNL     1       5.151   6.154  17.212  0.00  0.00    +0.000 A 
ATOM     27  C   UNL     1       6.145   6.005  18.183  0.00  0.00    +0.000 A 
ATOM     28  C   UNL     1       7.240   5.184  17.928  0.00  0.00    +0.000 A 
ATOM     29  C   UNL     1       7.311   4.546  16.702  0.00  0.00    +0.000 A 
ATOM     30  N   UNL     1       6.367   4.661  15.743  0.00  0.00    +0.000 NA
ATOM     31  C   UNL     1       5.309   5.449  16.023  0.00  0.00    +0.000 A 
ENDBRANCH  25  26
ENDBRANCH  24  25
ENDBRANCH   3  20
TORSDOF 6
ENDMDL
MODEL 8
REMARK VINA RESULT:      -7.8      2.455      8.845
REMARK  Name = 
REMARK  8 active torsions:
REMARK  status: ('A' for Active; 'I' for Inactive)
REMARK    1  A    between atoms: C_1  and  C_2
REMARK    2  A    between atoms: C_5  and  C_6
REMARK    3  A    between atoms: C_7  and  S_8
REMARK    4  A    between atoms: S_8  and  C_9
REMARK    5  A    between atoms: C_14  and  C_15
REMARK    6  A    between atoms: N_17  and  C_18
REMARK    7  A    between atoms: N_22  and  C_23
REMARK    8  A    between atoms: C_23  and  C_24
REMARK                            x       y       z     vdW  Elec       q    Type
REMARK                         _______ _______ _______ _____ _____    ______ ____
ROOT
ATOM      1  C   UNL     1       1.935   8.435  18.944  0.00  0.00    +0.000 C 
ATOM      2  O   UNL     1       2.041   9.038  17.889  0.00  0.00    +0.000 OA
ATOM      3  N   UNL     1       2.473   7.108  19.101  0.00  0.00    +0.000 N 
ATOM      4  H   UNL     1       2.256   6.591  19.942  0.00  0.00    +0.000 HD
ENDROOT
BRANCH   1  10
ATOM      5  C   UNL     1       0.162   9.980  19.888  0.00  0.00    +0.000 A 
ATOM      6  N   UNL     1      -0.563  10.440  20.943  0.00  0.00    +0.000 NA
ATOM      7  C   UNL     1      -0.339   9.908  22.166  0.00  0.00    +0.000 A 
ATOM      8  C   UNL     1       0.590   8.915  22.405  0.00  0.00    +0.000 A 
ATOM      9  C   UNL     1       1.336   8.453  21.325  0.00  0.00    +0.000 A 
ATOM     10  C   UNL     1       1.135   8.999  20.044  0.00  0.00    +0.000 A 
BRANCH   5  11
ATOM     11  S   UNL     1      -0.344  10.655  18.314  0.00  0.00    +0.000 S 
BRANCH  11  18
ATOM     12  C   UNL     1      -4.100  13.384  20.857  0.00  0.00    +0.000 C 
ATOM     13  C   UNL     1      -3.743  12.480  19.714  0.00  0.00    +0.000 A 
ATOM     14  C   UNL     1      -4.711  12.046  18.812  0.00  0.00    +0.000 A 
ATOM     15  C   UNL     1      -4.378  11.126  17.820  0.00  0.00    +0.000 A 
ATOM     16  C   UNL     1      -3.064  10.639  17.693  0.00  0.00    +0.000 A 
ATOM     17  C   UNL     1      -2.802   9.605  16.626  0.00  0.00    +0.000 C 
ATOM     18  C   UNL     1      -2.057  11.138  18.547  0.00  0.00    +0.000 A 
ATOM     19  C   UNL     1      -2.424  12.028  19.570  0.00  0.00    +0.000 A 
ENDBRANCH  11  18
ENDBRANCH   5  11
ENDBRANCH   1  10
BRANCH   3  20
ATOM     20  C   UNL     1       3.271   6.491  18.135  0.00  0.00    +0.000 A 
ATOM     21  C   UNL     1       4.420   6.985  17.555  0.00  0.00    +0.000 A 
ATOM     22  C   UNL     1       4.860   5.980  16.676  0.00  0.00    +0.000 A 
ATOM     23  N   UNL     1       4.071   4.908  16.698  0.00  0.00    +0.000 NA
ATOM     24  N   UNL     1       3.095   5.241  17.573  0.00  0.00    +0.000 N 
BRANCH  24  25
ATOM     25  C   UNL     1       2.030   4.282  17.817  0.00  0.00    +0.000 C 
BRANCH  25  26
ATOM     26  C   UNL     1       2.148   3.650  19.172  0.00  0.00    +0.000 A 
ATOM     27  C   UNL     1       1.100   3.707  20.095  0.00  0.00    +0.000 A 
ATOM     28  C   UNL     1       1.260   3.140  21.356  0.00  0.00    +0.000 A 
ATOM     29  C   UNL     1       2.473   2.545  21.658  0.00  0.00    +0.000 A 
ATOM     30  N   UNL     1       3.505   2.465  20.791  0.00  0.00    +0.000 NA
ATOM     31  C   UNL     1       3.315   3.008  19.570  0.00  0.00    +0.000 A 
ENDBRANCH  25  26
ENDBRANCH  24  25
ENDBRANCH   3  20
TORSDOF 6
ENDMDL
MODEL 9
REMARK VINA RESULT:      -7.8      2.391      8.592
REMARK  Name = 
REMARK  8 active torsions:
REMARK  status: ('A' for Active; 'I' for Inactive)
REMARK    1  A    between atoms: C_1  and  C_2
REMARK    2  A    between atoms: C_5  and  C_6
REMARK    3  A    between atoms: C_7  and  S_8
REMARK    4  A    between atoms: S_8  and  C_9
REMARK    5  A    between atoms: C_14  and  C_15
REMARK    6  A    between atoms: N_17  and  C_18
REMARK    7  A    between atoms: N_22  and  C_23
REMARK    8  A    between atoms: C_23  and  C_24
REMARK                            x       y       z     vdW  Elec       q    Type
REMARK                         _______ _______ _______ _____ _____    ______ ____
ROOT
ATOM      1  C   UNL     1       1.800   9.447  17.908  0.00  0.00    +0.000 C 
ATOM      2  O   UNL     1       0.884   8.770  17.472  0.00  0.00    +0.000 OA
ATOM      3  N   UNL     1       3.061   8.851  18.270  0.00  0.00    +0.000 N 
ATOM      4  H   UNL     1       3.749   9.420  18.744  0.00  0.00    +0.000 HD
ENDROOT
BRANCH   1  10
ATOM      5  C   UNL     1       0.435  11.407  18.756  0.00  0.00    +0.000 A 
ATOM      6  N   UNL     1       0.317  12.734  19.028  0.00  0.00    +0.000 NA
ATOM      7  C   UNL     1       1.366  13.546  18.766  0.00  0.00    +0.000 A 
ATOM      8  C   UNL     1       2.560  13.099  18.236  0.00  0.00    +0.000 A 
ATOM      9  C   UNL     1       2.674  11.742  17.951  0.00  0.00    +0.000 A 
ATOM     10  C   UNL     1       1.594  10.876  18.199  0.00  0.00    +0.000 A 
BRANCH   5  11
ATOM     11  S   UNL     1      -0.962  10.433  19.294  0.00  0.00    +0.000 S 
BRANCH  11  18
ATOM     12  C   UNL     1      -3.133   9.950  14.490  0.00  0.00    +0.000 C 
ATOM     13  C   UNL     1      -3.256  10.473  15.891  0.00  0.00    +0.000 A 
ATOM     14  C   UNL     1      -4.378  11.194  16.293  0.00  0.00    +0.000 A 
ATOM     15  C   UNL     1      -4.426  11.758  17.566  0.00  0.00    +0.000 A 
ATOM     16  C   UNL     1      -3.364  11.593  18.474  0.00  0.00    +0.000 A 
ATOM     17  C   UNL     1      -3.474  12.281  19.812  0.00  0.00    +0.000 C 
ATOM     18  C   UNL     1      -2.261  10.791  18.108  0.00  0.00    +0.000 A 
ATOM     19  C   UNL     1      -2.211  10.272  16.804  0.00  0.00    +0.000 A 
ENDBRANCH  11  18
ENDBRANCH   5  11
ENDBRANCH   1  10
BRANCH   3  20
ATOM     20  C   UNL     1       3.374   7.516  18.010  0.00  0.00    +0.000 A 
ATOM     21  C   UNL     1       4.141   7.019  16.978  0.00  0.00    +0.000 A 
ATOM     22  C   UNL     1       4.181   5.628  17.174  0.00  0.00    +0.000 A 
ATOM     23  N   UNL     1       3.508   5.251  18.259  0.00  0.00    +0.000 NA
ATOM     24  N   UNL     1       3.002   6.407  18.746  0.00  0.00    +0.000 N 
BRANCH  24  25
ATOM     25  C   UNL     1       2.175   6.350  19.940  0.00  0.00    +0.000 C 
BRANCH  25  26
ATOM     26  C   UNL     1       1.924   4.938  20.378  0.00  0.00    +0.000 A 
ATOM     27  C   UNL     1       1.085   4.089  19.652  0.00  0.00    +0.000 A 
ATOM     28  C   UNL     1       0.848   2.796  20.110  0.00  0.00    +0.000 A 
ATOM     29  C   UNL     1       1.449   2.398  21.292  0.00  0.00    +0.000 A 
ATOM     30  N   UNL     1       2.271   3.188  22.016  0.00  0.00    +0.000 NA
ATOM     31  C   UNL     1       2.497   4.429  21.539  0.00  0.00    +0.000 A 
ENDBRANCH  25  26
ENDBRANCH  24  25
ENDBRANCH   3  20
TORSDOF 6
ENDMDL
