MODEL 1
REMARK VINA RESULT:      -7.7      0.000      0.000
REMARK  Name = 
REMARK  5 active torsions:
REMARK  status: ('A' for Active; 'I' for Inactive)
REMARK    1  A    between atoms: C_1  and  O_2
REMARK    2  A    between atoms: O_2  and  C_3
REMARK    3  A    between atoms: C_8  and  C_9
REMARK    4  A    between atoms: C_12  and  C_13
REMARK    5  A    between atoms: C_13  and  N_14
REMARK                            x       y       z     vdW  Elec       q    Type
REMARK                         _______ _______ _______ _____ _____    ______ ____
ROOT
ATOM      1  N   UNL     1       1.180  10.361  19.167  0.00  0.00    +0.000 N 
ATOM      2  C   UNL     1       1.629  11.620  18.833  0.00  0.00    +0.000 C 
ATOM      3  O   UNL     1       2.467  11.939  18.034  0.00  0.00    +0.000 OA
ATOM      4  N   UNL     1       0.700  12.536  19.425  0.00  0.00    +0.000 N 
ATOM      5  C   UNL     1      -0.589  11.844  19.406  0.00  0.00    +0.000 C 
ATOM      6  C   UNL     1      -0.972  11.751  17.875  0.00  0.00    +0.000 C 
ATOM      7  C   UNL     1      -2.437  11.837  17.544  0.00  0.00    +0.000 C 
ATOM      8  O   UNL     1      -3.183  11.245  18.579  0.00  0.00    +0.000 OA
ATOM      9  C   UNL     1      -3.031  12.031  19.691  0.00  0.00    +0.000 A 
ATOM     10  C   UNL     1      -4.203  12.511  20.233  0.00  0.00    +0.000 A 
ATOM     11  C   UNL     1      -4.152  13.157  21.455  0.00  0.00    +0.000 A 
ATOM     12  C   UNL     1      -2.932  13.234  22.133  0.00  0.00    +0.000 A 
ATOM     13  C   UNL     1      -1.731  12.815  21.525  0.00  0.00    +0.000 A 
ATOM     14  C   UNL     1      -1.760  12.286  20.235  0.00  0.00    +0.000 A 
ATOM     15  C   UNL     1       0.030  10.536  19.891  0.00  0.00    +0.000 C 
ATOM     16  O   UNL     1      -0.404   9.737  20.711  0.00  0.00    +0.000 OA
ATOM     17  H   UNL     1       0.777  13.502  19.133  0.00  0.00    +0.000 HD
ENDROOT
BRANCH   1  18
ATOM     18  C   UNL     1       1.112   9.238  18.267  0.00  0.00    +0.000 C 
BRANCH  18  22
ATOM     19  C   UNL     1       3.577   6.770  18.127  0.00  0.00    +0.000 A 
ATOM     20  N   UNL     1       3.095   6.506  19.355  0.00  0.00    +0.000 NA
ATOM     21  O   UNL     1       2.117   7.471  19.546  0.00  0.00    +0.000 OA
ATOM     22  C   UNL     1       2.160   8.254  18.440  0.00  0.00    +0.000 A 
ATOM     23  N   UNL     1       3.034   7.880  17.542  0.00  0.00    +0.000 NA
BRANCH  19  29
ATOM     24  C   UNL     1       4.380   4.692  17.032  0.00  0.00    +0.000 A 
ATOM     25  C   UNL     1       5.437   3.976  16.484  0.00  0.00    +0.000 A 
ATOM     26  C   UNL     1       6.696   4.565  16.332  0.00  0.00    +0.000 A 
ATOM     27  C   UNL     1       6.898   5.893  16.691  0.00  0.00    +0.000 A 
ATOM     28  C   UNL     1       5.857   6.619  17.240  0.00  0.00    +0.000 A 
ATOM     29  C   UNL     1       4.600   6.019  17.450  0.00  0.00    +0.000 A 
BRANCH  24  31
ATOM     30  C   UNL     1       2.994   2.929  17.741  0.00  0.00    +0.000 C 
ATOM     31  O   UNL     1       3.105   4.199  17.120  0.00  0.00    +0.000 OA
ENDBRANCH  24  31
ENDBRANCH  19  29
ENDBRANCH  18  22
ENDBRANCH   1  18
TORSDOF 4
ENDMDL
MODEL 2
REMARK VINA RESULT:      -7.6      1.530      2.048
REMARK  Name = 
REMARK  5 active torsions:
REMARK  status: ('A' for Active; 'I' for Inactive)
REMARK    1  A    between atoms: C_1  and  O_2
REMARK    2  A    between atoms: O_2  and  C_3
REMARK    3  A    between atoms: C_8  and  C_9
REMARK    4  A    between atoms: C_12  and  C_13
REMARK    5  A    between atoms: C_13  and  N_14
REMARK                            x       y       z     vdW  Elec       q    Type
REMARK                         _______ _______ _______ _____ _____    ______ ____
ROOT
ATOM      1  N   UNL     1       0.786  11.254  20.077  0.00  0.00    +0.000 N 
ATOM      2  C   UNL     1       1.018  12.440  19.418  0.00  0.00    +0.000 C 
ATOM      3  O   UNL     1       1.389  12.621  18.290  0.00  0.00    +0.000 OA
ATOM      4  N   UNL     1       0.460  13.465  20.249  0.00  0.00    +0.000 N 
ATOM      5  C   UNL     1      -0.686  12.842  20.912  0.00  0.00    +0.000 C 
ATOM      6  C   UNL     1      -1.732  12.590  19.753  0.00  0.00    +0.000 C 
ATOM      7  C   UNL     1      -3.185  12.711  20.124  0.00  0.00    +0.000 C 
ATOM      8  O   UNL     1      -3.363  12.281  21.452  0.00  0.00    +0.000 OA
ATOM      9  C   UNL     1      -2.722  13.183  22.260  0.00  0.00    +0.000 A 
ATOM     10  C   UNL     1      -3.515  13.783  23.214  0.00  0.00    +0.000 A 
ATOM     11  C   UNL     1      -2.911  14.563  24.183  0.00  0.00    +0.000 A 
ATOM     12  C   UNL     1      -1.517  14.657  24.209  0.00  0.00    +0.000 A 
ATOM     13  C   UNL     1      -0.728  14.109  23.176  0.00  0.00    +0.000 A 
ATOM     14  C   UNL     1      -1.345  13.435  22.122  0.00  0.00    +0.000 A 
ATOM     15  C   UNL     1       0.100  11.569  21.220  0.00  0.00    +0.000 C 
ATOM     16  O   UNL     1       0.100  10.895  22.242  0.00  0.00    +0.000 OA
ATOM     17  H   UNL     1       0.384  14.385  19.834  0.00  0.00    +0.000 HD
ENDROOT
BRANCH   1  18
ATOM     18  C   UNL     1       0.321  10.038  19.460  0.00  0.00    +0.000 C 
BRANCH  18  22
ATOM     19  C   UNL     1       2.446   7.332  18.869  0.00  0.00    +0.000 A 
ATOM     20  N   UNL     1       2.260   7.159  20.189  0.00  0.00    +0.000 NA
ATOM     21  O   UNL     1       1.448   8.223  20.556  0.00  0.00    +0.000 OA
ATOM     22  C   UNL     1       1.287   8.960  19.430  0.00  0.00    +0.000 A 
ATOM     23  N   UNL     1       1.877   8.471  18.370  0.00  0.00    +0.000 NA
BRANCH  19  29
ATOM     24  C   UNL     1       2.876   5.096  17.881  0.00  0.00    +0.000 A 
ATOM     25  C   UNL     1       3.704   4.276  17.126  0.00  0.00    +0.000 A 
ATOM     26  C   UNL     1       4.833   4.796  16.485  0.00  0.00    +0.000 A 
ATOM     27  C   UNL     1       5.121   6.154  16.563  0.00  0.00    +0.000 A 
ATOM     28  C   UNL     1       4.307   6.983  17.313  0.00  0.00    +0.000 A 
ATOM     29  C   UNL     1       3.200   6.461  18.009  0.00  0.00    +0.000 A 
BRANCH  24  31
ATOM     30  C   UNL     1       1.523   3.256  18.444  0.00  0.00    +0.000 C 
ATOM     31  O   UNL     1       1.710   4.661  18.454  0.00  0.00    +0.000 OA
ENDBRANCH  24  31
ENDBRANCH  19  29
ENDBRANCH  18  22
ENDBRANCH   1  18
TORSDOF 4
ENDMDL
MODEL 3
REMARK VINA RESULT:      -7.5      2.115      2.761
REMARK  Name = 
REMARK  5 active torsions:
REMARK  status: ('A' for Active; 'I' for Inactive)
REMARK    1  A    between atoms: C_1  and  O_2
REMARK    2  A    between atoms: O_2  and  C_3
REMARK    3  A    between atoms: C_8  and  C_9
REMARK    4  A    between atoms: C_12  and  C_13
REMARK    5  A    between atoms: C_13  and  N_14
REMARK                            x       y       z     vdW  Elec       q    Type
REMARK                         _______ _______ _______ _____ _____    ______ ____
ROOT
ATOM      1  N   UNL     1       0.418  10.539  19.005  0.00  0.00    +0.000 N 
ATOM      2  C   UNL     1      -0.552  10.562  18.027  0.00  0.00    +0.000 C 
ATOM      3  O   UNL     1      -1.176   9.651  17.556  0.00  0.00    +0.000 OA
ATOM      4  N   UNL     1      -0.898  11.941  17.854  0.00  0.00    +0.000 N 
ATOM      5  C   UNL     1      -0.725  12.552  19.172  0.00  0.00    +0.000 C 
ATOM      6  C   UNL     1      -1.866  11.916  20.062  0.00  0.00    +0.000 C 
ATOM      7  C   UNL     1      -2.461  12.801  21.123  0.00  0.00    +0.000 C 
ATOM      8  O   UNL     1      -1.467  13.667  21.617  0.00  0.00    +0.000 OA
ATOM      9  C   UNL     1      -1.130  14.520  20.600  0.00  0.00    +0.000 A 
ATOM     10  C   UNL     1      -1.280  15.860  20.886  0.00  0.00    +0.000 A 
ATOM     11  C   UNL     1      -0.791  16.788  19.985  0.00  0.00    +0.000 A 
ATOM     12  C   UNL     1      -0.097  16.342  18.857  0.00  0.00    +0.000 A 
ATOM     13  C   UNL     1      -0.028  14.970  18.537  0.00  0.00    +0.000 A 
ATOM     14  C   UNL     1      -0.639  14.036  19.375  0.00  0.00    +0.000 A 
ATOM     15  C   UNL     1       0.605  11.837  19.401  0.00  0.00    +0.000 C 
ATOM     16  O   UNL     1       1.637  12.273  19.896  0.00  0.00    +0.000 OA
ATOM     17  H   UNL     1      -1.723  12.129  17.298  0.00  0.00    +0.000 HD
ENDROOT
BRANCH   1  18
ATOM     18  C   UNL     1       0.472   9.604  20.099  0.00  0.00    +0.000 C 
BRANCH  18  22
ATOM     19  C   UNL     1       2.492   6.934  19.111  0.00  0.00    +0.000 A 
ATOM     20  N   UNL     1       2.234   6.537  20.369  0.00  0.00    +0.000 NA
ATOM     21  O   UNL     1       1.457   7.562  20.891  0.00  0.00    +0.000 OA
ATOM     22  C   UNL     1       1.387   8.497  19.912  0.00  0.00    +0.000 A 
ATOM     23  N   UNL     1       2.003   8.174  18.805  0.00  0.00    +0.000 NA
BRANCH  19  29
ATOM     24  C   UNL     1       2.858   4.893  17.745  0.00  0.00    +0.000 A 
ATOM     25  C   UNL     1       3.681   4.176  16.887  0.00  0.00    +0.000 A 
ATOM     26  C   UNL     1       4.868   4.735  16.402  0.00  0.00    +0.000 A 
ATOM     27  C   UNL     1       5.222   6.036  16.743  0.00  0.00    +0.000 A 
ATOM     28  C   UNL     1       4.413   6.762  17.599  0.00  0.00    +0.000 A 
ATOM     29  C   UNL     1       3.245   6.190  18.137  0.00  0.00    +0.000 A 
BRANCH  24  31
ATOM     30  C   UNL     1       1.616   3.068  18.557  0.00  0.00    +0.000 C 
ATOM     31  O   UNL     1       1.642   4.434  18.177  0.00  0.00    +0.000 OA
ENDBRANCH  24  31
ENDBRANCH  19  29
ENDBRANCH  18  22
ENDBRANCH   1  18
TORSDOF 4
ENDMDL
MODEL 4
REMARK VINA RESULT:      -7.4      0.945      1.720
REMARK  Name = 
REMARK  5 active torsions:
REMARK  status: ('A' for Active; 'I' for Inactive)
REMARK    1  A    between atoms: C_1  and  O_2
REMARK    2  A    between atoms: O_2  and  C_3
REMARK    3  A    between atoms: C_8  and  C_9
REMARK    4  A    between atoms: C_12  and  C_13
REMARK    5  A    between atoms: C_13  and  N_14
REMARK                            x       y       z     vdW  Elec       q    Type
REMARK                         _______ _______ _______ _____ _____    ______ ____
ROOT
ATOM      1  N   UNL     1       1.240  10.428  19.084  0.00  0.00    +0.000 N 
ATOM      2  C   UNL     1       1.664  11.711  18.819  0.00  0.00    +0.000 C 
ATOM      3  O   UNL     1       2.502  12.088  18.046  0.00  0.00    +0.000 OA
ATOM      4  N   UNL     1       0.710  12.575  19.446  0.00  0.00    +0.000 N 
ATOM      5  C   UNL     1      -0.564  11.858  19.378  0.00  0.00    +0.000 C 
ATOM      6  C   UNL     1      -0.929  11.834  17.840  0.00  0.00    +0.000 C 
ATOM      7  C   UNL     1      -2.392  11.904  17.498  0.00  0.00    +0.000 C 
ATOM      8  O   UNL     1      -3.136  11.244  18.494  0.00  0.00    +0.000 OA
ATOM      9  C   UNL     1      -3.012  11.977  19.645  0.00  0.00    +0.000 A 
ATOM     10  C   UNL     1      -4.200  12.404  20.198  0.00  0.00    +0.000 A 
ATOM     11  C   UNL     1      -4.175  12.988  21.451  0.00  0.00    +0.000 A 
ATOM     12  C   UNL     1      -2.964  13.058  22.145  0.00  0.00    +0.000 A 
ATOM     13  C   UNL     1      -1.747  12.695  21.530  0.00  0.00    +0.000 A 
ATOM     14  C   UNL     1      -1.752  12.231  20.215  0.00  0.00    +0.000 A 
ATOM     15  C   UNL     1       0.080  10.540  19.804  0.00  0.00    +0.000 C 
ATOM     16  O   UNL     1      -0.345   9.692  20.578  0.00  0.00    +0.000 OA
ATOM     17  H   UNL     1       0.768  13.557  19.204  0.00  0.00    +0.000 HD
ENDROOT
BRANCH   1  18
ATOM     18  C   UNL     1       1.206   9.350  18.129  0.00  0.00    +0.000 C 
BRANCH  18  22
ATOM     19  C   UNL     1       3.525   6.741  18.058  0.00  0.00    +0.000 A 
ATOM     20  N   UNL     1       3.163   6.656  19.350  0.00  0.00    +0.000 NA
ATOM     21  O   UNL     1       2.256   7.693  19.514  0.00  0.00    +0.000 OA
ATOM     22  C   UNL     1       2.219   8.333  18.320  0.00  0.00    +0.000 A 
ATOM     23  N   UNL     1       2.976   7.804  17.394  0.00  0.00    +0.000 NA
BRANCH  19  29
ATOM     24  C   UNL     1       5.692   6.301  16.929  0.00  0.00    +0.000 A 
ATOM     25  C   UNL     1       6.484   5.436  16.185  0.00  0.00    +0.000 A 
ATOM     26  C   UNL     1       6.053   4.135  15.905  0.00  0.00    +0.000 A 
ATOM     27  C   UNL     1       4.838   3.676  16.403  0.00  0.00    +0.000 A 
ATOM     28  C   UNL     1       4.037   4.526  17.143  0.00  0.00    +0.000 A 
ATOM     29  C   UNL     1       4.435   5.855  17.383  0.00  0.00    +0.000 A 
BRANCH  24  31
ATOM     30  C   UNL     1       7.484   7.668  17.602  0.00  0.00    +0.000 C 
ATOM     31  O   UNL     1       6.101   7.551  17.311  0.00  0.00    +0.000 OA
ENDBRANCH  24  31
ENDBRANCH  19  29
ENDBRANCH  18  22
ENDBRANCH   1  18
TORSDOF 4
ENDMDL
MODEL 5
REMARK VINA RESULT:      -7.4      2.213      3.537
REMARK  Name = 
REMARK  5 active torsions:
REMARK  status: ('A' for Active; 'I' for Inactive)
REMARK    1  A    between atoms: C_1  and  O_2
REMARK    2  A    between atoms: O_2  and  C_3
REMARK    3  A    between atoms: C_8  and  C_9
REMARK    4  A    between atoms: C_12  and  C_13
REMARK    5  A    between atoms: C_13  and  N_14
REMARK                            x       y       z     vdW  Elec       q    Type
REMARK                         _______ _______ _______ _____ _____    ______ ____
ROOT
ATOM      1  N   UNL     1       0.762  10.513  18.542  0.00  0.00    +0.000 N 
ATOM      2  C   UNL     1      -0.561  10.582  18.162  0.00  0.00    +0.000 C 
ATOM      3  O   UNL     1      -1.346   9.691  17.986  0.00  0.00    +0.000 OA
ATOM      4  N   UNL     1      -0.930  11.960  18.283  0.00  0.00    +0.000 N 
ATOM      5  C   UNL     1      -0.131  12.479  19.393  0.00  0.00    +0.000 C 
ATOM      6  C   UNL     1      -0.704  11.752  20.674  0.00  0.00    +0.000 C 
ATOM      7  C   UNL     1      -0.698  12.543  21.953  0.00  0.00    +0.000 C 
ATOM      8  O   UNL     1       0.422  13.396  21.967  0.00  0.00    +0.000 OA
ATOM      9  C   UNL     1       0.234  14.329  20.981  0.00  0.00    +0.000 A 
ATOM     10  C   UNL     1       0.258  15.641  21.404  0.00  0.00    +0.000 A 
ATOM     11  C   UNL     1       0.260  16.643  20.451  0.00  0.00    +0.000 A 
ATOM     12  C   UNL     1       0.313  16.296  19.099  0.00  0.00    +0.000 A 
ATOM     13  C   UNL     1       0.200  14.953  18.684  0.00  0.00    +0.000 A 
ATOM     14  C   UNL     1       0.062  13.946  19.639  0.00  0.00    +0.000 A 
ATOM     15  C   UNL     1       1.134  11.783  18.894  0.00  0.00    +0.000 C 
ATOM     16  O   UNL     1       2.281  12.209  18.857  0.00  0.00    +0.000 OA
ATOM     17  H   UNL     1      -1.919  12.166  18.213  0.00  0.00    +0.000 HD
ENDROOT
BRANCH   1  18
ATOM     18  C   UNL     1       1.329   9.503  19.399  0.00  0.00    +0.000 C 
BRANCH  18  22
ATOM     19  C   UNL     1       2.789   6.553  18.236  0.00  0.00    +0.000 A 
ATOM     20  N   UNL     1       3.443   7.427  17.450  0.00  0.00    +0.000 NA
ATOM     21  O   UNL     1       2.905   8.658  17.796  0.00  0.00    +0.000 OA
ATOM     22  C   UNL     1       1.938   8.387  18.707  0.00  0.00    +0.000 A 
ATOM     23  N   UNL     1       1.816   7.121  19.011  0.00  0.00    +0.000 NA
BRANCH  19  29
ATOM     24  C   UNL     1       4.179   4.592  18.854  0.00  0.00    +0.000 A 
ATOM     25  C   UNL     1       4.399   3.223  18.767  0.00  0.00    +0.000 A 
ATOM     26  C   UNL     1       3.472   2.389  18.132  0.00  0.00    +0.000 A 
ATOM     27  C   UNL     1       2.295   2.916  17.612  0.00  0.00    +0.000 A 
ATOM     28  C   UNL     1       2.062   4.278  17.689  0.00  0.00    +0.000 A 
ATOM     29  C   UNL     1       3.014   5.134  18.277  0.00  0.00    +0.000 A 
BRANCH  24  31
ATOM     30  C   UNL     1       6.360   5.427  19.132  0.00  0.00    +0.000 C 
ATOM     31  O   UNL     1       5.003   5.442  19.543  0.00  0.00    +0.000 OA
ENDBRANCH  24  31
ENDBRANCH  19  29
ENDBRANCH  18  22
ENDBRANCH   1  18
TORSDOF 4
ENDMDL
MODEL 6
REMARK VINA RESULT:      -7.4      5.604      8.038
REMARK  Name = 
REMARK  5 active torsions:
REMARK  status: ('A' for Active; 'I' for Inactive)
REMARK    1  A    between atoms: C_1  and  O_2
REMARK    2  A    between atoms: O_2  and  C_3
REMARK    3  A    between atoms: C_8  and  C_9
REMARK    4  A    between atoms: C_12  and  C_13
REMARK    5  A    between atoms: C_13  and  N_14
REMARK                            x       y       z     vdW  Elec       q    Type
REMARK                         _______ _______ _______ _____ _____    ______ ____
ROOT
ATOM      1  N   UNL     1       5.764   4.935  17.261  0.00  0.00    +0.000 N 
ATOM      2  C   UNL     1       6.509   5.344  18.345  0.00  0.00    +0.000 C 
ATOM      3  O   UNL     1       7.385   6.163  18.398  0.00  0.00    +0.000 OA
ATOM      4  N   UNL     1       5.852   4.802  19.497  0.00  0.00    +0.000 N 
ATOM      5  C   UNL     1       4.430   4.776  19.153  0.00  0.00    +0.000 C 
ATOM      6  C   UNL     1       4.007   6.297  19.076  0.00  0.00    +0.000 C 
ATOM      7  C   UNL     1       2.606   6.627  19.510  0.00  0.00    +0.000 C 
ATOM      8  O   UNL     1       1.753   5.556  19.183  0.00  0.00    +0.000 OA
ATOM      9  C   UNL     1       2.119   4.492  19.965  0.00  0.00    +0.000 A 
ATOM     10  C   UNL     1       1.116   3.973  20.755  0.00  0.00    +0.000 A 
ATOM     11  C   UNL     1       1.351   2.792  21.434  0.00  0.00    +0.000 A 
ATOM     12  C   UNL     1       2.563   2.124  21.238  0.00  0.00    +0.000 A 
ATOM     13  C   UNL     1       3.609   2.712  20.496  0.00  0.00    +0.000 A 
ATOM     14  C   UNL     1       3.424   3.969  19.921  0.00  0.00    +0.000 A 
ATOM     15  C   UNL     1       4.709   4.218  17.759  0.00  0.00    +0.000 C 
ATOM     16  O   UNL     1       4.102   3.351  17.143  0.00  0.00    +0.000 OA
ATOM     17  H   UNL     1       6.164   5.150  20.395  0.00  0.00    +0.000 HD
ENDROOT
BRANCH   1  18
ATOM     18  C   UNL     1       5.398   5.768  16.143  0.00  0.00    +0.000 C 
BRANCH  18  22
ATOM     19  C   UNL     1       6.469   4.175  13.227  0.00  0.00    +0.000 A 
ATOM     20  N   UNL     1       7.398   5.146  13.281  0.00  0.00    +0.000 NA
ATOM     21  O   UNL     1       7.044   5.888  14.399  0.00  0.00    +0.000 OA
ATOM     22  C   UNL     1       5.902   5.323  14.860  0.00  0.00    +0.000 A 
ATOM     23  N   UNL     1       5.498   4.279  14.184  0.00  0.00    +0.000 NA
BRANCH  19  29
ATOM     24  C   UNL     1       5.203   2.724  11.661  0.00  0.00    +0.000 A 
ATOM     25  C   UNL     1       5.194   1.625  10.811  0.00  0.00    +0.000 A 
ATOM     26  C   UNL     1       6.374   0.929  10.531  0.00  0.00    +0.000 A 
ATOM     27  C   UNL     1       7.584   1.353  11.070  0.00  0.00    +0.000 A 
ATOM     28  C   UNL     1       7.609   2.444  11.920  0.00  0.00    +0.000 A 
ATOM     29  C   UNL     1       6.419   3.118  12.253  0.00  0.00    +0.000 A 
BRANCH  24  31
ATOM     30  C   UNL     1       3.284   3.746  10.763  0.00  0.00    +0.000 C 
ATOM     31  O   UNL     1       4.098   3.498  11.898  0.00  0.00    +0.000 OA
ENDBRANCH  24  31
ENDBRANCH  19  29
ENDBRANCH  18  22
ENDBRANCH   1  18
TORSDOF 4
ENDMDL
MODEL 7
REMARK VINA RESULT:      -7.4      1.230      2.061
REMARK  Name = 
REMARK  5 active torsions:
REMARK  status: ('A' for Active; 'I' for Inactive)
REMARK    1  A    between atoms: C_1  and  O_2
REMARK    2  A    between atoms: O_2  and  C_3
REMARK    3  A    between atoms: C_8  and  C_9
REMARK    4  A    between atoms: C_12  and  C_13
REMARK    5  A    between atoms: C_13  and  N_14
REMARK                            x       y       z     vdW  Elec       q    Type
REMARK                         _______ _______ _______ _____ _____    ______ ____
ROOT
ATOM      1  N   UNL     1       1.147  10.465  19.060  0.00  0.00    +0.000 N 
ATOM      2  C   UNL     1       1.548  11.767  18.857  0.00  0.00    +0.000 C 
ATOM      3  O   UNL     1       2.435  12.188  18.168  0.00  0.00    +0.000 OA
ATOM      4  N   UNL     1       0.513  12.585  19.416  0.00  0.00    +0.000 N 
ATOM      5  C   UNL     1      -0.724  11.828  19.224  0.00  0.00    +0.000 C 
ATOM      6  C   UNL     1      -0.955  11.826  17.660  0.00  0.00    +0.000 C 
ATOM      7  C   UNL     1      -2.385  11.856  17.193  0.00  0.00    +0.000 C 
ATOM      8  O   UNL     1      -3.188  11.150  18.108  0.00  0.00    +0.000 OA
ATOM      9  C   UNL     1      -3.189  11.860  19.280  0.00  0.00    +0.000 A 
ATOM     10  C   UNL     1      -4.434  12.235  19.736  0.00  0.00    +0.000 A 
ATOM     11  C   UNL     1      -4.537  12.792  20.998  0.00  0.00    +0.000 A 
ATOM     12  C   UNL     1      -3.393  12.886  21.796  0.00  0.00    +0.000 A 
ATOM     13  C   UNL     1      -2.117  12.578  21.282  0.00  0.00    +0.000 A 
ATOM     14  C   UNL     1      -1.992  12.143  19.962  0.00  0.00    +0.000 A 
ATOM     15  C   UNL     1      -0.074  10.523  19.679  0.00  0.00    +0.000 C 
ATOM     16  O   UNL     1      -0.534   9.644  20.396  0.00  0.00    +0.000 OA
ATOM     17  H   UNL     1       0.558  13.573  19.199  0.00  0.00    +0.000 HD
ENDROOT
BRANCH   1  18
ATOM     18  C   UNL     1       1.233   9.408  18.085  0.00  0.00    +0.000 C 
BRANCH  18  22
ATOM     19  C   UNL     1       2.389   6.205  18.854  0.00  0.00    +0.000 A 
ATOM     20  N   UNL     1       2.463   6.748  20.082  0.00  0.00    +0.000 NA
ATOM     21  O   UNL     1       2.061   8.062  19.893  0.00  0.00    +0.000 OA
ATOM     22  C   UNL     1       1.851   8.188  18.559  0.00  0.00    +0.000 A 
ATOM     23  N   UNL     1       2.041   7.092  17.873  0.00  0.00    +0.000 NA
BRANCH  19  29
ATOM     24  C   UNL     1       3.949   4.442  18.066  0.00  0.00    +0.000 A 
ATOM     25  C   UNL     1       4.141   3.129  17.657  0.00  0.00    +0.000 A 
ATOM     26  C   UNL     1       3.095   2.202  17.716  0.00  0.00    +0.000 A 
ATOM     27  C   UNL     1       1.855   2.575  18.224  0.00  0.00    +0.000 A 
ATOM     28  C   UNL     1       1.648   3.879  18.633  0.00  0.00    +0.000 A 
ATOM     29  C   UNL     1       2.677   4.835  18.526  0.00  0.00    +0.000 A 
BRANCH  24  31
ATOM     30  C   UNL     1       5.908   5.163  19.151  0.00  0.00    +0.000 C 
ATOM     31  O   UNL     1       4.958   5.367  18.118  0.00  0.00    +0.000 OA
ENDBRANCH  24  31
ENDBRANCH  19  29
ENDBRANCH  18  22
ENDBRANCH   1  18
TORSDOF 4
ENDMDL
MODEL 8
REMARK VINA RESULT:      -7.4      2.637      4.020
REMARK  Name = 
REMARK  5 active torsions:
REMARK  status: ('A' for Active; 'I' for Inactive)
REMARK    1  A    between atoms: C_1  and  O_2
REMARK    2  A    between atoms: O_2  and  C_3
REMARK    3  A    between atoms: C_8  and  C_9
REMARK    4  A    between atoms: C_12  and  C_13
REMARK    5  A    between atoms: C_13  and  N_14
REMARK                            x       y       z     vdW  Elec       q    Type
REMARK                         _______ _______ _______ _____ _____    ______ ____
ROOT
ATOM      1  N   UNL     1       0.668  10.864  20.104  0.00  0.00    +0.000 N 
ATOM      2  C   UNL     1      -0.514  10.993  19.410  0.00  0.00    +0.000 C 
ATOM      3  O   UNL     1      -1.233  10.138  18.970  0.00  0.00    +0.000 OA
ATOM      4  N   UNL     1      -0.896  12.367  19.543  0.00  0.00    +0.000 N 
ATOM      5  C   UNL     1      -0.403  12.780  20.857  0.00  0.00    +0.000 C 
ATOM      6  C   UNL     1      -1.286  11.972  21.889  0.00  0.00    +0.000 C 
ATOM      7  C   UNL     1      -1.602  12.662  23.187  0.00  0.00    +0.000 C 
ATOM      8  O   UNL     1      -0.519  13.484  23.552  0.00  0.00    +0.000 OA
ATOM      9  C   UNL     1      -0.447  14.494  22.629  0.00  0.00    +0.000 A 
ATOM     10  C   UNL     1      -0.525  15.769  23.147  0.00  0.00    +0.000 A 
ATOM     11  C   UNL     1      -0.278  16.841  22.310  0.00  0.00    +0.000 A 
ATOM     12  C   UNL     1       0.116  16.597  20.991  0.00  0.00    +0.000 A 
ATOM     13  C   UNL     1       0.107  15.293  20.455  0.00  0.00    +0.000 A 
ATOM     14  C   UNL     1      -0.274  14.219  21.261  0.00  0.00    +0.000 A 
ATOM     15  C   UNL     1       0.944  12.094  20.640  0.00  0.00    +0.000 C 
ATOM     16  O   UNL     1       2.065  12.494  20.929  0.00  0.00    +0.000 OA
ATOM     17  H   UNL     1      -1.834  12.602  19.242  0.00  0.00    +0.000 HD
ENDROOT
BRANCH   1  18
ATOM     18  C   UNL     1       0.995   9.778  20.994  0.00  0.00    +0.000 C 
BRANCH  18  22
ATOM     19  C   UNL     1       1.996   6.608  19.930  0.00  0.00    +0.000 A 
ATOM     20  N   UNL     1       2.386   7.315  18.855  0.00  0.00    +0.000 NA
ATOM     21  O   UNL     1       1.994   8.613  19.147  0.00  0.00    +0.000 OA
ATOM     22  C   UNL     1       1.350   8.537  20.337  0.00  0.00    +0.000 A 
ATOM     23  N   UNL     1       1.313   7.340  20.861  0.00  0.00    +0.000 NA
BRANCH  19  29
ATOM     24  C   UNL     1       3.467   4.608  19.910  0.00  0.00    +0.000 A 
ATOM     25  C   UNL     1       3.589   3.228  20.005  0.00  0.00    +0.000 A 
ATOM     26  C   UNL     1       2.484   2.434  20.328  0.00  0.00    +0.000 A 
ATOM     27  C   UNL     1       1.252   3.021  20.599  0.00  0.00    +0.000 A 
ATOM     28  C   UNL     1       1.115   4.394  20.506  0.00  0.00    +0.000 A 
ATOM     29  C   UNL     1       2.207   5.199  20.126  0.00  0.00    +0.000 A 
BRANCH  24  31
ATOM     30  C   UNL     1       5.592   4.874  18.937  0.00  0.00    +0.000 C 
ATOM     31  O   UNL     1       4.531   5.442  19.688  0.00  0.00    +0.000 OA
ENDBRANCH  24  31
ENDBRANCH  19  29
ENDBRANCH  18  22
ENDBRANCH   1  18
TORSDOF 4
ENDMDL
MODEL 9
REMARK VINA RESULT:      -7.3      6.953      9.093
REMARK  Name = 
REMARK  5 active torsions:
REMARK  status: ('A' for Active; 'I' for Inactive)
REMARK    1  A    between atoms: C_1  and  O_2
REMARK    2  A    between atoms: O_2  and  C_3
REMARK    3  A    between atoms: C_8  and  C_9
REMARK    4  A    between atoms: C_12  and  C_13
REMARK    5  A    between atoms: C_13  and  N_14
REMARK                            x       y       z     vdW  Elec       q    Type
REMARK                         _______ _______ _______ _____ _____    ______ ____
ROOT
ATOM      1  N   UNL     1       8.515  10.832  18.394  0.00  0.00    +0.000 N 
ATOM      2  C   UNL     1       9.047  10.952  19.659  0.00  0.00    +0.000 C 
ATOM      3  O   UNL     1       9.442  10.094  20.400  0.00  0.00    +0.000 OA
ATOM      4  N   UNL     1       9.311  12.348  19.840  0.00  0.00    +0.000 N 
ATOM      5  C   UNL     1       9.650  12.853  18.509  0.00  0.00    +0.000 C 
ATOM      6  C   UNL     1      11.038  12.179  18.166  0.00  0.00    +0.000 C 
ATOM      7  C   UNL     1      11.993  12.995  17.339  0.00  0.00    +0.000 C 
ATOM      8  O   UNL     1      11.264  13.797  16.441  0.00  0.00    +0.000 OA
ATOM      9  C   UNL     1      10.574  14.717  17.186  0.00  0.00    +0.000 A 
ATOM     10  C   UNL     1      10.829  16.034  16.872  0.00  0.00    +0.000 A 
ATOM     11  C   UNL     1      10.043  17.016  17.447  0.00  0.00    +0.000 A 
ATOM     12  C   UNL     1       8.973  16.639  18.264  0.00  0.00    +0.000 A 
ATOM     13  C   UNL     1       8.781  15.295  18.642  0.00  0.00    +0.000 A 
ATOM     14  C   UNL     1       9.656  14.315  18.172  0.00  0.00    +0.000 A 
ATOM     15  C   UNL     1       8.499  12.091  17.855  0.00  0.00    +0.000 C 
ATOM     16  O   UNL     1       7.732  12.463  16.977  0.00  0.00    +0.000 OA
ATOM     17  H   UNL     1       9.868  12.597  20.648  0.00  0.00    +0.000 HD
ENDROOT
BRANCH   1  18
ATOM     18  C   UNL     1       8.871   9.815  17.437  0.00  0.00    +0.000 C 
BRANCH  18  22
ATOM     19  C   UNL     1       7.043   6.878  17.905  0.00  0.00    +0.000 A 
ATOM     20  N   UNL     1       7.895   6.753  18.938  0.00  0.00    +0.000 NA
ATOM     21  O   UNL     1       8.719   7.864  18.829  0.00  0.00    +0.000 OA
ATOM     22  C   UNL     1       8.316   8.504  17.704  0.00  0.00    +0.000 A 
ATOM     23  N   UNL     1       7.303   7.948  17.094  0.00  0.00    +0.000 NA
BRANCH  19  29
ATOM     24  C   UNL     1       6.036   5.083  16.517  0.00  0.00    +0.000 A 
ATOM     25  C   UNL     1       4.921   4.319  16.198  0.00  0.00    +0.000 A 
ATOM     26  C   UNL     1       3.746   4.423  16.949  0.00  0.00    +0.000 A 
ATOM     27  C   UNL     1       3.690   5.266  18.054  0.00  0.00    +0.000 A 
ATOM     28  C   UNL     1       4.791   6.035  18.382  0.00  0.00    +0.000 A 
ATOM     29  C   UNL     1       5.961   5.981  17.600  0.00  0.00    +0.000 A 
BRANCH  24  31
ATOM     30  C   UNL     1       7.162   4.860  14.464  0.00  0.00    +0.000 C 
ATOM     31  O   UNL     1       7.240   4.957  15.876  0.00  0.00    +0.000 OA
ENDBRANCH  24  31
ENDBRANCH  19  29
ENDBRANCH  18  22
ENDBRANCH   1  18
TORSDOF 4
ENDMDL
