MODEL 1
REMARK VINA RESULT:      -9.0      0.000      0.000
REMARK  Name = 
REMARK  7 active torsions:
REMARK  status: ('A' for Active; 'I' for Inactive)
REMARK    1  A    between atoms: C_1  and  C_2
REMARK    2  A    between atoms: C_6  and  C_8
REMARK    3  A    between atoms: C_8  and  C_9
REMARK    4  A    between atoms: C_8  and  S_10
REMARK    5  A    between atoms: S_10  and  C_11
REMARK    6  A    between atoms: C_14  and  C_15
REMARK    7  A    between atoms: N_24  and  C_25
REMARK                            x       y       z     vdW  Elec       q    Type
REMARK                         _______ _______ _______ _____ _____    ______ ____
ROOT
ATOM      1  C   UNL     1       3.672   5.717  18.315  0.00  0.00    +0.000 A 
ATOM      2  N   UNL     1       4.052   6.594  17.417  0.00  0.00    +0.000 NA
ATOM      3  N   UNL     1       3.279   7.713  17.582  0.00  0.00    +0.000 NA
ATOM      4  C   UNL     1       2.497   7.548  18.640  0.00  0.00    +0.000 A 
ATOM      5  N   UNL     1       2.714   6.275  19.132  0.00  0.00    +0.000 N 
ENDROOT
BRANCH   4   6
ATOM      6  C   UNL     1       1.528   8.618  19.037  0.00  0.00    +0.000 A 
ATOM      7  C   UNL     1       1.101   9.543  18.102  0.00  0.00    +0.000 A 
ATOM      8  N   UNL     1       0.287  10.443  18.722  0.00  0.00    +0.000 N 
ATOM      9  C   UNL     1       0.261  10.194  20.074  0.00  0.00    +0.000 A 
ATOM     10  C   UNL     1      -0.321  10.954  21.097  0.00  0.00    +0.000 A 
ATOM     11  C   UNL     1      -0.161  10.508  22.409  0.00  0.00    +0.000 A 
ATOM     12  C   UNL     1       0.525   9.329  22.677  0.00  0.00    +0.000 A 
ATOM     13  C   UNL     1       1.097   8.577  21.639  0.00  0.00    +0.000 A 
ATOM     14  C   UNL     1       0.982   9.012  20.301  0.00  0.00    +0.000 A 
ATOM     15  H   UNL     1      -0.168  11.227  18.272  0.00  0.00    +0.000 HD
ENDBRANCH   4   6
BRANCH   5  16
ATOM     16  C   UNL     1       1.994   5.649  20.212  0.00  0.00    +0.000 C 
ATOM     17  C   UNL     1       2.407   4.424  20.982  0.00  0.00    +0.000 C 
ATOM     18  C   UNL     1       1.214   4.369  20.065  0.00  0.00    +0.000 C 
ENDBRANCH   5  16
BRANCH   1  19
ATOM     19  S   UNL     1       4.256   4.090  18.343  0.00  0.00    +0.000 S 
BRANCH  19  20
ATOM     20  C   UNL     1       6.043   4.304  18.643  0.00  0.00    +0.000 C 
ATOM     21  C   UNL     1       6.224   5.408  19.688  0.00  0.00    +0.000 C 
BRANCH  20  27
ATOM     22  C   UNL     1       7.076   4.218  11.286  0.00  0.00    +0.000 C 
ATOM     23  C   UNL     1       6.982   4.374  12.747  0.00  0.00    +0.000 A 
ATOM     24  C   UNL     1       6.248   3.786  13.751  0.00  0.00    +0.000 A 
ATOM     25  C   UNL     1       6.684   4.429  14.937  0.00  0.00    +0.000 A 
ATOM     26  N   UNL     1       6.214   4.145  16.210  0.00  0.00    +0.000 N 
ATOM     27  C   UNL     1       6.723   4.746  17.350  0.00  0.00    +0.000 C 
ATOM     28  O   UNL     1       7.640   5.564  17.374  0.00  0.00    +0.000 OA
ATOM     29  N   UNL     1       7.606   5.352  14.649  0.00  0.00    +0.000 NA
ATOM     30  O   UNL     1       7.796   5.313  13.289  0.00  0.00    +0.000 OA
ATOM     31  H   UNL     1       5.492   3.443  16.281  0.00  0.00    +0.000 HD
ENDBRANCH  20  27
ENDBRANCH  19  20
ENDBRANCH   1  19
TORSDOF 5
ENDMDL
MODEL 2
REMARK VINA RESULT:      -9.0      1.994      3.020
REMARK  Name = 
REMARK  7 active torsions:
REMARK  status: ('A' for Active; 'I' for Inactive)
REMARK    1  A    between atoms: C_1  and  C_2
REMARK    2  A    between atoms: C_6  and  C_8
REMARK    3  A    between atoms: C_8  and  C_9
REMARK    4  A    between atoms: C_8  and  S_10
REMARK    5  A    between atoms: S_10  and  C_11
REMARK    6  A    between atoms: C_14  and  C_15
REMARK    7  A    between atoms: N_24  and  C_25
REMARK                            x       y       z     vdW  Elec       q    Type
REMARK                         _______ _______ _______ _____ _____    ______ ____
ROOT
ATOM      1  C   UNL     1       2.569   6.684  19.334  0.00  0.00    +0.000 A 
ATOM      2  N   UNL     1       2.970   6.902  18.104  0.00  0.00    +0.000 NA
ATOM      3  N   UNL     1       2.419   8.087  17.696  0.00  0.00    +0.000 NA
ATOM      4  C   UNL     1       1.762   8.632  18.710  0.00  0.00    +0.000 A 
ATOM      5  N   UNL     1       1.829   7.757  19.777  0.00  0.00    +0.000 N 
ENDROOT
BRANCH   4   6
ATOM      6  C   UNL     1       1.041   9.933  18.532  0.00  0.00    +0.000 A 
ATOM      7  C   UNL     1       1.680  11.122  18.832  0.00  0.00    +0.000 A 
ATOM      8  N   UNL     1       0.798  12.145  18.653  0.00  0.00    +0.000 N 
ATOM      9  C   UNL     1      -0.445  11.642  18.350  0.00  0.00    +0.000 A 
ATOM     10  C   UNL     1      -1.665  12.321  18.233  0.00  0.00    +0.000 A 
ATOM     11  C   UNL     1      -2.806  11.566  17.966  0.00  0.00    +0.000 A 
ATOM     12  C   UNL     1      -2.719  10.190  17.789  0.00  0.00    +0.000 A 
ATOM     13  C   UNL     1      -1.488   9.526  17.903  0.00  0.00    +0.000 A 
ATOM     14  C   UNL     1      -0.316  10.252  18.203  0.00  0.00    +0.000 A 
ATOM     15  H   UNL     1       1.002  13.125  18.799  0.00  0.00    +0.000 HD
ENDBRANCH   4   6
BRANCH   5  16
ATOM     16  C   UNL     1       1.160   7.911  21.044  0.00  0.00    +0.000 C 
ATOM     17  C   UNL     1       0.022   8.847  21.355  0.00  0.00    +0.000 C 
ATOM     18  C   UNL     1       1.379   9.080  21.968  0.00  0.00    +0.000 C 
ENDBRANCH   5  16
BRANCH   1  19
ATOM     19  S   UNL     1       2.877   5.203  20.172  0.00  0.00    +0.000 S 
BRANCH  19  20
ATOM     20  C   UNL     1       3.032   3.993  18.815  0.00  0.00    +0.000 C 
ATOM     21  C   UNL     1       2.884   2.589  19.406  0.00  0.00    +0.000 C 
BRANCH  20  27
ATOM     22  C   UNL     1       7.724   5.058  13.154  0.00  0.00    +0.000 C 
ATOM     23  C   UNL     1       6.937   4.855  14.381  0.00  0.00    +0.000 A 
ATOM     24  C   UNL     1       5.598   4.756  14.683  0.00  0.00    +0.000 A 
ATOM     25  C   UNL     1       5.561   4.549  16.085  0.00  0.00    +0.000 A 
ATOM     26  N   UNL     1       4.405   4.385  16.831  0.00  0.00    +0.000 N 
ATOM     27  C   UNL     1       4.419   4.110  18.189  0.00  0.00    +0.000 C 
ATOM     28  O   UNL     1       5.429   3.960  18.874  0.00  0.00    +0.000 OA
ATOM     29  N   UNL     1       6.801   4.543  16.583  0.00  0.00    +0.000 NA
ATOM     30  O   UNL     1       7.656   4.725  15.523  0.00  0.00    +0.000 OA
ATOM     31  H   UNL     1       3.529   4.443  16.331  0.00  0.00    +0.000 HD
ENDBRANCH  20  27
ENDBRANCH  19  20
ENDBRANCH   1  19
TORSDOF 5
ENDMDL
MODEL 3
REMARK VINA RESULT:      -8.7      1.022      1.678
REMARK  Name = 
REMARK  7 active torsions:
REMARK  status: ('A' for Active; 'I' for Inactive)
REMARK    1  A    between atoms: C_1  and  C_2
REMARK    2  A    between atoms: C_6  and  C_8
REMARK    3  A    between atoms: C_8  and  C_9
REMARK    4  A    between atoms: C_8  and  S_10
REMARK    5  A    between atoms: S_10  and  C_11
REMARK    6  A    between atoms: C_14  and  C_15
REMARK    7  A    between atoms: N_24  and  C_25
REMARK                            x       y       z     vdW  Elec       q    Type
REMARK                         _______ _______ _______ _____ _____    ______ ____
ROOT
ATOM      1  C   UNL     1       3.125   5.817  18.448  0.00  0.00    +0.000 A 
ATOM      2  N   UNL     1       3.455   6.837  17.691  0.00  0.00    +0.000 NA
ATOM      3  N   UNL     1       2.829   7.945  18.197  0.00  0.00    +0.000 NA
ATOM      4  C   UNL     1       2.196   7.613  19.314  0.00  0.00    +0.000 A 
ATOM      5  N   UNL     1       2.356   6.254  19.504  0.00  0.00    +0.000 N 
ENDROOT
BRANCH   4   6
ATOM      6  C   UNL     1       1.406   8.638  20.067  0.00  0.00    +0.000 A 
ATOM      7  C   UNL     1       1.358   8.594  21.448  0.00  0.00    +0.000 A 
ATOM      8  N   UNL     1       0.527   9.582  21.885  0.00  0.00    +0.000 N 
ATOM      9  C   UNL     1      -0.063  10.204  20.811  0.00  0.00    +0.000 A 
ATOM     10  C   UNL     1      -1.084  11.164  20.801  0.00  0.00    +0.000 A 
ATOM     11  C   UNL     1      -1.549  11.606  19.563  0.00  0.00    +0.000 A 
ATOM     12  C   UNL     1      -0.988  11.129  18.384  0.00  0.00    +0.000 A 
ATOM     13  C   UNL     1       0.039  10.172  18.411  0.00  0.00    +0.000 A 
ATOM     14  C   UNL     1       0.515   9.678  19.645  0.00  0.00    +0.000 A 
ATOM     15  H   UNL     1       0.311   9.779  22.854  0.00  0.00    +0.000 HD
ENDBRANCH   4   6
BRANCH   5  16
ATOM     16  C   UNL     1       1.743   5.465  20.541  0.00  0.00    +0.000 C 
ATOM     17  C   UNL     1       2.245   4.160  21.099  0.00  0.00    +0.000 C 
ATOM     18  C   UNL     1       0.980   4.192  20.282  0.00  0.00    +0.000 C 
ENDBRANCH   5  16
BRANCH   1  19
ATOM     19  S   UNL     1       3.544   4.186  18.059  0.00  0.00    +0.000 S 
BRANCH  19  20
ATOM     20  C   UNL     1       5.300   4.090  18.546  0.00  0.00    +0.000 C 
ATOM     21  C   UNL     1       5.513   5.007  19.752  0.00  0.00    +0.000 C 
BRANCH  20  27
ATOM     22  C   UNL     1       7.385   4.446  11.424  0.00  0.00    +0.000 C 
ATOM     23  C   UNL     1       7.084   4.510  12.864  0.00  0.00    +0.000 A 
ATOM     24  C   UNL     1       6.198   3.884  13.709  0.00  0.00    +0.000 A 
ATOM     25  C   UNL     1       6.474   4.432  14.987  0.00  0.00    +0.000 A 
ATOM     26  N   UNL     1       5.817   4.083  16.157  0.00  0.00    +0.000 N 
ATOM     27  C   UNL     1       6.172   4.590  17.397  0.00  0.00    +0.000 C 
ATOM     28  O   UNL     1       7.097   5.371  17.609  0.00  0.00    +0.000 OA
ATOM     29  N   UNL     1       7.451   5.339  14.899  0.00  0.00    +0.000 NA
ATOM     30  O   UNL     1       7.836   5.381  13.580  0.00  0.00    +0.000 OA
ATOM     31  H   UNL     1       5.074   3.404  16.076  0.00  0.00    +0.000 HD
ENDBRANCH  20  27
ENDBRANCH  19  20
ENDBRANCH   1  19
TORSDOF 5
ENDMDL
MODEL 4
REMARK VINA RESULT:      -8.6      2.110      3.180
REMARK  Name = 
REMARK  7 active torsions:
REMARK  status: ('A' for Active; 'I' for Inactive)
REMARK    1  A    between atoms: C_1  and  C_2
REMARK    2  A    between atoms: C_6  and  C_8
REMARK    3  A    between atoms: C_8  and  C_9
REMARK    4  A    between atoms: C_8  and  S_10
REMARK    5  A    between atoms: S_10  and  C_11
REMARK    6  A    between atoms: C_14  and  C_15
REMARK    7  A    between atoms: N_24  and  C_25
REMARK                            x       y       z     vdW  Elec       q    Type
REMARK                         _______ _______ _______ _____ _____    ______ ____
ROOT
ATOM      1  C   UNL     1       2.396   7.185  19.375  0.00  0.00    +0.000 A 
ATOM      2  N   UNL     1       2.741   7.466  18.141  0.00  0.00    +0.000 NA
ATOM      3  N   UNL     1       2.079   8.608  17.778  0.00  0.00    +0.000 NA
ATOM      4  C   UNL     1       1.407   9.071  18.824  0.00  0.00    +0.000 A 
ATOM      5  N   UNL     1       1.580   8.180  19.866  0.00  0.00    +0.000 N 
ENDROOT
BRANCH   4   6
ATOM      6  C   UNL     1       0.573  10.308  18.699  0.00  0.00    +0.000 A 
ATOM      7  C   UNL     1      -0.651  10.252  18.058  0.00  0.00    +0.000 A 
ATOM      8  N   UNL     1      -1.176  11.509  18.015  0.00  0.00    +0.000 N 
ATOM      9  C   UNL     1      -0.268  12.411  18.515  0.00  0.00    +0.000 A 
ATOM     10  C   UNL     1      -0.331  13.811  18.524  0.00  0.00    +0.000 A 
ATOM     11  C   UNL     1       0.756  14.507  19.050  0.00  0.00    +0.000 A 
ATOM     12  C   UNL     1       1.847  13.825  19.577  0.00  0.00    +0.000 A 
ATOM     13  C   UNL     1       1.892  12.422  19.566  0.00  0.00    +0.000 A 
ATOM     14  C   UNL     1       0.823  11.683  19.015  0.00  0.00    +0.000 A 
ATOM     15  H   UNL     1      -2.067  11.756  17.604  0.00  0.00    +0.000 HD
ENDBRANCH   4   6
BRANCH   5  16
ATOM     16  C   UNL     1       0.937   8.246  21.154  0.00  0.00    +0.000 C 
ATOM     17  C   UNL     1      -0.089   9.253  21.599  0.00  0.00    +0.000 C 
ATOM     18  C   UNL     1       1.287   9.260  22.211  0.00  0.00    +0.000 C 
ENDBRANCH   5  16
BRANCH   1  19
ATOM     19  S   UNL     1       2.854   5.717  20.166  0.00  0.00    +0.000 S 
BRANCH  19  20
ATOM     20  C   UNL     1       2.848   4.503  18.804  0.00  0.00    +0.000 C 
ATOM     21  C   UNL     1       2.484   3.134  19.385  0.00  0.00    +0.000 C 
BRANCH  20  27
ATOM     22  C   UNL     1       7.756   5.060  13.256  0.00  0.00    +0.000 C 
ATOM     23  C   UNL     1       6.923   4.927  14.462  0.00  0.00    +0.000 A 
ATOM     24  C   UNL     1       5.583   5.043  14.746  0.00  0.00    +0.000 A 
ATOM     25  C   UNL     1       5.485   4.768  16.133  0.00  0.00    +0.000 A 
ATOM     26  N   UNL     1       4.303   4.763  16.858  0.00  0.00    +0.000 N 
ATOM     27  C   UNL     1       4.246   4.415  18.198  0.00  0.00    +0.000 C 
ATOM     28  O   UNL     1       5.202   4.057  18.882  0.00  0.00    +0.000 OA
ATOM     29  N   UNL     1       6.696   4.522  16.641  0.00  0.00    +0.000 NA
ATOM     30  O   UNL     1       7.589   4.614  15.601  0.00  0.00    +0.000 OA
ATOM     31  H   UNL     1       3.460   4.997  16.354  0.00  0.00    +0.000 HD
ENDBRANCH  20  27
ENDBRANCH  19  20
ENDBRANCH   1  19
TORSDOF 5
ENDMDL
MODEL 5
REMARK VINA RESULT:      -8.6      2.416      3.631
REMARK  Name = 
REMARK  7 active torsions:
REMARK  status: ('A' for Active; 'I' for Inactive)
REMARK    1  A    between atoms: C_1  and  C_2
REMARK    2  A    between atoms: C_6  and  C_8
REMARK    3  A    between atoms: C_8  and  C_9
REMARK    4  A    between atoms: C_8  and  S_10
REMARK    5  A    between atoms: S_10  and  C_11
REMARK    6  A    between atoms: C_14  and  C_15
REMARK    7  A    between atoms: N_24  and  C_25
REMARK                            x       y       z     vdW  Elec       q    Type
REMARK                         _______ _______ _______ _____ _____    ______ ____
ROOT
ATOM      1  C   UNL     1       2.375   7.679  19.068  0.00  0.00    +0.000 A 
ATOM      2  N   UNL     1       2.664   8.114  17.864  0.00  0.00    +0.000 NA
ATOM      3  N   UNL     1       1.844   9.178  17.602  0.00  0.00    +0.000 NA
ATOM      4  C   UNL     1       1.123   9.447  18.682  0.00  0.00    +0.000 A 
ATOM      5  N   UNL     1       1.430   8.501  19.642  0.00  0.00    +0.000 N 
ENDROOT
BRANCH   4   6
ATOM      6  C   UNL     1       0.121  10.559  18.664  0.00  0.00    +0.000 A 
ATOM      7  C   UNL     1       0.445  11.788  19.208  0.00  0.00    +0.000 A 
ATOM      8  N   UNL     1      -0.648  12.599  19.131  0.00  0.00    +0.000 N 
ATOM      9  C   UNL     1      -1.722  11.888  18.649  0.00  0.00    +0.000 A 
ATOM     10  C   UNL     1      -3.063  12.281  18.549  0.00  0.00    +0.000 A 
ATOM     11  C   UNL     1      -3.980  11.347  18.068  0.00  0.00    +0.000 A 
ATOM     12  C   UNL     1      -3.560  10.082  17.672  0.00  0.00    +0.000 A 
ATOM     13  C   UNL     1      -2.212   9.706  17.774  0.00  0.00    +0.000 A 
ATOM     14  C   UNL     1      -1.259  10.615  18.284  0.00  0.00    +0.000 A 
ATOM     15  H   UNL     1      -0.689  13.557  19.454  0.00  0.00    +0.000 HD
ENDBRANCH   4   6
BRANCH   5  16
ATOM     16  C   UNL     1       0.797   8.362  20.928  0.00  0.00    +0.000 C 
ATOM     17  C   UNL     1       0.018   9.415  21.669  0.00  0.00    +0.000 C 
ATOM     18  C   UNL     1       1.349   8.952  22.200  0.00  0.00    +0.000 C 
ENDBRANCH   5  16
BRANCH   1  19
ATOM     19  S   UNL     1       3.044   6.228  19.727  0.00  0.00    +0.000 S 
BRANCH  19  20
ATOM     20  C   UNL     1       2.204   4.922  18.768  0.00  0.00    +0.000 C 
ATOM     21  C   UNL     1       1.701   3.858  19.746  0.00  0.00    +0.000 C 
BRANCH  20  27
ATOM     22  C   UNL     1       7.546   5.038  13.606  0.00  0.00    +0.000 C 
ATOM     23  C   UNL     1       6.519   4.841  14.642  0.00  0.00    +0.000 A 
ATOM     24  C   UNL     1       5.687   5.662  15.368  0.00  0.00    +0.000 A 
ATOM     25  C   UNL     1       4.940   4.780  16.188  0.00  0.00    +0.000 A 
ATOM     26  N   UNL     1       3.963   5.173  17.090  0.00  0.00    +0.000 N 
ATOM     27  C   UNL     1       3.205   4.270  17.817  0.00  0.00    +0.000 C 
ATOM     28  O   UNL     1       3.288   3.047  17.740  0.00  0.00    +0.000 OA
ATOM     29  N   UNL     1       5.320   3.517  15.973  0.00  0.00    +0.000 NA
ATOM     30  O   UNL     1       6.295   3.554  15.006  0.00  0.00    +0.000 OA
ATOM     31  H   UNL     1       3.797   6.166  17.175  0.00  0.00    +0.000 HD
ENDBRANCH  20  27
ENDBRANCH  19  20
ENDBRANCH   1  19
TORSDOF 5
ENDMDL
MODEL 6
REMARK VINA RESULT:      -8.6      4.656      9.376
REMARK  Name = 
REMARK  7 active torsions:
REMARK  status: ('A' for Active; 'I' for Inactive)
REMARK    1  A    between atoms: C_1  and  C_2
REMARK    2  A    between atoms: C_6  and  C_8
REMARK    3  A    between atoms: C_8  and  C_9
REMARK    4  A    between atoms: C_8  and  S_10
REMARK    5  A    between atoms: S_10  and  C_11
REMARK    6  A    between atoms: C_14  and  C_15
REMARK    7  A    between atoms: N_24  and  C_25
REMARK                            x       y       z     vdW  Elec       q    Type
REMARK                         _______ _______ _______ _____ _____    ______ ____
ROOT
ATOM      1  C   UNL     1       1.226   9.771  19.112  0.00  0.00    +0.000 A 
ATOM      2  N   UNL     1       1.699   9.709  17.889  0.00  0.00    +0.000 NA
ATOM      3  N   UNL     1       2.346   8.509  17.758  0.00  0.00    +0.000 NA
ATOM      4  C   UNL     1       2.184   7.805  18.870  0.00  0.00    +0.000 A 
ATOM      5  N   UNL     1       1.477   8.585  19.766  0.00  0.00    +0.000 N 
ENDROOT
BRANCH   4   6
ATOM      6  C   UNL     1       2.811   6.452  19.005  0.00  0.00    +0.000 A 
ATOM      7  C   UNL     1       3.972   6.158  18.314  0.00  0.00    +0.000 A 
ATOM      8  N   UNL     1       4.298   4.856  18.548  0.00  0.00    +0.000 N 
ATOM      9  C   UNL     1       3.310   4.254  19.290  0.00  0.00    +0.000 A 
ATOM     10  C   UNL     1       3.164   2.902  19.630  0.00  0.00    +0.000 A 
ATOM     11  C   UNL     1       2.033   2.533  20.356  0.00  0.00    +0.000 A 
ATOM     12  C   UNL     1       1.104   3.488  20.755  0.00  0.00    +0.000 A 
ATOM     13  C   UNL     1       1.268   4.839  20.412  0.00  0.00    +0.000 A 
ATOM     14  C   UNL     1       2.386   5.246  19.651  0.00  0.00    +0.000 A 
ATOM     15  H   UNL     1       5.105   4.378  18.168  0.00  0.00    +0.000 HD
ENDBRANCH   4   6
BRANCH   5  16
ATOM     16  C   UNL     1       1.175   8.244  21.133  0.00  0.00    +0.000 C 
ATOM     17  C   UNL     1      -0.127   8.471  21.852  0.00  0.00    +0.000 C 
ATOM     18  C   UNL     1       1.098   9.253  22.248  0.00  0.00    +0.000 C 
ENDBRANCH   5  16
BRANCH   1  19
ATOM     19  S   UNL     1       0.500  11.197  19.766  0.00  0.00    +0.000 S 
BRANCH  19  20
ATOM     20  C   UNL     1      -0.198  12.011  18.289  0.00  0.00    +0.000 C 
ATOM     21  C   UNL     1      -0.265  13.516  18.559  0.00  0.00    +0.000 C 
BRANCH  20  27
ATOM     22  C   UNL     1      -7.524  11.855  19.514  0.00  0.00    +0.000 C 
ATOM     23  C   UNL     1      -6.104  11.779  19.133  0.00  0.00    +0.000 A 
ATOM     24  C   UNL     1      -4.941  12.376  19.560  0.00  0.00    +0.000 A 
ATOM     25  C   UNL     1      -3.928  11.817  18.740  0.00  0.00    +0.000 A 
ATOM     26  N   UNL     1      -2.580  12.126  18.824  0.00  0.00    +0.000 N 
ATOM     27  C   UNL     1      -1.616  11.499  18.052  0.00  0.00    +0.000 C 
ATOM     28  O   UNL     1      -1.828  10.603  17.238  0.00  0.00    +0.000 OA
ATOM     29  N   UNL     1      -4.464  10.956  17.870  0.00  0.00    +0.000 NA
ATOM     30  O   UNL     1      -5.815  10.927  18.119  0.00  0.00    +0.000 OA
ATOM     31  H   UNL     1      -2.315  12.819  19.509  0.00  0.00    +0.000 HD
ENDBRANCH  20  27
ENDBRANCH  19  20
ENDBRANCH   1  19
TORSDOF 5
ENDMDL
MODEL 7
REMARK VINA RESULT:      -8.4      3.454      8.247
REMARK  Name = 
REMARK  7 active torsions:
REMARK  status: ('A' for Active; 'I' for Inactive)
REMARK    1  A    between atoms: C_1  and  C_2
REMARK    2  A    between atoms: C_6  and  C_8
REMARK    3  A    between atoms: C_8  and  C_9
REMARK    4  A    between atoms: C_8  and  S_10
REMARK    5  A    between atoms: S_10  and  C_11
REMARK    6  A    between atoms: C_14  and  C_15
REMARK    7  A    between atoms: N_24  and  C_25
REMARK                            x       y       z     vdW  Elec       q    Type
REMARK                         _______ _______ _______ _____ _____    ______ ____
ROOT
ATOM      1  C   UNL     1       1.851   7.184  19.922  0.00  0.00    +0.000 A 
ATOM      2  N   UNL     1       2.252   8.052  19.025  0.00  0.00    +0.000 NA
ATOM      3  N   UNL     1       3.353   7.524  18.404  0.00  0.00    +0.000 NA
ATOM      4  C   UNL     1       3.562   6.297  18.862  0.00  0.00    +0.000 A 
ATOM      5  N   UNL     1       2.623   6.045  19.843  0.00  0.00    +0.000 N 
ENDROOT
BRANCH   4   6
ATOM      6  C   UNL     1       4.723   5.493  18.364  0.00  0.00    +0.000 A 
ATOM      7  C   UNL     1       5.615   4.940  19.264  0.00  0.00    +0.000 A 
ATOM      8  N   UNL     1       6.609   4.322  18.566  0.00  0.00    +0.000 N 
ATOM      9  C   UNL     1       6.449   4.556  17.220  0.00  0.00    +0.000 A 
ATOM     10  C   UNL     1       7.312   4.239  16.163  0.00  0.00    +0.000 A 
ATOM     11  C   UNL     1       6.939   4.635  14.879  0.00  0.00    +0.000 A 
ATOM     12  C   UNL     1       5.733   5.291  14.662  0.00  0.00    +0.000 A 
ATOM     13  C   UNL     1       4.877   5.597  15.732  0.00  0.00    +0.000 A 
ATOM     14  C   UNL     1       5.234   5.238  17.050  0.00  0.00    +0.000 A 
ATOM     15  H   UNL     1       7.393   3.832  18.975  0.00  0.00    +0.000 HD
ENDBRANCH   4   6
BRANCH   5  16
ATOM     16  C   UNL     1       2.557   4.869  20.673  0.00  0.00    +0.000 C 
ATOM     17  C   UNL     1       2.594   3.437  20.212  0.00  0.00    +0.000 C 
ATOM     18  C   UNL     1       1.330   4.005  20.802  0.00  0.00    +0.000 C 
ENDBRANCH   5  16
BRANCH   1  19
ATOM     19  S   UNL     1       0.601   7.527  21.067  0.00  0.00    +0.000 S 
BRANCH  19  20
ATOM     20  C   UNL     1       0.996   9.226  21.602  0.00  0.00    +0.000 C 
ATOM     21  C   UNL     1       0.316   9.474  22.950  0.00  0.00    +0.000 C 
BRANCH  20  27
ATOM     22  C   UNL     1      -3.240  11.172  15.817  0.00  0.00    +0.000 C 
ATOM     23  C   UNL     1      -2.370  10.960  16.986  0.00  0.00    +0.000 A 
ATOM     24  C   UNL     1      -1.992   9.876  17.743  0.00  0.00    +0.000 A 
ATOM     25  C   UNL     1      -1.112  10.409  18.718  0.00  0.00    +0.000 A 
ATOM     26  N   UNL     1      -0.476   9.667  19.701  0.00  0.00    +0.000 N 
ATOM     27  C   UNL     1       0.435  10.219  20.587  0.00  0.00    +0.000 C 
ATOM     28  O   UNL     1       0.795  11.394  20.597  0.00  0.00    +0.000 OA
ATOM     29  N   UNL     1      -0.993  11.730  18.558  0.00  0.00    +0.000 NA
ATOM     30  O   UNL     1      -1.769  12.071  17.476  0.00  0.00    +0.000 OA
ATOM     31  H   UNL     1      -0.680   8.678  19.727  0.00  0.00    +0.000 HD
ENDBRANCH  20  27
ENDBRANCH  19  20
ENDBRANCH   1  19
TORSDOF 5
ENDMDL
MODEL 8
REMARK VINA RESULT:      -8.4      4.808      9.817
REMARK  Name = 
REMARK  7 active torsions:
REMARK  status: ('A' for Active; 'I' for Inactive)
REMARK    1  A    between atoms: C_1  and  C_2
REMARK    2  A    between atoms: C_6  and  C_8
REMARK    3  A    between atoms: C_8  and  C_9
REMARK    4  A    between atoms: C_8  and  S_10
REMARK    5  A    between atoms: S_10  and  C_11
REMARK    6  A    between atoms: C_14  and  C_15
REMARK    7  A    between atoms: N_24  and  C_25
REMARK                            x       y       z     vdW  Elec       q    Type
REMARK                         _______ _______ _______ _____ _____    ______ ____
ROOT
ATOM      1  C   UNL     1       1.447   9.455  18.766  0.00  0.00    +0.000 A 
ATOM      2  N   UNL     1       1.952   9.214  17.580  0.00  0.00    +0.000 NA
ATOM      3  N   UNL     1       2.605   8.012  17.646  0.00  0.00    +0.000 NA
ATOM      4  C   UNL     1       2.414   7.481  18.846  0.00  0.00    +0.000 A 
ATOM      5  N   UNL     1       1.683   8.381  19.596  0.00  0.00    +0.000 N 
ENDROOT
BRANCH   4   6
ATOM      6  C   UNL     1       3.040   6.167  19.197  0.00  0.00    +0.000 A 
ATOM      7  C   UNL     1       4.294   5.847  18.708  0.00  0.00    +0.000 A 
ATOM      8  N   UNL     1       4.607   4.584  19.110  0.00  0.00    +0.000 N 
ATOM      9  C   UNL     1       3.534   4.022  19.761  0.00  0.00    +0.000 A 
ATOM     10  C   UNL     1       3.366   2.703  20.205  0.00  0.00    +0.000 A 
ATOM     11  C   UNL     1       2.150   2.367  20.798  0.00  0.00    +0.000 A 
ATOM     12  C   UNL     1       1.156   3.325  20.968  0.00  0.00    +0.000 A 
ATOM     13  C   UNL     1       1.343   4.643  20.523  0.00  0.00    +0.000 A 
ATOM     14  C   UNL     1       2.550   5.014  19.891  0.00  0.00    +0.000 A 
ATOM     15  H   UNL     1       5.468   4.098  18.895  0.00  0.00    +0.000 HD
ENDBRANCH   4   6
BRANCH   5  16
ATOM     16  C   UNL     1       1.345   8.246  20.990  0.00  0.00    +0.000 C 
ATOM     17  C   UNL     1      -0.008   8.455  21.615  0.00  0.00    +0.000 C 
ATOM     18  C   UNL     1       1.113   9.416  21.911  0.00  0.00    +0.000 C 
ENDBRANCH   5  16
BRANCH   1  19
ATOM     19  S   UNL     1       0.700  10.958  19.181  0.00  0.00    +0.000 S 
BRANCH  19  20
ATOM     20  C   UNL     1      -1.079  10.560  19.114  0.00  0.00    +0.000 C 
ATOM     21  C   UNL     1      -1.507  10.521  17.646  0.00  0.00    +0.000 C 
BRANCH  20  27
ATOM     22  C   UNL     1      -2.804  14.852  24.929  0.00  0.00    +0.000 C 
ATOM     23  C   UNL     1      -2.569  14.106  23.681  0.00  0.00    +0.000 A 
ATOM     24  C   UNL     1      -1.755  13.065  23.299  0.00  0.00    +0.000 A 
ATOM     25  C   UNL     1      -2.065  12.851  21.932  0.00  0.00    +0.000 A 
ATOM     26  N   UNL     1      -1.483  11.882  21.131  0.00  0.00    +0.000 N 
ATOM     27  C   UNL     1      -1.870  11.659  19.819  0.00  0.00    +0.000 C 
ATOM     28  O   UNL     1      -2.765  12.261  19.230  0.00  0.00    +0.000 OA
ATOM     29  N   UNL     1      -2.992  13.724  21.527  0.00  0.00    +0.000 NA
ATOM     30  O   UNL     1      -3.311  14.499  22.617  0.00  0.00    +0.000 OA
ATOM     31  H   UNL     1      -0.770  11.307  21.558  0.00  0.00    +0.000 HD
ENDBRANCH  20  27
ENDBRANCH  19  20
ENDBRANCH   1  19
TORSDOF 5
ENDMDL
MODEL 9
REMARK VINA RESULT:      -8.3      2.593      3.673
REMARK  Name = 
REMARK  7 active torsions:
REMARK  status: ('A' for Active; 'I' for Inactive)
REMARK    1  A    between atoms: C_1  and  C_2
REMARK    2  A    between atoms: C_6  and  C_8
REMARK    3  A    between atoms: C_8  and  C_9
REMARK    4  A    between atoms: C_8  and  S_10
REMARK    5  A    between atoms: S_10  and  C_11
REMARK    6  A    between atoms: C_14  and  C_15
REMARK    7  A    between atoms: N_24  and  C_25
REMARK                            x       y       z     vdW  Elec       q    Type
REMARK                         _______ _______ _______ _____ _____    ______ ____
ROOT
ATOM      1  C   UNL     1       3.640   6.578  17.803  0.00  0.00    +0.000 A 
ATOM      2  N   UNL     1       3.886   7.655  17.096  0.00  0.00    +0.000 NA
ATOM      3  N   UNL     1       2.989   8.615  17.483  0.00  0.00    +0.000 NA
ATOM      4  C   UNL     1       2.263   8.149  18.490  0.00  0.00    +0.000 A 
ATOM      5  N   UNL     1       2.645   6.841  18.719  0.00  0.00    +0.000 N 
ENDROOT
BRANCH   4   6
ATOM      6  C   UNL     1       1.184   8.992  19.096  0.00  0.00    +0.000 A 
ATOM      7  C   UNL     1       0.476   9.880  18.305  0.00  0.00    +0.000 A 
ATOM      8  N   UNL     1      -0.391  10.570  19.097  0.00  0.00    +0.000 N 
ATOM      9  C   UNL     1      -0.188  10.234  20.415  0.00  0.00    +0.000 A 
ATOM     10  C   UNL     1      -0.750  10.804  21.565  0.00  0.00    +0.000 A 
ATOM     11  C   UNL     1      -0.336  10.312  22.803  0.00  0.00    +0.000 A 
ATOM     12  C   UNL     1       0.577   9.266  22.880  0.00  0.00    +0.000 A 
ATOM     13  C   UNL     1       1.126   8.703  21.717  0.00  0.00    +0.000 A 
ATOM     14  C   UNL     1       0.755   9.195  20.447  0.00  0.00    +0.000 A 
ATOM     15  H   UNL     1      -1.035  11.282  18.778  0.00  0.00    +0.000 HD
ENDBRANCH   4   6
BRANCH   5  16
ATOM     16  C   UNL     1       2.036   5.931  19.655  0.00  0.00    +0.000 C 
ATOM     17  C   UNL     1       2.729   4.853  20.445  0.00  0.00    +0.000 C 
ATOM     18  C   UNL     1       1.761   4.482  19.352  0.00  0.00    +0.000 C 
ENDBRANCH   5  16
BRANCH   1  19
ATOM     19  S   UNL     1       4.416   5.062  17.504  0.00  0.00    +0.000 S 
BRANCH  19  20
ATOM     20  C   UNL     1       5.846   5.534  16.474  0.00  0.00    +0.000 C 
ATOM     21  C   UNL     1       6.493   4.255  15.937  0.00  0.00    +0.000 C 
BRANCH  20  27
ATOM     22  C   UNL     1       9.597  11.547  18.705  0.00  0.00    +0.000 C 
ATOM     23  C   UNL     1       8.926  10.272  18.402  0.00  0.00    +0.000 A 
ATOM     24  C   UNL     1       7.992   9.849  17.486  0.00  0.00    +0.000 A 
ATOM     25  C   UNL     1       7.813   8.471  17.766  0.00  0.00    +0.000 A 
ATOM     26  N   UNL     1       6.957   7.627  17.075  0.00  0.00    +0.000 N 
ATOM     27  C   UNL     1       6.870   6.268  17.336  0.00  0.00    +0.000 C 
ATOM     28  O   UNL     1       7.536   5.660  18.171  0.00  0.00    +0.000 OA
ATOM     29  N   UNL     1       8.581   8.106  18.797  0.00  0.00    +0.000 NA
ATOM     30  O   UNL     1       9.279   9.224  19.187  0.00  0.00    +0.000 OA
ATOM     31  H   UNL     1       6.410   8.041  16.335  0.00  0.00    +0.000 HD
ENDBRANCH  20  27
ENDBRANCH  19  20
ENDBRANCH   1  19
TORSDOF 5
ENDMDL
