MODEL 1
REMARK VINA RESULT:      -8.6      0.000      0.000
REMARK  Name = 
REMARK  7 active torsions:
REMARK  status: ('A' for Active; 'I' for Inactive)
REMARK    1  A    between atoms: C_2  and  C_17
REMARK    2  A    between atoms: N_3  and  C_4
REMARK    3  A    between atoms: C_4  and  C_5
REMARK    4  A    between atoms: C_9  and  O_10
REMARK    5  A    between atoms: O_10  and  C_11
REMARK    6  A    between atoms: C_11  and  C_12
REMARK    7  A    between atoms: C_21  and  C_22
REMARK                            x       y       z     vdW  Elec       q    Type
REMARK                         _______ _______ _______ _____ _____    ______ ____
ROOT
ATOM      1  O   UNL     1       3.618   6.118  19.996  0.00  0.00    +0.000 OA
ATOM      2  C   UNL     1       2.960   6.377  18.996  0.00  0.00    +0.000 C 
ATOM      3  N   UNL     1       2.822   5.520  17.927  0.00  0.00    +0.000 N 
ATOM      4  H   UNL     1       2.455   5.863  17.047  0.00  0.00    +0.000 HD
ENDROOT
BRANCH   2   5
ATOM      5  C   UNL     1       2.263   7.675  18.897  0.00  0.00    +0.000 A 
ATOM      6  C   UNL     1       2.396   8.434  17.751  0.00  0.00    +0.000 A 
ATOM      7  N   UNL     1       1.787   9.626  17.617  0.00  0.00    +0.000 NA
ATOM      8  N   UNL     1       1.041  10.123  18.657  0.00  0.00    +0.000 NA
ATOM      9  C   UNL     1       0.921   9.433  19.816  0.00  0.00    +0.000 A 
ATOM     10  C   UNL     1       1.517   8.189  19.954  0.00  0.00    +0.000 A 
BRANCH   9  11
ATOM     11  C   UNL     1       0.122  10.058  20.888  0.00  0.00    +0.000 A 
ATOM     12  C   UNL     1      -0.030   9.433  22.139  0.00  0.00    +0.000 A 
ATOM     13  C   UNL     1      -0.726  10.052  23.180  0.00  0.00    +0.000 A 
ATOM     14  C   UNL     1      -1.291  11.309  22.991  0.00  0.00    +0.000 A 
ATOM     15  C   UNL     1      -1.185  11.937  21.755  0.00  0.00    +0.000 A 
ATOM     16  C   UNL     1      -0.499  11.311  20.712  0.00  0.00    +0.000 A 
ENDBRANCH   9  11
ENDBRANCH   2   5
BRANCH   3  17
ATOM     17  C   UNL     1       3.488   4.234  17.901  0.00  0.00    +0.000 C 
BRANCH  17  18
ATOM     18  C   UNL     1       4.880   4.369  17.338  0.00  0.00    +0.000 A 
ATOM     19  C   UNL     1       5.963   4.569  18.205  0.00  0.00    +0.000 A 
ATOM     20  C   UNL     1       7.262   4.644  17.707  0.00  0.00    +0.000 A 
ATOM     21  C   UNL     1       7.503   4.484  16.343  0.00  0.00    +0.000 A 
ATOM     22  C   UNL     1       6.439   4.242  15.474  0.00  0.00    +0.000 A 
ATOM     23  C   UNL     1       5.129   4.230  15.965  0.00  0.00    +0.000 A 
BRANCH  22  24
ATOM     24  O   UNL     1       6.574   4.011  14.132  0.00  0.00    +0.000 OA
BRANCH  24  25
ATOM     25  C   UNL     1       5.343   3.827  13.413  0.00  0.00    +0.000 C 
BRANCH  25  26
ATOM     26  C   UNL     1       5.590   3.322  11.993  0.00  0.00    +0.000 C 
ATOM     27  F   UNL     1       6.732   3.797  11.454  0.00  0.00    +0.000 F 
ATOM     28  F   UNL     1       5.655   1.970  11.964  0.00  0.00    +0.000 F 
ATOM     29  F   UNL     1       4.574   3.690  11.174  0.00  0.00    +0.000 F 
ENDBRANCH  25  26
ENDBRANCH  24  25
ENDBRANCH  22  24
ENDBRANCH  17  18
ENDBRANCH   3  17
TORSDOF 7
ENDMDL
MODEL 2
REMARK VINA RESULT:      -8.5      5.515     10.407
REMARK  Name = 
REMARK  7 active torsions:
REMARK  status: ('A' for Active; 'I' for Inactive)
REMARK    1  A    between atoms: C_2  and  C_17
REMARK    2  A    between atoms: N_3  and  C_4
REMARK    3  A    between atoms: C_4  and  C_5
REMARK    4  A    between atoms: C_9  and  O_10
REMARK    5  A    between atoms: O_10  and  C_11
REMARK    6  A    between atoms: C_11  and  C_12
REMARK    7  A    between atoms: C_21  and  C_22
REMARK                            x       y       z     vdW  Elec       q    Type
REMARK                         _______ _______ _______ _____ _____    ______ ____
ROOT
ATOM      1  O   UNL     1       2.552   4.438  18.233  0.00  0.00    +0.000 OA
ATOM      2  C   UNL     1       3.476   5.111  18.673  0.00  0.00    +0.000 C 
ATOM      3  N   UNL     1       3.344   6.012  19.707  0.00  0.00    +0.000 N 
ATOM      4  H   UNL     1       4.075   6.692  19.882  0.00  0.00    +0.000 HD
ENDROOT
BRANCH   2   5
ATOM      5  C   UNL     1       4.822   4.976  18.081  0.00  0.00    +0.000 A 
ATOM      6  C   UNL     1       5.935   5.076  18.891  0.00  0.00    +0.000 A 
ATOM      7  N   UNL     1       7.183   4.968  18.398  0.00  0.00    +0.000 NA
ATOM      8  N   UNL     1       7.360   4.787  17.049  0.00  0.00    +0.000 NA
ATOM      9  C   UNL     1       6.298   4.728  16.211  0.00  0.00    +0.000 A 
ATOM     10  C   UNL     1       5.008   4.806  16.713  0.00  0.00    +0.000 A 
BRANCH   9  11
ATOM     11  C   UNL     1       6.587   4.559  14.774  0.00  0.00    +0.000 A 
ATOM     12  C   UNL     1       5.839   3.668  13.983  0.00  0.00    +0.000 A 
ATOM     13  C   UNL     1       6.061   3.554  12.608  0.00  0.00    +0.000 A 
ATOM     14  C   UNL     1       7.042   4.328  11.994  0.00  0.00    +0.000 A 
ATOM     15  C   UNL     1       7.819   5.193  12.757  0.00  0.00    +0.000 A 
ATOM     16  C   UNL     1       7.602   5.295  14.133  0.00  0.00    +0.000 A 
ENDBRANCH   9  11
ENDBRANCH   2   5
BRANCH   3  17
ATOM     17  C   UNL     1       2.063   6.251  20.338  0.00  0.00    +0.000 C 
BRANCH  17  18
ATOM     18  C   UNL     1       1.721   7.719  20.307  0.00  0.00    +0.000 A 
ATOM     19  C   UNL     1       1.663   8.391  19.079  0.00  0.00    +0.000 A 
ATOM     20  C   UNL     1       1.297   9.735  19.025  0.00  0.00    +0.000 A 
ATOM     21  C   UNL     1       0.951  10.416  20.192  0.00  0.00    +0.000 A 
ATOM     22  C   UNL     1       0.964   9.748  21.416  0.00  0.00    +0.000 A 
ATOM     23  C   UNL     1       1.391   8.417  21.477  0.00  0.00    +0.000 A 
BRANCH  22  24
ATOM     24  O   UNL     1       0.584  10.306  22.606  0.00  0.00    +0.000 OA
BRANCH  24  25
ATOM     25  C   UNL     1      -0.817  10.207  22.912  0.00  0.00    +0.000 C 
BRANCH  25  26
ATOM     26  C   UNL     1      -1.517  11.559  22.793  0.00  0.00    +0.000 C 
ATOM     27  F   UNL     1      -0.719  12.598  23.115  0.00  0.00    +0.000 F 
ATOM     28  F   UNL     1      -1.966  11.763  21.532  0.00  0.00    +0.000 F 
ATOM     29  F   UNL     1      -2.597  11.610  23.612  0.00  0.00    +0.000 F 
ENDBRANCH  25  26
ENDBRANCH  24  25
ENDBRANCH  22  24
ENDBRANCH  17  18
ENDBRANCH   3  17
TORSDOF 7
ENDMDL
MODEL 3
REMARK VINA RESULT:      -8.5      4.093      5.676
REMARK  Name = 
REMARK  7 active torsions:
REMARK  status: ('A' for Active; 'I' for Inactive)
REMARK    1  A    between atoms: C_2  and  C_17
REMARK    2  A    between atoms: N_3  and  C_4
REMARK    3  A    between atoms: C_4  and  C_5
REMARK    4  A    between atoms: C_9  and  O_10
REMARK    5  A    between atoms: O_10  and  C_11
REMARK    6  A    between atoms: C_11  and  C_12
REMARK    7  A    between atoms: C_21  and  C_22
REMARK                            x       y       z     vdW  Elec       q    Type
REMARK                         _______ _______ _______ _____ _____    ______ ____
ROOT
ATOM      1  O   UNL     1      -0.074  10.043  18.618  0.00  0.00    +0.000 OA
ATOM      2  C   UNL     1       0.679   9.683  19.514  0.00  0.00    +0.000 C 
ATOM      3  N   UNL     1       1.841   8.974  19.302  0.00  0.00    +0.000 N 
ATOM      4  H   UNL     1       2.305   8.518  20.079  0.00  0.00    +0.000 HD
ENDROOT
BRANCH   2   5
ATOM      5  C   UNL     1       0.351  10.010  20.917  0.00  0.00    +0.000 A 
ATOM      6  C   UNL     1       0.854   9.225  21.935  0.00  0.00    +0.000 A 
ATOM      7  N   UNL     1       0.577   9.478  23.227  0.00  0.00    +0.000 NA
ATOM      8  N   UNL     1      -0.254  10.522  23.546  0.00  0.00    +0.000 NA
ATOM      9  C   UNL     1      -0.805  11.292  22.577  0.00  0.00    +0.000 A 
ATOM     10  C   UNL     1      -0.501  11.060  21.244  0.00  0.00    +0.000 A 
BRANCH   9  11
ATOM     11  C   UNL     1      -1.707  12.374  23.013  0.00  0.00    +0.000 A 
ATOM     12  C   UNL     1      -1.224  13.677  23.235  0.00  0.00    +0.000 A 
ATOM     13  C   UNL     1      -2.084  14.722  23.581  0.00  0.00    +0.000 A 
ATOM     14  C   UNL     1      -3.449  14.486  23.717  0.00  0.00    +0.000 A 
ATOM     15  C   UNL     1      -3.950  13.202  23.536  0.00  0.00    +0.000 A 
ATOM     16  C   UNL     1      -3.086  12.157  23.203  0.00  0.00    +0.000 A 
ENDBRANCH   9  11
ENDBRANCH   2   5
BRANCH   3  17
ATOM     17  C   UNL     1       2.243   8.569  17.971  0.00  0.00    +0.000 C 
BRANCH  17  18
ATOM     18  C   UNL     1       3.010   7.272  18.019  0.00  0.00    +0.000 A 
ATOM     19  C   UNL     1       4.045   7.044  17.103  0.00  0.00    +0.000 A 
ATOM     20  C   UNL     1       4.799   5.873  17.165  0.00  0.00    +0.000 A 
ATOM     21  C   UNL     1       4.554   4.932  18.165  0.00  0.00    +0.000 A 
ATOM     22  C   UNL     1       3.555   5.166  19.109  0.00  0.00    +0.000 A 
ATOM     23  C   UNL     1       2.758   6.310  19.009  0.00  0.00    +0.000 A 
BRANCH  22  24
ATOM     24  O   UNL     1       3.278   4.338  20.162  0.00  0.00    +0.000 OA
BRANCH  24  25
ATOM     25  C   UNL     1       2.546   3.146  19.831  0.00  0.00    +0.000 C 
BRANCH  25  26
ATOM     26  C   UNL     1       1.115   3.197  20.365  0.00  0.00    +0.000 C 
ATOM     27  F   UNL     1       0.690   4.452  20.618  0.00  0.00    +0.000 F 
ATOM     28  F   UNL     1       0.250   2.641  19.486  0.00  0.00    +0.000 F 
ATOM     29  F   UNL     1       1.014   2.496  21.521  0.00  0.00    +0.000 F 
ENDBRANCH  25  26
ENDBRANCH  24  25
ENDBRANCH  22  24
ENDBRANCH  17  18
ENDBRANCH   3  17
TORSDOF 7
ENDMDL
MODEL 4
REMARK VINA RESULT:      -8.4      4.546      5.794
REMARK  Name = 
REMARK  7 active torsions:
REMARK  status: ('A' for Active; 'I' for Inactive)
REMARK    1  A    between atoms: C_2  and  C_17
REMARK    2  A    between atoms: N_3  and  C_4
REMARK    3  A    between atoms: C_4  and  C_5
REMARK    4  A    between atoms: C_9  and  O_10
REMARK    5  A    between atoms: O_10  and  C_11
REMARK    6  A    between atoms: C_11  and  C_12
REMARK    7  A    between atoms: C_21  and  C_22
REMARK                            x       y       z     vdW  Elec       q    Type
REMARK                         _______ _______ _______ _____ _____    ______ ____
ROOT
ATOM      1  O   UNL     1       2.619   9.875  17.203  0.00  0.00    +0.000 OA
ATOM      2  C   UNL     1       2.076   9.157  18.034  0.00  0.00    +0.000 C 
ATOM      3  N   UNL     1       2.516   7.892  18.359  0.00  0.00    +0.000 N 
ATOM      4  H   UNL     1       1.915   7.266  18.881  0.00  0.00    +0.000 HD
ENDROOT
BRANCH   2   5
ATOM      5  C   UNL     1       0.877   9.643  18.747  0.00  0.00    +0.000 A 
ATOM      6  C   UNL     1       0.867   9.664  20.127  0.00  0.00    +0.000 A 
ATOM      7  N   UNL     1      -0.204  10.091  20.821  0.00  0.00    +0.000 NA
ATOM      8  N   UNL     1      -1.332  10.484  20.144  0.00  0.00    +0.000 NA
ATOM      9  C   UNL     1      -1.381  10.437  18.792  0.00  0.00    +0.000 A 
ATOM     10  C   UNL     1      -0.273  10.029  18.066  0.00  0.00    +0.000 A 
BRANCH   9  11
ATOM     11  C   UNL     1      -2.645  10.853  18.154  0.00  0.00    +0.000 A 
ATOM     12  C   UNL     1      -3.578  11.650  18.842  0.00  0.00    +0.000 A 
ATOM     13  C   UNL     1      -4.743  12.106  18.220  0.00  0.00    +0.000 A 
ATOM     14  C   UNL     1      -5.004  11.770  16.895  0.00  0.00    +0.000 A 
ATOM     15  C   UNL     1      -4.116  10.956  16.201  0.00  0.00    +0.000 A 
ATOM     16  C   UNL     1      -2.959  10.492  16.828  0.00  0.00    +0.000 A 
ENDBRANCH   9  11
ENDBRANCH   2   5
BRANCH   3  17
ATOM     17  C   UNL     1       3.661   7.301  17.699  0.00  0.00    +0.000 C 
BRANCH  17  18
ATOM     18  C   UNL     1       3.487   5.809  17.568  0.00  0.00    +0.000 A 
ATOM     19  C   UNL     1       4.536   5.030  17.061  0.00  0.00    +0.000 A 
ATOM     20  C   UNL     1       4.413   3.644  16.981  0.00  0.00    +0.000 A 
ATOM     21  C   UNL     1       3.256   3.014  17.439  0.00  0.00    +0.000 A 
ATOM     22  C   UNL     1       2.221   3.774  17.985  0.00  0.00    +0.000 A 
ATOM     23  C   UNL     1       2.320   5.169  18.007  0.00  0.00    +0.000 A 
BRANCH  22  24
ATOM     24  O   UNL     1       1.075   3.249  18.517  0.00  0.00    +0.000 OA
BRANCH  24  25
ATOM     25  C   UNL     1       1.259   2.411  19.670  0.00  0.00    +0.000 C 
BRANCH  25  26
ATOM     26  C   UNL     1       1.415   3.235  20.946  0.00  0.00    +0.000 C 
ATOM     27  F   UNL     1       2.702   3.504  21.248  0.00  0.00    +0.000 F 
ATOM     28  F   UNL     1       0.763   4.416  20.844  0.00  0.00    +0.000 F 
ATOM     29  F   UNL     1       0.882   2.577  22.005  0.00  0.00    +0.000 F 
ENDBRANCH  25  26
ENDBRANCH  24  25
ENDBRANCH  22  24
ENDBRANCH  17  18
ENDBRANCH   3  17
TORSDOF 7
ENDMDL
MODEL 5
REMARK VINA RESULT:      -8.4      4.534      5.793
REMARK  Name = 
REMARK  7 active torsions:
REMARK  status: ('A' for Active; 'I' for Inactive)
REMARK    1  A    between atoms: C_2  and  C_17
REMARK    2  A    between atoms: N_3  and  C_4
REMARK    3  A    between atoms: C_4  and  C_5
REMARK    4  A    between atoms: C_9  and  O_10
REMARK    5  A    between atoms: O_10  and  C_11
REMARK    6  A    between atoms: C_11  and  C_12
REMARK    7  A    between atoms: C_21  and  C_22
REMARK                            x       y       z     vdW  Elec       q    Type
REMARK                         _______ _______ _______ _____ _____    ______ ____
ROOT
ATOM      1  O   UNL     1       2.735   9.796  17.177  0.00  0.00    +0.000 OA
ATOM      2  C   UNL     1       2.166   9.095  18.005  0.00  0.00    +0.000 C 
ATOM      3  N   UNL     1       2.577   7.825  18.345  0.00  0.00    +0.000 N 
ATOM      4  H   UNL     1       1.956   7.215  18.864  0.00  0.00    +0.000 HD
ENDROOT
BRANCH   2   5
ATOM      5  C   UNL     1       0.967   9.610  18.697  0.00  0.00    +0.000 A 
ATOM      6  C   UNL     1       0.921   9.606  20.076  0.00  0.00    +0.000 A 
ATOM      7  N   UNL     1      -0.152  10.057  20.751  0.00  0.00    +0.000 NA
ATOM      8  N   UNL     1      -1.247  10.503  20.054  0.00  0.00    +0.000 NA
ATOM      9  C   UNL     1      -1.263  10.484  18.700  0.00  0.00    +0.000 A 
ATOM     10  C   UNL     1      -0.151  10.052  17.995  0.00  0.00    +0.000 A 
BRANCH   9  11
ATOM     11  C   UNL     1      -2.493  10.958  18.038  0.00  0.00    +0.000 A 
ATOM     12  C   UNL     1      -2.758  10.651  16.691  0.00  0.00    +0.000 A 
ATOM     13  C   UNL     1      -3.953  11.036  16.079  0.00  0.00    +0.000 A 
ATOM     14  C   UNL     1      -4.910  11.743  16.801  0.00  0.00    +0.000 A 
ATOM     15  C   UNL     1      -4.662  12.089  18.124  0.00  0.00    +0.000 A 
ATOM     16  C   UNL     1      -3.461  11.713  18.730  0.00  0.00    +0.000 A 
ENDBRANCH   9  11
ENDBRANCH   2   5
BRANCH   3  17
ATOM     17  C   UNL     1       3.719   7.206  17.707  0.00  0.00    +0.000 C 
BRANCH  17  18
ATOM     18  C   UNL     1       3.499   5.724  17.545  0.00  0.00    +0.000 A 
ATOM     19  C   UNL     1       4.495   4.935  16.955  0.00  0.00    +0.000 A 
ATOM     20  C   UNL     1       4.331   3.555  16.843  0.00  0.00    +0.000 A 
ATOM     21  C   UNL     1       3.187   2.940  17.351  0.00  0.00    +0.000 A 
ATOM     22  C   UNL     1       2.207   3.708  17.979  0.00  0.00    +0.000 A 
ATOM     23  C   UNL     1       2.343   5.099  18.034  0.00  0.00    +0.000 A 
BRANCH  22  24
ATOM     24  O   UNL     1       1.080   3.197  18.563  0.00  0.00    +0.000 OA
BRANCH  24  25
ATOM     25  C   UNL     1       1.309   2.343  19.697  0.00  0.00    +0.000 C 
BRANCH  25  26
ATOM     26  C   UNL     1       1.485   3.149  20.982  0.00  0.00    +0.000 C 
ATOM     27  F   UNL     1       0.999   2.519  22.072  0.00  0.00    +0.000 F 
ATOM     28  F   UNL     1       2.791   3.417  21.212  0.00  0.00    +0.000 F 
ATOM     29  F   UNL     1       0.845   4.341  20.887  0.00  0.00    +0.000 F 
ENDBRANCH  25  26
ENDBRANCH  24  25
ENDBRANCH  22  24
ENDBRANCH  17  18
ENDBRANCH   3  17
TORSDOF 7
ENDMDL
MODEL 6
REMARK VINA RESULT:      -8.3      4.071      5.696
REMARK  Name = 
REMARK  7 active torsions:
REMARK  status: ('A' for Active; 'I' for Inactive)
REMARK    1  A    between atoms: C_2  and  C_17
REMARK    2  A    between atoms: N_3  and  C_4
REMARK    3  A    between atoms: C_4  and  C_5
REMARK    4  A    between atoms: C_9  and  O_10
REMARK    5  A    between atoms: O_10  and  C_11
REMARK    6  A    between atoms: C_11  and  C_12
REMARK    7  A    between atoms: C_21  and  C_22
REMARK                            x       y       z     vdW  Elec       q    Type
REMARK                         _______ _______ _______ _____ _____    ______ ____
ROOT
ATOM      1  O   UNL     1       1.270  11.002  18.938  0.00  0.00    +0.000 OA
ATOM      2  C   UNL     1       1.133  10.044  19.688  0.00  0.00    +0.000 C 
ATOM      3  N   UNL     1       1.448   8.748  19.342  0.00  0.00    +0.000 N 
ATOM      4  H   UNL     1       1.115   7.977  19.910  0.00  0.00    +0.000 HD
ENDROOT
BRANCH   2   5
ATOM      5  C   UNL     1       0.601  10.254  21.049  0.00  0.00    +0.000 A 
ATOM      6  C   UNL     1       0.956   9.384  22.061  0.00  0.00    +0.000 A 
ATOM      7  N   UNL     1       0.490   9.529  23.316  0.00  0.00    +0.000 NA
ATOM      8  N   UNL     1      -0.388  10.546  23.594  0.00  0.00    +0.000 NA
ATOM      9  C   UNL     1      -0.798  11.396  22.623  0.00  0.00    +0.000 A 
ATOM     10  C   UNL     1      -0.300  11.275  21.335  0.00  0.00    +0.000 A 
BRANCH   9  11
ATOM     11  C   UNL     1      -1.764  12.442  23.011  0.00  0.00    +0.000 A 
ATOM     12  C   UNL     1      -3.072  12.110  23.406  0.00  0.00    +0.000 A 
ATOM     13  C   UNL     1      -3.970  13.088  23.841  0.00  0.00    +0.000 A 
ATOM     14  C   UNL     1      -3.578  14.423  23.888  0.00  0.00    +0.000 A 
ATOM     15  C   UNL     1      -2.302  14.784  23.472  0.00  0.00    +0.000 A 
ATOM     16  C   UNL     1      -1.411  13.805  23.026  0.00  0.00    +0.000 A 
ENDBRANCH   9  11
ENDBRANCH   2   5
BRANCH   3  17
ATOM     17  C   UNL     1       1.945   8.421  18.022  0.00  0.00    +0.000 C 
BRANCH  17  18
ATOM     18  C   UNL     1       2.907   7.262  18.088  0.00  0.00    +0.000 A 
ATOM     19  C   UNL     1       4.044   7.256  17.269  0.00  0.00    +0.000 A 
ATOM     20  C   UNL     1       4.971   6.220  17.354  0.00  0.00    +0.000 A 
ATOM     21  C   UNL     1       4.795   5.193  18.282  0.00  0.00    +0.000 A 
ATOM     22  C   UNL     1       3.690   5.209  19.133  0.00  0.00    +0.000 A 
ATOM     23  C   UNL     1       2.727   6.216  19.005  0.00  0.00    +0.000 A 
BRANCH  22  24
ATOM     24  O   UNL     1       3.458   4.286  20.116  0.00  0.00    +0.000 OA
BRANCH  24  25
ATOM     25  C   UNL     1       2.172   4.374  20.752  0.00  0.00    +0.000 C 
BRANCH  25  26
ATOM     26  C   UNL     1       1.407   3.055  20.660  0.00  0.00    +0.000 C 
ATOM     27  F   UNL     1       0.284   3.145  19.918  0.00  0.00    +0.000 F 
ATOM     28  F   UNL     1       2.178   2.083  20.120  0.00  0.00    +0.000 F 
ATOM     29  F   UNL     1       1.041   2.631  21.895  0.00  0.00    +0.000 F 
ENDBRANCH  25  26
ENDBRANCH  24  25
ENDBRANCH  22  24
ENDBRANCH  17  18
ENDBRANCH   3  17
TORSDOF 7
ENDMDL
MODEL 7
REMARK VINA RESULT:      -8.3      4.184      5.888
REMARK  Name = 
REMARK  7 active torsions:
REMARK  status: ('A' for Active; 'I' for Inactive)
REMARK    1  A    between atoms: C_2  and  C_17
REMARK    2  A    between atoms: N_3  and  C_4
REMARK    3  A    between atoms: C_4  and  C_5
REMARK    4  A    between atoms: C_9  and  O_10
REMARK    5  A    between atoms: O_10  and  C_11
REMARK    6  A    between atoms: C_11  and  C_12
REMARK    7  A    between atoms: C_21  and  C_22
REMARK                            x       y       z     vdW  Elec       q    Type
REMARK                         _______ _______ _______ _____ _____    ______ ____
ROOT
ATOM      1  O   UNL     1       0.631  11.235  18.628  0.00  0.00    +0.000 OA
ATOM      2  C   UNL     1       0.742  10.390  19.507  0.00  0.00    +0.000 C 
ATOM      3  N   UNL     1       1.406   9.194  19.343  0.00  0.00    +0.000 N 
ATOM      4  H   UNL     1       1.282   8.449  20.018  0.00  0.00    +0.000 HD
ENDROOT
BRANCH   2   5
ATOM      5  C   UNL     1       0.139  10.634  20.833  0.00  0.00    +0.000 A 
ATOM      6  C   UNL     1       0.644   9.984  21.941  0.00  0.00    +0.000 A 
ATOM      7  N   UNL     1       0.124  10.167  23.169  0.00  0.00    +0.000 NA
ATOM      8  N   UNL     1      -0.959  10.996  23.324  0.00  0.00    +0.000 NA
ATOM      9  C   UNL     1      -1.514  11.620  22.258  0.00  0.00    +0.000 A 
ATOM     10  C   UNL     1      -0.967  11.463  20.994  0.00  0.00    +0.000 A 
BRANCH   9  11
ATOM     11  C   UNL     1      -2.692  12.469  22.518  0.00  0.00    +0.000 A 
ATOM     12  C   UNL     1      -3.427  12.346  23.711  0.00  0.00    +0.000 A 
ATOM     13  C   UNL     1      -4.500  13.194  23.995  0.00  0.00    +0.000 A 
ATOM     14  C   UNL     1      -4.866  14.184  23.087  0.00  0.00    +0.000 A 
ATOM     15  C   UNL     1      -4.179  14.307  21.885  0.00  0.00    +0.000 A 
ATOM     16  C   UNL     1      -3.114  13.450  21.599  0.00  0.00    +0.000 A 
ENDBRANCH   9  11
ENDBRANCH   2   5
BRANCH   3  17
ATOM     17  C   UNL     1       2.006   8.834  18.075  0.00  0.00    +0.000 C 
BRANCH  17  18
ATOM     18  C   UNL     1       2.775   7.544  18.198  0.00  0.00    +0.000 A 
ATOM     19  C   UNL     1       3.826   7.275  17.311  0.00  0.00    +0.000 A 
ATOM     20  C   UNL     1       4.582   6.111  17.442  0.00  0.00    +0.000 A 
ATOM     21  C   UNL     1       4.322   5.218  18.481  0.00  0.00    +0.000 A 
ATOM     22  C   UNL     1       3.306   5.494  19.396  0.00  0.00    +0.000 A 
ATOM     23  C   UNL     1       2.508   6.630  19.228  0.00  0.00    +0.000 A 
BRANCH  22  24
ATOM     24  O   UNL     1       3.012   4.716  20.483  0.00  0.00    +0.000 OA
BRANCH  24  25
ATOM     25  C   UNL     1       2.627   3.363  20.185  0.00  0.00    +0.000 C 
BRANCH  25  26
ATOM     26  C   UNL     1       1.138   3.134  20.433  0.00  0.00    +0.000 C 
ATOM     27  F   UNL     1       0.568   2.322  19.519  0.00  0.00    +0.000 F 
ATOM     28  F   UNL     1       0.927   2.589  21.653  0.00  0.00    +0.000 F 
ATOM     29  F   UNL     1       0.464   4.311  20.401  0.00  0.00    +0.000 F 
ENDBRANCH  25  26
ENDBRANCH  24  25
ENDBRANCH  22  24
ENDBRANCH  17  18
ENDBRANCH   3  17
TORSDOF 7
ENDMDL
MODEL 8
REMARK VINA RESULT:      -8.1      4.292      5.669
REMARK  Name = 
REMARK  7 active torsions:
REMARK  status: ('A' for Active; 'I' for Inactive)
REMARK    1  A    between atoms: C_2  and  C_17
REMARK    2  A    between atoms: N_3  and  C_4
REMARK    3  A    between atoms: C_4  and  C_5
REMARK    4  A    between atoms: C_9  and  O_10
REMARK    5  A    between atoms: O_10  and  C_11
REMARK    6  A    between atoms: C_11  and  C_12
REMARK    7  A    between atoms: C_21  and  C_22
REMARK                            x       y       z     vdW  Elec       q    Type
REMARK                         _______ _______ _______ _____ _____    ______ ____
ROOT
ATOM      1  O   UNL     1       0.005  10.094  18.305  0.00  0.00    +0.000 OA
ATOM      2  C   UNL     1       0.625   9.608  19.242  0.00  0.00    +0.000 C 
ATOM      3  N   UNL     1       1.790   8.887  19.100  0.00  0.00    +0.000 N 
ATOM      4  H   UNL     1       2.138   8.329  19.871  0.00  0.00    +0.000 HD
ENDROOT
BRANCH   2   5
ATOM      5  C   UNL     1       0.121   9.784  20.620  0.00  0.00    +0.000 A 
ATOM      6  C   UNL     1       0.152   8.719  21.498  0.00  0.00    +0.000 A 
ATOM      7  N   UNL     1      -0.303   8.828  22.760  0.00  0.00    +0.000 NA
ATOM      8  N   UNL     1      -0.844  10.017  23.180  0.00  0.00    +0.000 NA
ATOM      9  C   UNL     1      -0.934  11.075  22.338  0.00  0.00    +0.000 A 
ATOM     10  C   UNL     1      -0.440  10.983  21.047  0.00  0.00    +0.000 A 
BRANCH   9  11
ATOM     11  C   UNL     1      -1.555  12.303  22.871  0.00  0.00    +0.000 A 
ATOM     12  C   UNL     1      -2.859  12.287  23.399  0.00  0.00    +0.000 A 
ATOM     13  C   UNL     1      -3.427  13.430  23.968  0.00  0.00    +0.000 A 
ATOM     14  C   UNL     1      -2.702  14.617  24.018  0.00  0.00    +0.000 A 
ATOM     15  C   UNL     1      -1.424  14.670  23.475  0.00  0.00    +0.000 A 
ATOM     16  C   UNL     1      -0.864  13.530  22.896  0.00  0.00    +0.000 A 
ENDBRANCH   9  11
ENDBRANCH   2   5
BRANCH   3  17
ATOM     17  C   UNL     1       2.357   8.623  17.794  0.00  0.00    +0.000 C 
BRANCH  17  18
ATOM     18  C   UNL     1       2.944   7.235  17.740  0.00  0.00    +0.000 A 
ATOM     19  C   UNL     1       4.264   7.056  17.305  0.00  0.00    +0.000 A 
ATOM     20  C   UNL     1       4.840   5.787  17.297  0.00  0.00    +0.000 A 
ATOM     21  C   UNL     1       4.119   4.685  17.758  0.00  0.00    +0.000 A 
ATOM     22  C   UNL     1       2.819   4.856  18.233  0.00  0.00    +0.000 A 
ATOM     23  C   UNL     1       2.220   6.118  18.182  0.00  0.00    +0.000 A 
BRANCH  22  24
ATOM     24  O   UNL     1       2.052   3.853  18.762  0.00  0.00    +0.000 OA
BRANCH  24  25
ATOM     25  C   UNL     1       2.693   3.054  19.769  0.00  0.00    +0.000 C 
BRANCH  25  26
ATOM     26  C   UNL     1       2.140   3.351  21.161  0.00  0.00    +0.000 C 
ATOM     27  F   UNL     1       2.358   4.623  21.556  0.00  0.00    +0.000 F 
ATOM     28  F   UNL     1       0.806   3.130  21.211  0.00  0.00    +0.000 F 
ATOM     29  F   UNL     1       2.713   2.539  22.084  0.00  0.00    +0.000 F 
ENDBRANCH  25  26
ENDBRANCH  24  25
ENDBRANCH  22  24
ENDBRANCH  17  18
ENDBRANCH   3  17
TORSDOF 7
ENDMDL
MODEL 9
REMARK VINA RESULT:      -8.1      4.564      5.765
REMARK  Name = 
REMARK  7 active torsions:
REMARK  status: ('A' for Active; 'I' for Inactive)
REMARK    1  A    between atoms: C_2  and  C_17
REMARK    2  A    between atoms: N_3  and  C_4
REMARK    3  A    between atoms: C_4  and  C_5
REMARK    4  A    between atoms: C_9  and  O_10
REMARK    5  A    between atoms: O_10  and  C_11
REMARK    6  A    between atoms: C_11  and  C_12
REMARK    7  A    between atoms: C_21  and  C_22
REMARK                            x       y       z     vdW  Elec       q    Type
REMARK                         _______ _______ _______ _____ _____    ______ ____
ROOT
ATOM      1  O   UNL     1       2.737  10.258  17.404  0.00  0.00    +0.000 OA
ATOM      2  C   UNL     1       2.071   9.428  18.008  0.00  0.00    +0.000 C 
ATOM      3  N   UNL     1       2.378   8.086  18.058  0.00  0.00    +0.000 N 
ATOM      4  H   UNL     1       1.687   7.419  18.381  0.00  0.00    +0.000 HD
ENDROOT
BRANCH   2   5
ATOM      5  C   UNL     1       0.859   9.855  18.736  0.00  0.00    +0.000 A 
ATOM      6  C   UNL     1       0.857   9.854  20.116  0.00  0.00    +0.000 A 
ATOM      7  N   UNL     1      -0.225  10.227  20.824  0.00  0.00    +0.000 NA
ATOM      8  N   UNL     1      -1.372  10.587  20.161  0.00  0.00    +0.000 NA
ATOM      9  C   UNL     1      -1.429  10.560  18.808  0.00  0.00    +0.000 A 
ATOM     10  C   UNL     1      -0.310  10.208  18.069  0.00  0.00    +0.000 A 
BRANCH   9  11
ATOM     11  C   UNL     1      -2.712  10.938  18.184  0.00  0.00    +0.000 A 
ATOM     12  C   UNL     1      -3.673  11.680  18.894  0.00  0.00    +0.000 A 
ATOM     13  C   UNL     1      -4.860  12.100  18.288  0.00  0.00    +0.000 A 
ATOM     14  C   UNL     1      -5.112  11.784  16.956  0.00  0.00    +0.000 A 
ATOM     15  C   UNL     1      -4.195  11.024  16.240  0.00  0.00    +0.000 A 
ATOM     16  C   UNL     1      -3.016  10.595  16.852  0.00  0.00    +0.000 A 
ENDBRANCH   9  11
ENDBRANCH   2   5
BRANCH   3  17
ATOM     17  C   UNL     1       3.524   7.549  17.353  0.00  0.00    +0.000 C 
BRANCH  17  18
ATOM     18  C   UNL     1       3.836   6.154  17.831  0.00  0.00    +0.000 A 
ATOM     19  C   UNL     1       5.141   5.831  18.226  0.00  0.00    +0.000 A 
ATOM     20  C   UNL     1       5.437   4.562  18.719  0.00  0.00    +0.000 A 
ATOM     21  C   UNL     1       4.428   3.609  18.857  0.00  0.00    +0.000 A 
ATOM     22  C   UNL     1       3.117   3.930  18.508  0.00  0.00    +0.000 A 
ATOM     23  C   UNL     1       2.832   5.183  17.955  0.00  0.00    +0.000 A 
BRANCH  22  24
ATOM     24  O   UNL     1       2.048   3.091  18.663  0.00  0.00    +0.000 OA
BRANCH  24  25
ATOM     25  C   UNL     1       1.981   2.407  19.925  0.00  0.00    +0.000 C 
BRANCH  25  26
ATOM     26  C   UNL     1       1.423   3.308  21.025  0.00  0.00    +0.000 C 
ATOM     27  F   UNL     1       0.499   4.182  20.576  0.00  0.00    +0.000 F 
ATOM     28  F   UNL     1       0.850   2.575  22.008  0.00  0.00    +0.000 F 
ATOM     29  F   UNL     1       2.418   4.031  21.597  0.00  0.00    +0.000 F 
ENDBRANCH  25  26
ENDBRANCH  24  25
ENDBRANCH  22  24
ENDBRANCH  17  18
ENDBRANCH   3  17
TORSDOF 7
ENDMDL
