MODEL 1
REMARK VINA RESULT:      -9.2      0.000      0.000
REMARK  Name = 
REMARK  5 active torsions:
REMARK  status: ('A' for Active; 'I' for Inactive)
REMARK    1  A    between atoms: C_5  and  C_7
REMARK    2  A    between atoms: C_7  and  S_8
REMARK    3  A    between atoms: S_8  and  C_9
REMARK    4  A    between atoms: N_20  and  C_21
REMARK    5  A    between atoms: C_21  and  C_22
REMARK                            x       y       z     vdW  Elec       q    Type
REMARK                         _______ _______ _______ _____ _____    ______ ____
ROOT
ATOM      1  C   UNL     1       2.965   6.582  18.155  0.00  0.00    +0.000 A 
ATOM      2  N   UNL     1       2.202   6.121  19.095  0.00  0.00    +0.000 NA
ATOM      3  C   UNL     1       2.261   4.753  19.394  0.00  0.00    +0.000 A 
ATOM      4  C   UNL     1       1.629   4.274  20.545  0.00  0.00    +0.000 A 
ATOM      5  C   UNL     1       1.673   2.912  20.861  0.00  0.00    +0.000 A 
ATOM      6 CL   UNL     1       0.921   2.344  22.301  0.00  0.00    +0.000 Cl
ATOM      7  C   UNL     1       2.329   2.008  20.029  0.00  0.00    +0.000 A 
ATOM      8  C   UNL     1       2.982   2.479  18.892  0.00  0.00    +0.000 A 
ATOM      9  C   UNL     1       2.960   3.851  18.601  0.00  0.00    +0.000 A 
ATOM     10  C   UNL     1       3.773   4.397  17.508  0.00  0.00    +0.000 A 
ATOM     11  O   UNL     1       4.396   3.607  16.802  0.00  0.00    +0.000 OA
ATOM     12  N   UNL     1       3.820   5.787  17.392  0.00  0.00    +0.000 N 
ENDROOT
BRANCH   1  13
ATOM     13  S   UNL     1       2.968   8.322  17.928  0.00  0.00    +0.000 S 
BRANCH  13  14
ATOM     14  C   UNL     1       1.196   8.721  17.628  0.00  0.00    +0.000 C 
BRANCH  14  19
ATOM     15  O   UNL     1      -2.791  11.194  15.729  0.00  0.00    +0.000 OA
ATOM     16  C   UNL     1      -2.348  11.134  16.874  0.00  0.00    +0.000 C 
ATOM     17  C   UNL     1      -1.456   9.989  17.349  0.00  0.00    +0.000 C 
ATOM     18  N   UNL     1      -0.633  10.254  18.539  0.00  0.00    +0.000 N 
ATOM     19  C   UNL     1       0.665   9.716  18.701  0.00  0.00    +0.000 C 
ATOM     20  O   UNL     1       1.412  10.069  19.621  0.00  0.00    +0.000 OA
ATOM     21  C   UNL     1      -1.259  11.107  19.533  0.00  0.00    +0.000 A 
ATOM     22  C   UNL     1      -0.861  11.138  20.878  0.00  0.00    +0.000 A 
ATOM     23  C   UNL     1      -1.483  11.990  21.805  0.00  0.00    +0.000 A 
ATOM     24  C   UNL     1      -2.514  12.834  21.408  0.00  0.00    +0.000 A 
ATOM     25  C   UNL     1      -2.933  12.822  20.080  0.00  0.00    +0.000 A 
ATOM     26  C   UNL     1      -2.318  11.955  19.155  0.00  0.00    +0.000 A 
ATOM     27  N   UNL     1      -2.779  12.002  17.836  0.00  0.00    +0.000 N 
ATOM     28  H   UNL     1      -3.465  12.695  17.551  0.00  0.00    +0.000 HD
ENDBRANCH  14  19
ENDBRANCH  13  14
ENDBRANCH   1  13
BRANCH  12  29
ATOM     29  C   UNL     1       4.848   6.297  16.470  0.00  0.00    +0.000 C 
BRANCH  29  30
ATOM     30  C   UNL     1       6.139   6.659  17.167  0.00  0.00    +0.000 A 
ATOM     31  C   UNL     1       6.741   5.754  18.050  0.00  0.00    +0.000 A 
ATOM     32  C   UNL     1       7.841   6.136  18.816  0.00  0.00    +0.000 A 
ATOM     33  C   UNL     1       8.377   7.413  18.678  0.00  0.00    +0.000 A 
ATOM     34  C   UNL     1       7.842   8.295  17.743  0.00  0.00    +0.000 A 
ATOM     35  C   UNL     1       6.731   7.919  16.988  0.00  0.00    +0.000 A 
ENDBRANCH  29  30
ENDBRANCH  12  29
TORSDOF 5
ENDMDL
MODEL 2
REMARK VINA RESULT:      -8.8      1.189      1.418
REMARK  Name = 
REMARK  5 active torsions:
REMARK  status: ('A' for Active; 'I' for Inactive)
REMARK    1  A    between atoms: C_5  and  C_7
REMARK    2  A    between atoms: C_7  and  S_8
REMARK    3  A    between atoms: S_8  and  C_9
REMARK    4  A    between atoms: N_20  and  C_21
REMARK    5  A    between atoms: C_21  and  C_22
REMARK                            x       y       z     vdW  Elec       q    Type
REMARK                         _______ _______ _______ _____ _____    ______ ____
ROOT
ATOM      1  C   UNL     1       3.257   6.357  18.002  0.00  0.00    +0.000 A 
ATOM      2  N   UNL     1       2.442   5.938  18.919  0.00  0.00    +0.000 NA
ATOM      3  C   UNL     1       2.437   4.573  19.237  0.00  0.00    +0.000 A 
ATOM      4  C   UNL     1       1.745   4.135  20.370  0.00  0.00    +0.000 A 
ATOM      5  C   UNL     1       1.723   2.777  20.703  0.00  0.00    +0.000 A 
ATOM      6 CL   UNL     1       0.898   2.258  22.121  0.00  0.00    +0.000 Cl
ATOM      7  C   UNL     1       2.374   1.837  19.906  0.00  0.00    +0.000 A 
ATOM      8  C   UNL     1       3.086   2.266  18.789  0.00  0.00    +0.000 A 
ATOM      9  C   UNL     1       3.128   3.634  18.481  0.00  0.00    +0.000 A 
ATOM     10  C   UNL     1       4.001   4.134  17.412  0.00  0.00    +0.000 A 
ATOM     11  O   UNL     1       4.617   3.311  16.739  0.00  0.00    +0.000 OA
ATOM     12  N   UNL     1       4.107   5.520  17.281  0.00  0.00    +0.000 N 
ENDROOT
BRANCH   1  13
ATOM     13  S   UNL     1       3.336   8.093  17.756  0.00  0.00    +0.000 S 
BRANCH  13  14
ATOM     14  C   UNL     1       1.573   8.619  17.828  0.00  0.00    +0.000 C 
BRANCH  14  19
ATOM     15  O   UNL     1      -0.936  13.013  17.692  0.00  0.00    +0.000 OA
ATOM     16  C   UNL     1      -0.783  12.197  18.599  0.00  0.00    +0.000 C 
ATOM     17  C   UNL     1      -0.420  10.738  18.336  0.00  0.00    +0.000 C 
ATOM     18  N   UNL     1       0.178  10.001  19.460  0.00  0.00    +0.000 N 
ATOM     19  C   UNL     1       1.174   9.015  19.279  0.00  0.00    +0.000 C 
ATOM     20  O   UNL     1       1.786   8.516  20.231  0.00  0.00    +0.000 OA
ATOM     21  C   UNL     1      -0.338  10.366  20.767  0.00  0.00    +0.000 A 
ATOM     22  C   UNL     1      -0.240   9.532  21.891  0.00  0.00    +0.000 A 
ATOM     23  C   UNL     1      -0.738   9.929  23.143  0.00  0.00    +0.000 A 
ATOM     24  C   UNL     1      -1.342  11.172  23.301  0.00  0.00    +0.000 A 
ATOM     25  C   UNL     1      -1.457  12.019  22.202  0.00  0.00    +0.000 A 
ATOM     26  C   UNL     1      -0.971  11.612  20.944  0.00  0.00    +0.000 A 
ATOM     27  N   UNL     1      -1.107  12.516  19.886  0.00  0.00    +0.000 N 
ATOM     28  H   UNL     1      -1.464  13.453  20.049  0.00  0.00    +0.000 HD
ENDBRANCH  14  19
ENDBRANCH  13  14
ENDBRANCH   1  13
BRANCH  12  29
ATOM     29  C   UNL     1       5.187   5.976  16.392  0.00  0.00    +0.000 C 
BRANCH  29  30
ATOM     30  C   UNL     1       6.395   6.486  17.144  0.00  0.00    +0.000 A 
ATOM     31  C   UNL     1       6.992   5.697  18.134  0.00  0.00    +0.000 A 
ATOM     32  C   UNL     1       8.004   6.217  18.940  0.00  0.00    +0.000 A 
ATOM     33  C   UNL     1       8.458   7.517  18.737  0.00  0.00    +0.000 A 
ATOM     34  C   UNL     1       7.932   8.284  17.700  0.00  0.00    +0.000 A 
ATOM     35  C   UNL     1       6.909   7.770  16.905  0.00  0.00    +0.000 A 
ENDBRANCH  29  30
ENDBRANCH  12  29
TORSDOF 5
ENDMDL
MODEL 3
REMARK VINA RESULT:      -8.8      2.758      5.223
REMARK  Name = 
REMARK  5 active torsions:
REMARK  status: ('A' for Active; 'I' for Inactive)
REMARK    1  A    between atoms: C_5  and  C_7
REMARK    2  A    between atoms: C_7  and  S_8
REMARK    3  A    between atoms: S_8  and  C_9
REMARK    4  A    between atoms: N_20  and  C_21
REMARK    5  A    between atoms: C_21  and  C_22
REMARK                            x       y       z     vdW  Elec       q    Type
REMARK                         _______ _______ _______ _____ _____    ______ ____
ROOT
ATOM      1  C   UNL     1       3.045   7.067  17.823  0.00  0.00    +0.000 A 
ATOM      2  N   UNL     1       3.757   7.087  16.741  0.00  0.00    +0.000 NA
ATOM      3  C   UNL     1       4.901   6.279  16.678  0.00  0.00    +0.000 A 
ATOM      4  C   UNL     1       5.552   6.104  15.454  0.00  0.00    +0.000 A 
ATOM      5  C   UNL     1       6.696   5.305  15.369  0.00  0.00    +0.000 A 
ATOM      6 CL   UNL     1       7.464   5.070  13.847  0.00  0.00    +0.000 Cl
ATOM      7  C   UNL     1       7.218   4.685  16.503  0.00  0.00    +0.000 A 
ATOM      8  C   UNL     1       6.564   4.834  17.723  0.00  0.00    +0.000 A 
ATOM      9  C   UNL     1       5.397   5.611  17.791  0.00  0.00    +0.000 A 
ATOM     10  C   UNL     1       4.596   5.652  19.020  0.00  0.00    +0.000 A 
ATOM     11  O   UNL     1       5.027   5.063  20.009  0.00  0.00    +0.000 OA
ATOM     12  N   UNL     1       3.370   6.315  18.951  0.00  0.00    +0.000 N 
ENDROOT
BRANCH   1  13
ATOM     13  S   UNL     1       1.542   7.973  17.790  0.00  0.00    +0.000 S 
BRANCH  13  14
ATOM     14  C   UNL     1       1.797   9.280  19.061  0.00  0.00    +0.000 C 
BRANCH  14  19
ATOM     15  O   UNL     1       0.508   9.355  23.955  0.00  0.00    +0.000 OA
ATOM     16  C   UNL     1       0.104  10.019  23.002  0.00  0.00    +0.000 C 
ATOM     17  C   UNL     1       0.920  10.202  21.726  0.00  0.00    +0.000 C 
ATOM     18  N   UNL     1       0.172  10.599  20.524  0.00  0.00    +0.000 N 
ATOM     19  C   UNL     1       0.514  10.145  19.229  0.00  0.00    +0.000 C 
ATOM     20  O   UNL     1      -0.209  10.349  18.248  0.00  0.00    +0.000 OA
ATOM     21  C   UNL     1      -0.944  11.495  20.771  0.00  0.00    +0.000 A 
ATOM     22  C   UNL     1      -1.505  12.315  19.781  0.00  0.00    +0.000 A 
ATOM     23  C   UNL     1      -2.594  13.156  20.058  0.00  0.00    +0.000 A 
ATOM     24  C   UNL     1      -3.152  13.193  21.331  0.00  0.00    +0.000 A 
ATOM     25  C   UNL     1      -2.614  12.393  22.336  0.00  0.00    +0.000 A 
ATOM     26  C   UNL     1      -1.511  11.562  22.059  0.00  0.00    +0.000 A 
ATOM     27  N   UNL     1      -1.028  10.776  23.110  0.00  0.00    +0.000 N 
ATOM     28  H   UNL     1      -1.512  10.749  24.002  0.00  0.00    +0.000 HD
ENDBRANCH  14  19
ENDBRANCH  13  14
ENDBRANCH   1  13
BRANCH  12  29
ATOM     29  C   UNL     1       2.486   6.101  20.108  0.00  0.00    +0.000 C 
BRANCH  29  30
ATOM     30  C   UNL     1       1.899   4.709  20.153  0.00  0.00    +0.000 A 
ATOM     31  C   UNL     1       1.940   3.965  21.338  0.00  0.00    +0.000 A 
ATOM     32  C   UNL     1       1.548   2.628  21.351  0.00  0.00    +0.000 A 
ATOM     33  C   UNL     1       1.070   2.031  20.188  0.00  0.00    +0.000 A 
ATOM     34  C   UNL     1       0.943   2.782  19.022  0.00  0.00    +0.000 A 
ATOM     35  C   UNL     1       1.352   4.115  19.005  0.00  0.00    +0.000 A 
ENDBRANCH  29  30
ENDBRANCH  12  29
TORSDOF 5
ENDMDL
MODEL 4
REMARK VINA RESULT:      -8.7      3.126      5.109
REMARK  Name = 
REMARK  5 active torsions:
REMARK  status: ('A' for Active; 'I' for Inactive)
REMARK    1  A    between atoms: C_5  and  C_7
REMARK    2  A    between atoms: C_7  and  S_8
REMARK    3  A    between atoms: S_8  and  C_9
REMARK    4  A    between atoms: N_20  and  C_21
REMARK    5  A    between atoms: C_21  and  C_22
REMARK                            x       y       z     vdW  Elec       q    Type
REMARK                         _______ _______ _______ _____ _____    ______ ____
ROOT
ATOM      1  C   UNL     1       3.138   7.065  17.793  0.00  0.00    +0.000 A 
ATOM      2  N   UNL     1       3.806   7.057  16.682  0.00  0.00    +0.000 NA
ATOM      3  C   UNL     1       4.932   6.230  16.585  0.00  0.00    +0.000 A 
ATOM      4  C   UNL     1       5.530   6.026  15.338  0.00  0.00    +0.000 A 
ATOM      5  C   UNL     1       6.657   5.207  15.218  0.00  0.00    +0.000 A 
ATOM      6 CL   UNL     1       7.358   4.938  13.670  0.00  0.00    +0.000 Cl
ATOM      7  C   UNL     1       7.215   4.595  16.339  0.00  0.00    +0.000 A 
ATOM      8  C   UNL     1       6.614   4.772  17.583  0.00  0.00    +0.000 A 
ATOM      9  C   UNL     1       5.464   5.569  17.686  0.00  0.00    +0.000 A 
ATOM     10  C   UNL     1       4.715   5.641  18.947  0.00  0.00    +0.000 A 
ATOM     11  O   UNL     1       5.176   5.059  19.926  0.00  0.00    +0.000 OA
ATOM     12  N   UNL     1       3.497   6.323  18.917  0.00  0.00    +0.000 N 
ENDROOT
BRANCH   1  13
ATOM     13  S   UNL     1       1.650   7.995  17.807  0.00  0.00    +0.000 S 
BRANCH  13  14
ATOM     14  C   UNL     1       2.182   9.651  18.411  0.00  0.00    +0.000 C 
BRANCH  14  19
ATOM     15  O   UNL     1       2.775  14.621  19.166  0.00  0.00    +0.000 OA
ATOM     16  C   UNL     1       1.996  13.813  19.670  0.00  0.00    +0.000 C 
ATOM     17  C   UNL     1       1.634  12.493  18.995  0.00  0.00    +0.000 C 
ATOM     18  N   UNL     1       1.091  11.441  19.869  0.00  0.00    +0.000 N 
ATOM     19  C   UNL     1       1.364  10.069  19.668  0.00  0.00    +0.000 C 
ATOM     20  O   UNL     1       1.041   9.207  20.493  0.00  0.00    +0.000 OA
ATOM     21  C   UNL     1       0.251  11.924  20.950  0.00  0.00    +0.000 A 
ATOM     22  C   UNL     1      -0.686  11.118  21.614  0.00  0.00    +0.000 A 
ATOM     23  C   UNL     1      -1.468  11.620  22.666  0.00  0.00    +0.000 A 
ATOM     24  C   UNL     1      -1.328  12.939  23.084  0.00  0.00    +0.000 A 
ATOM     25  C   UNL     1      -0.409  13.764  22.441  0.00  0.00    +0.000 A 
ATOM     26  C   UNL     1       0.363  13.263  21.375  0.00  0.00    +0.000 A 
ATOM     27  N   UNL     1       1.276  14.141  20.782  0.00  0.00    +0.000 N 
ATOM     28  H   UNL     1       1.427  15.069  21.168  0.00  0.00    +0.000 HD
ENDBRANCH  14  19
ENDBRANCH  13  14
ENDBRANCH   1  13
BRANCH  12  29
ATOM     29  C   UNL     1       2.658   6.141  20.112  0.00  0.00    +0.000 C 
BRANCH  29  30
ATOM     30  C   UNL     1       2.022   4.771  20.184  0.00  0.00    +0.000 A 
ATOM     31  C   UNL     1       2.068   4.034  21.372  0.00  0.00    +0.000 A 
ATOM     32  C   UNL     1       1.628   2.712  21.405  0.00  0.00    +0.000 A 
ATOM     33  C   UNL     1       1.096   2.126  20.260  0.00  0.00    +0.000 A 
ATOM     34  C   UNL     1       0.966   2.874  19.092  0.00  0.00    +0.000 A 
ATOM     35  C   UNL     1       1.422   4.191  19.055  0.00  0.00    +0.000 A 
ENDBRANCH  29  30
ENDBRANCH  12  29
TORSDOF 5
ENDMDL
MODEL 5
REMARK VINA RESULT:      -8.5      3.066      5.231
REMARK  Name = 
REMARK  5 active torsions:
REMARK  status: ('A' for Active; 'I' for Inactive)
REMARK    1  A    between atoms: C_5  and  C_7
REMARK    2  A    between atoms: C_7  and  S_8
REMARK    3  A    between atoms: S_8  and  C_9
REMARK    4  A    between atoms: N_20  and  C_21
REMARK    5  A    between atoms: C_21  and  C_22
REMARK                            x       y       z     vdW  Elec       q    Type
REMARK                         _______ _______ _______ _____ _____    ______ ____
ROOT
ATOM      1  C   UNL     1       3.247   7.008  17.854  0.00  0.00    +0.000 A 
ATOM      2  N   UNL     1       3.873   7.010  16.720  0.00  0.00    +0.000 NA
ATOM      3  C   UNL     1       4.996   6.184  16.573  0.00  0.00    +0.000 A 
ATOM      4  C   UNL     1       5.547   5.992  15.303  0.00  0.00    +0.000 A 
ATOM      5  C   UNL     1       6.669   5.175  15.135  0.00  0.00    +0.000 A 
ATOM      6 CL   UNL     1       7.312   4.919  13.560  0.00  0.00    +0.000 Cl
ATOM      7  C   UNL     1       7.268   4.552  16.228  0.00  0.00    +0.000 A 
ATOM      8  C   UNL     1       6.713   4.718  17.495  0.00  0.00    +0.000 A 
ATOM      9  C   UNL     1       5.568   5.514  17.648  0.00  0.00    +0.000 A 
ATOM     10  C   UNL     1       4.865   5.574  18.936  0.00  0.00    +0.000 A 
ATOM     11  O   UNL     1       5.363   4.984  19.892  0.00  0.00    +0.000 OA
ATOM     12  N   UNL     1       3.648   6.256  18.958  0.00  0.00    +0.000 N 
ENDROOT
BRANCH   1  13
ATOM     13  S   UNL     1       1.761   7.937  17.932  0.00  0.00    +0.000 S 
BRANCH  13  14
ATOM     14  C   UNL     1       2.346   9.679  18.040  0.00  0.00    +0.000 C 
BRANCH  14  19
ATOM     15  O   UNL     1       4.201  14.370  18.455  0.00  0.00    +0.000 OA
ATOM     16  C   UNL     1       3.076  13.923  18.672  0.00  0.00    +0.000 C 
ATOM     17  C   UNL     1       2.576  12.623  18.048  0.00  0.00    +0.000 C 
ATOM     18  N   UNL     1       1.444  11.969  18.722  0.00  0.00    +0.000 N 
ATOM     19  C   UNL     1       1.311  10.563  18.795  0.00  0.00    +0.000 C 
ATOM     20  O   UNL     1       0.449  10.020  19.496  0.00  0.00    +0.000 OA
ATOM     21  C   UNL     1       0.474  12.880  19.302  0.00  0.00    +0.000 A 
ATOM     22  C   UNL     1      -0.846  12.511  19.597  0.00  0.00    +0.000 A 
ATOM     23  C   UNL     1      -1.749  13.418  20.173  0.00  0.00    +0.000 A 
ATOM     24  C   UNL     1      -1.351  14.717  20.473  0.00  0.00    +0.000 A 
ATOM     25  C   UNL     1      -0.047  15.114  20.187  0.00  0.00    +0.000 A 
ATOM     26  C   UNL     1       0.852  14.206  19.594  0.00  0.00    +0.000 A 
ATOM     27  N   UNL     1       2.149  14.666  19.346  0.00  0.00    +0.000 N 
ATOM     28  H   UNL     1       2.442  15.586  19.662  0.00  0.00    +0.000 HD
ENDBRANCH  14  19
ENDBRANCH  13  14
ENDBRANCH   1  13
BRANCH  12  29
ATOM     29  C   UNL     1       2.853   6.063  20.181  0.00  0.00    +0.000 C 
BRANCH  29  30
ATOM     30  C   UNL     1       2.121   4.740  20.207  0.00  0.00    +0.000 A 
ATOM     31  C   UNL     1       2.066   3.988  21.386  0.00  0.00    +0.000 A 
ATOM     32  C   UNL     1       1.534   2.700  21.381  0.00  0.00    +0.000 A 
ATOM     33  C   UNL     1       1.011   2.166  20.207  0.00  0.00    +0.000 A 
ATOM     34  C   UNL     1       0.982   2.934  19.046  0.00  0.00    +0.000 A 
ATOM     35  C   UNL     1       1.530   4.217  19.046  0.00  0.00    +0.000 A 
ENDBRANCH  29  30
ENDBRANCH  12  29
TORSDOF 5
ENDMDL
MODEL 6
REMARK VINA RESULT:      -8.5      1.727      2.484
REMARK  Name = 
REMARK  5 active torsions:
REMARK  status: ('A' for Active; 'I' for Inactive)
REMARK    1  A    between atoms: C_5  and  C_7
REMARK    2  A    between atoms: C_7  and  S_8
REMARK    3  A    between atoms: S_8  and  C_9
REMARK    4  A    between atoms: N_20  and  C_21
REMARK    5  A    between atoms: C_21  and  C_22
REMARK                            x       y       z     vdW  Elec       q    Type
REMARK                         _______ _______ _______ _____ _____    ______ ____
ROOT
ATOM      1  C   UNL     1       2.875   6.416  18.138  0.00  0.00    +0.000 A 
ATOM      2  N   UNL     1       2.128   5.920  19.073  0.00  0.00    +0.000 NA
ATOM      3  C   UNL     1       2.261   4.561  19.387  0.00  0.00    +0.000 A 
ATOM      4  C   UNL     1       1.643   4.056  20.535  0.00  0.00    +0.000 A 
ATOM      5  C   UNL     1       1.760   2.702  20.864  0.00  0.00    +0.000 A 
ATOM      6 CL   UNL     1       1.024   2.105  22.300  0.00  0.00    +0.000 Cl
ATOM      7  C   UNL     1       2.478   1.830  20.048  0.00  0.00    +0.000 A 
ATOM      8  C   UNL     1       3.117   2.327  18.915  0.00  0.00    +0.000 A 
ATOM      9  C   UNL     1       3.021   3.693  18.611  0.00  0.00    +0.000 A 
ATOM     10  C   UNL     1       3.815   4.275  17.523  0.00  0.00    +0.000 A 
ATOM     11  O   UNL     1       4.490   3.516  16.832  0.00  0.00    +0.000 OA
ATOM     12  N   UNL     1       3.784   5.665  17.394  0.00  0.00    +0.000 N 
ENDROOT
BRANCH   1  13
ATOM     13  S   UNL     1       2.781   8.151  17.895  0.00  0.00    +0.000 S 
BRANCH  13  14
ATOM     14  C   UNL     1       1.783   8.734  19.328  0.00  0.00    +0.000 C 
BRANCH  14  19
ATOM     15  O   UNL     1      -0.694  10.313  23.450  0.00  0.00    +0.000 OA
ATOM     16  C   UNL     1      -0.382  10.904  22.418  0.00  0.00    +0.000 C 
ATOM     17  C   UNL     1       0.753  10.432  21.513  0.00  0.00    +0.000 C 
ATOM     18  N   UNL     1       0.727  10.918  20.126  0.00  0.00    +0.000 N 
ATOM     19  C   UNL     1       1.158  10.129  19.034  0.00  0.00    +0.000 C 
ATOM     20  O   UNL     1       0.985  10.479  17.861  0.00  0.00    +0.000 OA
ATOM     21  C   UNL     1       0.227  12.272  19.966  0.00  0.00    +0.000 A 
ATOM     22  C   UNL     1       0.507  13.067  18.844  0.00  0.00    +0.000 A 
ATOM     23  C   UNL     1      -0.009  14.366  18.721  0.00  0.00    +0.000 A 
ATOM     24  C   UNL     1      -0.822  14.901  19.715  0.00  0.00    +0.000 A 
ATOM     25  C   UNL     1      -1.114  14.137  20.842  0.00  0.00    +0.000 A 
ATOM     26  C   UNL     1      -0.581  12.839  20.970  0.00  0.00    +0.000 A 
ATOM     27  N   UNL     1      -0.925  12.122  22.121  0.00  0.00    +0.000 N 
ATOM     28  H   UNL     1      -1.596  12.497  22.784  0.00  0.00    +0.000 HD
ENDBRANCH  14  19
ENDBRANCH  13  14
ENDBRANCH   1  13
BRANCH  12  29
ATOM     29  C   UNL     1       4.792   6.223  16.479  0.00  0.00    +0.000 C 
BRANCH  29  30
ATOM     30  C   UNL     1       6.085   6.583  17.176  0.00  0.00    +0.000 A 
ATOM     31  C   UNL     1       6.667   5.693  18.085  0.00  0.00    +0.000 A 
ATOM     32  C   UNL     1       7.768   6.077  18.849  0.00  0.00    +0.000 A 
ATOM     33  C   UNL     1       8.326   7.342  18.681  0.00  0.00    +0.000 A 
ATOM     34  C   UNL     1       7.810   8.207  17.719  0.00  0.00    +0.000 A 
ATOM     35  C   UNL     1       6.698   7.829  16.967  0.00  0.00    +0.000 A 
ENDBRANCH  29  30
ENDBRANCH  12  29
TORSDOF 5
ENDMDL
MODEL 7
REMARK VINA RESULT:      -8.4      2.435      4.586
REMARK  Name = 
REMARK  5 active torsions:
REMARK  status: ('A' for Active; 'I' for Inactive)
REMARK    1  A    between atoms: C_5  and  C_7
REMARK    2  A    between atoms: C_7  and  S_8
REMARK    3  A    between atoms: S_8  and  C_9
REMARK    4  A    between atoms: N_20  and  C_21
REMARK    5  A    between atoms: C_21  and  C_22
REMARK                            x       y       z     vdW  Elec       q    Type
REMARK                         _______ _______ _______ _____ _____    ______ ____
ROOT
ATOM      1  C   UNL     1       3.100   6.982  17.937  0.00  0.00    +0.000 A 
ATOM      2  N   UNL     1       3.720   7.008  16.800  0.00  0.00    +0.000 NA
ATOM      3  C   UNL     1       4.875   6.228  16.651  0.00  0.00    +0.000 A 
ATOM      4  C   UNL     1       5.428   6.055  15.378  0.00  0.00    +0.000 A 
ATOM      5  C   UNL     1       6.582   5.284  15.207  0.00  0.00    +0.000 A 
ATOM      6 CL   UNL     1       7.228   5.051  13.630  0.00  0.00    +0.000 Cl
ATOM      7  C   UNL     1       7.211   4.691  16.300  0.00  0.00    +0.000 A 
ATOM      8  C   UNL     1       6.655   4.837  17.569  0.00  0.00    +0.000 A 
ATOM      9  C   UNL     1       5.479   5.585  17.725  0.00  0.00    +0.000 A 
ATOM     10  C   UNL     1       4.780   5.620  19.015  0.00  0.00    +0.000 A 
ATOM     11  O   UNL     1       5.306   5.054  19.971  0.00  0.00    +0.000 OA
ATOM     12  N   UNL     1       3.536   6.251  19.041  0.00  0.00    +0.000 N 
ENDROOT
BRANCH   1  13
ATOM     13  S   UNL     1       1.576   7.850  18.019  0.00  0.00    +0.000 S 
BRANCH  13  14
ATOM     14  C   UNL     1       2.069   9.610  17.795  0.00  0.00    +0.000 C 
BRANCH  14  19
ATOM     15  O   UNL     1      -2.533  10.333  15.817  0.00  0.00    +0.000 OA
ATOM     16  C   UNL     1      -2.080  10.600  16.928  0.00  0.00    +0.000 C 
ATOM     17  C   UNL     1      -0.856   9.894  17.505  0.00  0.00    +0.000 C 
ATOM     18  N   UNL     1      -0.150  10.593  18.589  0.00  0.00    +0.000 N 
ATOM     19  C   UNL     1       1.255  10.536  18.744  0.00  0.00    +0.000 C 
ATOM     20  O   UNL     1       1.856  11.251  19.554  0.00  0.00    +0.000 OA
ATOM     21  C   UNL     1      -1.008  11.344  19.488  0.00  0.00    +0.000 A 
ATOM     22  C   UNL     1      -0.626  11.713  20.786  0.00  0.00    +0.000 A 
ATOM     23  C   UNL     1      -1.480  12.454  21.618  0.00  0.00    +0.000 A 
ATOM     24  C   UNL     1      -2.737  12.846  21.170  0.00  0.00    +0.000 A 
ATOM     25  C   UNL     1      -3.146  12.491  19.887  0.00  0.00    +0.000 A 
ATOM     26  C   UNL     1      -2.292  11.734  19.060  0.00  0.00    +0.000 A 
ATOM     27  N   UNL     1      -2.760  11.423  17.780  0.00  0.00    +0.000 N 
ATOM     28  H   UNL     1      -3.640  11.803  17.443  0.00  0.00    +0.000 HD
ENDBRANCH  14  19
ENDBRANCH  13  14
ENDBRANCH   1  13
BRANCH  12  29
ATOM     29  C   UNL     1       2.755   6.029  20.269  0.00  0.00    +0.000 C 
BRANCH  29  30
ATOM     30  C   UNL     1       2.064   4.685  20.293  0.00  0.00    +0.000 A 
ATOM     31  C   UNL     1       2.074   3.908  21.458  0.00  0.00    +0.000 A 
ATOM     32  C   UNL     1       1.580   2.605  21.446  0.00  0.00    +0.000 A 
ATOM     33  C   UNL     1       1.032   2.078  20.280  0.00  0.00    +0.000 A 
ATOM     34  C   UNL     1       0.937   2.868  19.137  0.00  0.00    +0.000 A 
ATOM     35  C   UNL     1       1.447   4.166  19.144  0.00  0.00    +0.000 A 
ENDBRANCH  29  30
ENDBRANCH  12  29
TORSDOF 5
ENDMDL
MODEL 8
REMARK VINA RESULT:      -8.4      1.435      2.512
REMARK  Name = 
REMARK  5 active torsions:
REMARK  status: ('A' for Active; 'I' for Inactive)
REMARK    1  A    between atoms: C_5  and  C_7
REMARK    2  A    between atoms: C_7  and  S_8
REMARK    3  A    between atoms: S_8  and  C_9
REMARK    4  A    between atoms: N_20  and  C_21
REMARK    5  A    between atoms: C_21  and  C_22
REMARK                            x       y       z     vdW  Elec       q    Type
REMARK                         _______ _______ _______ _____ _____    ______ ____
ROOT
ATOM      1  C   UNL     1       2.778   6.284  18.127  0.00  0.00    +0.000 A 
ATOM      2  N   UNL     1       2.017   5.832  19.074  0.00  0.00    +0.000 NA
ATOM      3  C   UNL     1       2.152   4.490  19.457  0.00  0.00    +0.000 A 
ATOM      4  C   UNL     1       1.517   4.041  20.619  0.00  0.00    +0.000 A 
ATOM      5  C   UNL     1       1.636   2.706  21.018  0.00  0.00    +0.000 A 
ATOM      6 CL   UNL     1       0.878   2.177  22.470  0.00  0.00    +0.000 Cl
ATOM      7  C   UNL     1       2.372   1.798  20.260  0.00  0.00    +0.000 A 
ATOM      8  C   UNL     1       3.028   2.241  19.114  0.00  0.00    +0.000 A 
ATOM      9  C   UNL     1       2.930   3.589  18.740  0.00  0.00    +0.000 A 
ATOM     10  C   UNL     1       3.739   4.121  17.636  0.00  0.00    +0.000 A 
ATOM     11  O   UNL     1       4.431   3.332  16.997  0.00  0.00    +0.000 OA
ATOM     12  N   UNL     1       3.703   5.502  17.437  0.00  0.00    +0.000 N 
ENDROOT
BRANCH   1  13
ATOM     13  S   UNL     1       2.678   8.005  17.795  0.00  0.00    +0.000 S 
BRANCH  13  14
ATOM     14  C   UNL     1       2.200   8.730  19.418  0.00  0.00    +0.000 C 
BRANCH  14  19
ATOM     15  O   UNL     1       0.227   9.570  24.003  0.00  0.00    +0.000 OA
ATOM     16  C   UNL     1      -0.003  10.095  22.915  0.00  0.00    +0.000 C 
ATOM     17  C   UNL     1       0.996  10.063  21.762  0.00  0.00    +0.000 C 
ATOM     18  N   UNL     1       0.449  10.297  20.417  0.00  0.00    +0.000 N 
ATOM     19  C   UNL     1       0.951   9.646  19.267  0.00  0.00    +0.000 C 
ATOM     20  O   UNL     1       0.387   9.722  18.169  0.00  0.00    +0.000 OA
ATOM     21  C   UNL     1      -0.645  11.251  20.364  0.00  0.00    +0.000 A 
ATOM     22  C   UNL     1      -1.016  11.930  19.194  0.00  0.00    +0.000 A 
ATOM     23  C   UNL     1      -2.091  12.833  19.182  0.00  0.00    +0.000 A 
ATOM     24  C   UNL     1      -2.823  13.075  20.339  0.00  0.00    +0.000 A 
ATOM     25  C   UNL     1      -2.475  12.419  21.517  0.00  0.00    +0.000 A 
ATOM     26  C   UNL     1      -1.386  11.525  21.530  0.00  0.00    +0.000 A 
ATOM     27  N   UNL     1      -1.099  10.891  22.743  0.00  0.00    +0.000 N 
ATOM     28  H   UNL     1      -1.708  11.011  23.547  0.00  0.00    +0.000 HD
ENDBRANCH  14  19
ENDBRANCH  13  14
ENDBRANCH   1  13
BRANCH  12  29
ATOM     29  C   UNL     1       4.724   6.020  16.513  0.00  0.00    +0.000 C 
BRANCH  29  30
ATOM     30  C   UNL     1       6.018   6.382  17.206  0.00  0.00    +0.000 A 
ATOM     31  C   UNL     1       6.563   5.527  18.171  0.00  0.00    +0.000 A 
ATOM     32  C   UNL     1       7.665   5.921  18.927  0.00  0.00    +0.000 A 
ATOM     33  C   UNL     1       8.262   7.158  18.697  0.00  0.00    +0.000 A 
ATOM     34  C   UNL     1       7.783   7.983  17.683  0.00  0.00    +0.000 A 
ATOM     35  C   UNL     1       6.669   7.596  16.937  0.00  0.00    +0.000 A 
ENDBRANCH  29  30
ENDBRANCH  12  29
TORSDOF 5
ENDMDL
MODEL 9
REMARK VINA RESULT:      -8.4      1.823      2.079
REMARK  Name = 
REMARK  5 active torsions:
REMARK  status: ('A' for Active; 'I' for Inactive)
REMARK    1  A    between atoms: C_5  and  C_7
REMARK    2  A    between atoms: C_7  and  S_8
REMARK    3  A    between atoms: S_8  and  C_9
REMARK    4  A    between atoms: N_20  and  C_21
REMARK    5  A    between atoms: C_21  and  C_22
REMARK                            x       y       z     vdW  Elec       q    Type
REMARK                         _______ _______ _______ _____ _____    ______ ____
ROOT
ATOM      1  C   UNL     1       2.963   6.808  18.293  0.00  0.00    +0.000 A 
ATOM      2  N   UNL     1       2.219   6.309  19.229  0.00  0.00    +0.000 NA
ATOM      3  C   UNL     1       2.245   4.923  19.437  0.00  0.00    +0.000 A 
ATOM      4  C   UNL     1       1.639   4.387  20.577  0.00  0.00    +0.000 A 
ATOM      5  C   UNL     1       1.650   3.007  20.802  0.00  0.00    +0.000 A 
ATOM      6 CL   UNL     1       0.932   2.368  22.228  0.00  0.00    +0.000 Cl
ATOM      7  C   UNL     1       2.248   2.141  19.889  0.00  0.00    +0.000 A 
ATOM      8  C   UNL     1       2.876   2.666  18.761  0.00  0.00    +0.000 A 
ATOM      9  C   UNL     1       2.887   4.055  18.562  0.00  0.00    +0.000 A 
ATOM     10  C   UNL     1       3.678   4.648  17.477  0.00  0.00    +0.000 A 
ATOM     11  O   UNL     1       4.251   3.889  16.699  0.00  0.00    +0.000 OA
ATOM     12  N   UNL     1       3.765   6.041  17.450  0.00  0.00    +0.000 N 
ENDROOT
BRANCH   1  13
ATOM     13  S   UNL     1       3.013   8.559  18.181  0.00  0.00    +0.000 S 
BRANCH  13  14
ATOM     14  C   UNL     1       1.237   9.035  18.077  0.00  0.00    +0.000 C 
BRANCH  14  19
ATOM     15  O   UNL     1       2.489  13.939  18.101  0.00  0.00    +0.000 OA
ATOM     16  C   UNL     1       1.758  13.288  18.844  0.00  0.00    +0.000 C 
ATOM     17  C   UNL     1       1.125  11.966  18.419  0.00  0.00    +0.000 C 
ATOM     18  N   UNL     1       0.677  11.078  19.503  0.00  0.00    +0.000 N 
ATOM     19  C   UNL     1       0.757   9.669  19.415  0.00  0.00    +0.000 C 
ATOM     20  O   UNL     1       0.532   8.936  20.385  0.00  0.00    +0.000 OA
ATOM     21  C   UNL     1       0.144  11.763  20.667  0.00  0.00    +0.000 A 
ATOM     22  C   UNL     1      -0.707  11.147  21.597  0.00  0.00    +0.000 A 
ATOM     23  C   UNL     1      -1.188  11.840  22.720  0.00  0.00    +0.000 A 
ATOM     24  C   UNL     1      -0.826  13.165  22.940  0.00  0.00    +0.000 A 
ATOM     25  C   UNL     1       0.014  13.804  22.031  0.00  0.00    +0.000 A 
ATOM     26  C   UNL     1       0.482  13.110  20.898  0.00  0.00    +0.000 A 
ATOM     27  N   UNL     1       1.332  13.807  20.033  0.00  0.00    +0.000 N 
ATOM     28  H   UNL     1       1.658  14.740  20.267  0.00  0.00    +0.000 HD
ENDBRANCH  14  19
ENDBRANCH  13  14
ENDBRANCH   1  13
BRANCH  12  29
ATOM     29  C   UNL     1       4.776   6.580  16.526  0.00  0.00    +0.000 C 
BRANCH  29  30
ATOM     30  C   UNL     1       6.101   6.858  17.197  0.00  0.00    +0.000 A 
ATOM     31  C   UNL     1       6.679   5.901  18.039  0.00  0.00    +0.000 A 
ATOM     32  C   UNL     1       7.816   6.206  18.785  0.00  0.00    +0.000 A 
ATOM     33  C   UNL     1       8.412   7.459  18.666  0.00  0.00    +0.000 A 
ATOM     34  C   UNL     1       7.898   8.392  17.770  0.00  0.00    +0.000 A 
ATOM     35  C   UNL     1       6.750   8.092  17.035  0.00  0.00    +0.000 A 
ENDBRANCH  29  30
ENDBRANCH  12  29
TORSDOF 5
ENDMDL
