MODEL 1
REMARK VINA RESULT:      -8.6      0.000      0.000
REMARK  Name = 
REMARK  5 active torsions:
REMARK  status: ('A' for Active; 'I' for Inactive)
REMARK    1  A    between atoms: C_2  and  C_18
REMARK    2  A    between atoms: N_3  and  C_4
REMARK    3  A    between atoms: C_8  and  C_9
REMARK    4  A    between atoms: C_9  and  N_10
REMARK    5  A    between atoms: C_23  and  C_24
REMARK                            x       y       z     vdW  Elec       q    Type
REMARK                         _______ _______ _______ _____ _____    ______ ____
ROOT
ATOM      1  O   UNL     1       2.030   7.233  18.138  0.00  0.00    +0.000 OA
ATOM      2  C   UNL     1       2.495   6.717  19.153  0.00  0.00    +0.000 C 
ATOM      3  N   UNL     1       2.324   7.228  20.431  0.00  0.00    +0.000 N 
ATOM      4  H   UNL     1       2.987   6.971  21.154  0.00  0.00    +0.000 HD
ENDROOT
BRANCH   3   5
ATOM      5  C   UNL     1       1.462   8.322  20.723  0.00  0.00    +0.000 A 
ATOM      6  C   UNL     1       0.924   8.522  21.999  0.00  0.00    +0.000 A 
ATOM      7  C   UNL     1       0.002   9.536  22.248  0.00  0.00    +0.000 A 
ATOM      8  C   UNL     1      -0.368  10.398  21.224  0.00  0.00    +0.000 A 
ATOM      9  C   UNL     1       0.209  10.274  19.952  0.00  0.00    +0.000 A 
ATOM     10  C   UNL     1       1.133   9.232  19.712  0.00  0.00    +0.000 A 
BRANCH   9  11
ATOM     11  C   UNL     1      -0.124  11.288  18.880  0.00  0.00    +0.000 C 
BRANCH  11  12
ATOM     12  N   UNL     1      -1.466  11.081  18.346  0.00  0.00    +0.000 N 
ATOM     13  C   UNL     1      -1.700  10.059  17.450  0.00  0.00    +0.000 A 
ATOM     14  C   UNL     1      -2.930   9.793  17.015  0.00  0.00    +0.000 A 
ATOM     15  C   UNL     1      -3.974  10.652  17.584  0.00  0.00    +0.000 A 
ATOM     16  N   UNL     1      -3.785  11.621  18.410  0.00  0.00    +0.000 NA
ATOM     17  C   UNL     1      -2.503  11.890  18.830  0.00  0.00    +0.000 A 
ATOM     18  O   UNL     1      -2.284  12.808  19.620  0.00  0.00    +0.000 OA
ENDBRANCH  11  12
ENDBRANCH   9  11
ENDBRANCH   3   5
BRANCH   2  19
ATOM     19  C   UNL     1       3.389   5.478  19.031  0.00  0.00    +0.000 C 
ATOM     20  C   UNL     1       3.594   5.189  17.527  0.00  0.00    +0.000 C 
ATOM     21  C   UNL     1       4.466   3.976  17.250  0.00  0.00    +0.000 C 
ATOM     22  C   UNL     1       3.956   2.749  17.986  0.00  0.00    +0.000 C 
ATOM     23  C   UNL     1       3.818   3.023  19.484  0.00  0.00    +0.000 C 
ATOM     24  C   UNL     1       2.900   4.228  19.795  0.00  0.00    +0.000 C 
BRANCH  24  25
ATOM     25  C   UNL     1       1.416   3.879  19.597  0.00  0.00    +0.000 C 
ATOM     26  F   UNL     1       0.593   4.557  20.415  0.00  0.00    +0.000 F 
ATOM     27  F   UNL     1       0.995   4.095  18.333  0.00  0.00    +0.000 F 
ATOM     28  F   UNL     1       1.230   2.559  19.844  0.00  0.00    +0.000 F 
ENDBRANCH  24  25
ENDBRANCH   2  19
TORSDOF 5
ENDMDL
MODEL 2
REMARK VINA RESULT:      -8.3      3.387      8.047
REMARK  Name = 
REMARK  5 active torsions:
REMARK  status: ('A' for Active; 'I' for Inactive)
REMARK    1  A    between atoms: C_2  and  C_18
REMARK    2  A    between atoms: N_3  and  C_4
REMARK    3  A    between atoms: C_8  and  C_9
REMARK    4  A    between atoms: C_9  and  N_10
REMARK    5  A    between atoms: C_23  and  C_24
REMARK                            x       y       z     vdW  Elec       q    Type
REMARK                         _______ _______ _______ _____ _____    ______ ____
ROOT
ATOM      1  O   UNL     1      -0.376   7.739  21.285  0.00  0.00    +0.000 OA
ATOM      2  C   UNL     1       0.630   8.440  21.189  0.00  0.00    +0.000 C 
ATOM      3  N   UNL     1       1.865   7.972  20.767  0.00  0.00    +0.000 N 
ATOM      4  H   UNL     1       2.699   8.486  21.028  0.00  0.00    +0.000 HD
ENDROOT
BRANCH   3   5
ATOM      5  C   UNL     1       2.065   6.661  20.250  0.00  0.00    +0.000 A 
ATOM      6  C   UNL     1       1.394   5.549  20.771  0.00  0.00    +0.000 A 
ATOM      7  C   UNL     1       1.673   4.259  20.327  0.00  0.00    +0.000 A 
ATOM      8  C   UNL     1       2.607   4.064  19.318  0.00  0.00    +0.000 A 
ATOM      9  C   UNL     1       3.242   5.162  18.721  0.00  0.00    +0.000 A 
ATOM     10  C   UNL     1       2.958   6.463  19.191  0.00  0.00    +0.000 A 
BRANCH   9  11
ATOM     11  C   UNL     1       4.174   4.938  17.551  0.00  0.00    +0.000 C 
BRANCH  11  12
ATOM     12  N   UNL     1       5.441   5.640  17.733  0.00  0.00    +0.000 N 
ATOM     13  C   UNL     1       6.258   5.317  18.797  0.00  0.00    +0.000 A 
ATOM     14  C   UNL     1       7.458   5.878  18.938  0.00  0.00    +0.000 A 
ATOM     15  C   UNL     1       7.816   6.820  17.873  0.00  0.00    +0.000 A 
ATOM     16  N   UNL     1       7.070   7.152  16.878  0.00  0.00    +0.000 NA
ATOM     17  C   UNL     1       5.827   6.574  16.763  0.00  0.00    +0.000 A 
ATOM     18  O   UNL     1       5.086   6.866  15.824  0.00  0.00    +0.000 OA
ENDBRANCH  11  12
ENDBRANCH   9  11
ENDBRANCH   3   5
BRANCH   2  19
ATOM     19  C   UNL     1       0.574   9.907  21.631  0.00  0.00    +0.000 C 
ATOM     20  C   UNL     1      -0.753  10.123  22.392  0.00  0.00    +0.000 C 
ATOM     21  C   UNL     1      -0.948  11.544  22.891  0.00  0.00    +0.000 C 
ATOM     22  C   UNL     1      -0.783  12.553  21.768  0.00  0.00    +0.000 C 
ATOM     23  C   UNL     1       0.561  12.375  21.061  0.00  0.00    +0.000 C 
ATOM     24  C   UNL     1       0.767  10.948  20.505  0.00  0.00    +0.000 C 
BRANCH  24  25
ATOM     25  C   UNL     1      -0.069  10.704  19.239  0.00  0.00    +0.000 C 
ATOM     26  F   UNL     1       0.483   9.815  18.396  0.00  0.00    +0.000 F 
ATOM     27  F   UNL     1      -1.318  10.274  19.516  0.00  0.00    +0.000 F 
ATOM     28  F   UNL     1      -0.206  11.870  18.561  0.00  0.00    +0.000 F 
ENDBRANCH  24  25
ENDBRANCH   2  19
TORSDOF 5
ENDMDL
MODEL 3
REMARK VINA RESULT:      -8.2      1.051      1.290
REMARK  Name = 
REMARK  5 active torsions:
REMARK  status: ('A' for Active; 'I' for Inactive)
REMARK    1  A    between atoms: C_2  and  C_18
REMARK    2  A    between atoms: N_3  and  C_4
REMARK    3  A    between atoms: C_8  and  C_9
REMARK    4  A    between atoms: C_9  and  N_10
REMARK    5  A    between atoms: C_23  and  C_24
REMARK                            x       y       z     vdW  Elec       q    Type
REMARK                         _______ _______ _______ _____ _____    ______ ____
ROOT
ATOM      1  O   UNL     1       1.991   5.712  20.759  0.00  0.00    +0.000 OA
ATOM      2  C   UNL     1       2.626   6.221  19.836  0.00  0.00    +0.000 C 
ATOM      3  N   UNL     1       2.403   7.501  19.353  0.00  0.00    +0.000 N 
ATOM      4  H   UNL     1       2.701   7.729  18.411  0.00  0.00    +0.000 HD
ENDROOT
BRANCH   3   5
ATOM      5  C   UNL     1       1.515   8.424  19.975  0.00  0.00    +0.000 A 
ATOM      6  C   UNL     1       1.139   8.300  21.317  0.00  0.00    +0.000 A 
ATOM      7  C   UNL     1       0.192   9.147  21.887  0.00  0.00    +0.000 A 
ATOM      8  C   UNL     1      -0.368  10.166  21.128  0.00  0.00    +0.000 A 
ATOM      9  C   UNL     1       0.042  10.366  19.802  0.00  0.00    +0.000 A 
ATOM     10  C   UNL     1       0.994   9.491  19.234  0.00  0.00    +0.000 A 
BRANCH   9  11
ATOM     11  C   UNL     1      -0.497  11.547  19.025  0.00  0.00    +0.000 C 
BRANCH  11  12
ATOM     12  N   UNL     1      -1.827  11.272  18.488  0.00  0.00    +0.000 N 
ATOM     13  C   UNL     1      -1.990  10.305  17.518  0.00  0.00    +0.000 A 
ATOM     14  C   UNL     1      -3.201   9.973  17.076  0.00  0.00    +0.000 A 
ATOM     15  C   UNL     1      -4.302  10.698  17.718  0.00  0.00    +0.000 A 
ATOM     16  N   UNL     1      -4.180  11.614  18.614  0.00  0.00    +0.000 NA
ATOM     17  C   UNL     1      -2.918  11.954  19.043  0.00  0.00    +0.000 A 
ATOM     18  O   UNL     1      -2.762  12.825  19.899  0.00  0.00    +0.000 OA
ENDBRANCH  11  12
ENDBRANCH   9  11
ENDBRANCH   3   5
BRANCH   2  19
ATOM     19  C   UNL     1       3.683   5.391  19.097  0.00  0.00    +0.000 C 
ATOM     20  C   UNL     1       4.133   6.194  17.856  0.00  0.00    +0.000 C 
ATOM     21  C   UNL     1       5.185   5.487  17.019  0.00  0.00    +0.000 C 
ATOM     22  C   UNL     1       4.741   4.084  16.641  0.00  0.00    +0.000 C 
ATOM     23  C   UNL     1       4.359   3.275  17.880  0.00  0.00    +0.000 C 
ATOM     24  C   UNL     1       3.257   3.952  18.727  0.00  0.00    +0.000 C 
BRANCH  24  25
ATOM     25  C   UNL     1       1.874   3.827  18.068  0.00  0.00    +0.000 C 
ATOM     26  F   UNL     1       1.463   4.957  17.469  0.00  0.00    +0.000 F 
ATOM     27  F   UNL     1       1.826   2.842  17.146  0.00  0.00    +0.000 F 
ATOM     28  F   UNL     1       0.955   3.514  19.014  0.00  0.00    +0.000 F 
ENDBRANCH  24  25
ENDBRANCH   2  19
TORSDOF 5
ENDMDL
MODEL 4
REMARK VINA RESULT:      -8.2      3.267      7.855
REMARK  Name = 
REMARK  5 active torsions:
REMARK  status: ('A' for Active; 'I' for Inactive)
REMARK    1  A    between atoms: C_2  and  C_18
REMARK    2  A    between atoms: N_3  and  C_4
REMARK    3  A    between atoms: C_8  and  C_9
REMARK    4  A    between atoms: C_9  and  N_10
REMARK    5  A    between atoms: C_23  and  C_24
REMARK                            x       y       z     vdW  Elec       q    Type
REMARK                         _______ _______ _______ _____ _____    ______ ____
ROOT
ATOM      1  O   UNL     1       1.929   8.465  19.166  0.00  0.00    +0.000 OA
ATOM      2  C   UNL     1       1.579   8.257  20.327  0.00  0.00    +0.000 C 
ATOM      3  N   UNL     1       1.477   6.995  20.893  0.00  0.00    +0.000 N 
ATOM      4  H   UNL     1       0.879   6.867  21.701  0.00  0.00    +0.000 HD
ENDROOT
BRANCH   3   5
ATOM      5  C   UNL     1       1.915   5.810  20.236  0.00  0.00    +0.000 A 
ATOM      6  C   UNL     1       1.471   4.541  20.623  0.00  0.00    +0.000 A 
ATOM      7  C   UNL     1       1.983   3.384  20.042  0.00  0.00    +0.000 A 
ATOM      8  C   UNL     1       2.925   3.481  19.026  0.00  0.00    +0.000 A 
ATOM      9  C   UNL     1       3.336   4.739  18.561  0.00  0.00    +0.000 A 
ATOM     10  C   UNL     1       2.817   5.903  19.170  0.00  0.00    +0.000 A 
BRANCH   9  11
ATOM     11  C   UNL     1       4.280   4.826  17.383  0.00  0.00    +0.000 C 
BRANCH  11  12
ATOM     12  N   UNL     1       5.493   5.564  17.722  0.00  0.00    +0.000 N 
ATOM     13  C   UNL     1       6.225   5.208  18.835  0.00  0.00    +0.000 A 
ATOM     14  C   UNL     1       7.381   5.804  19.118  0.00  0.00    +0.000 A 
ATOM     15  C   UNL     1       7.792   6.824  18.148  0.00  0.00    +0.000 A 
ATOM     16  N   UNL     1       7.124   7.187  17.108  0.00  0.00    +0.000 NA
ATOM     17  C   UNL     1       5.923   6.570  16.846  0.00  0.00    +0.000 A 
ATOM     18  O   UNL     1       5.257   6.890  15.862  0.00  0.00    +0.000 OA
ENDBRANCH  11  12
ENDBRANCH   9  11
ENDBRANCH   3   5
BRANCH   2  19
ATOM     19  C   UNL     1       1.144   9.434  21.208  0.00  0.00    +0.000 C 
ATOM     20  C   UNL     1       0.148   8.896  22.260  0.00  0.00    +0.000 C 
ATOM     21  C   UNL     1      -0.374   9.961  23.209  0.00  0.00    +0.000 C 
ATOM     22  C   UNL     1      -0.953  11.142  22.451  0.00  0.00    +0.000 C 
ATOM     23  C   UNL     1       0.061  11.710  21.458  0.00  0.00    +0.000 C 
ATOM     24  C   UNL     1       0.576  10.655  20.452  0.00  0.00    +0.000 C 
BRANCH  24  25
ATOM     25  C   UNL     1      -0.476  10.331  19.379  0.00  0.00    +0.000 C 
ATOM     26  F   UNL     1      -1.417  11.281  19.247  0.00  0.00    +0.000 F 
ATOM     27  F   UNL     1       0.070  10.133  18.160  0.00  0.00    +0.000 F 
ATOM     28  F   UNL     1      -1.110   9.179  19.708  0.00  0.00    +0.000 F 
ENDBRANCH  24  25
ENDBRANCH   2  19
TORSDOF 5
ENDMDL
MODEL 5
REMARK VINA RESULT:      -8.2      0.941      1.278
REMARK  Name = 
REMARK  5 active torsions:
REMARK  status: ('A' for Active; 'I' for Inactive)
REMARK    1  A    between atoms: C_2  and  C_18
REMARK    2  A    between atoms: N_3  and  C_4
REMARK    3  A    between atoms: C_8  and  C_9
REMARK    4  A    between atoms: C_9  and  N_10
REMARK    5  A    between atoms: C_23  and  C_24
REMARK                            x       y       z     vdW  Elec       q    Type
REMARK                         _______ _______ _______ _____ _____    ______ ____
ROOT
ATOM      1  O   UNL     1       2.035   7.400  18.165  0.00  0.00    +0.000 OA
ATOM      2  C   UNL     1       2.489   6.855  19.171  0.00  0.00    +0.000 C 
ATOM      3  N   UNL     1       2.302   7.329  20.461  0.00  0.00    +0.000 N 
ATOM      4  H   UNL     1       2.956   7.053  21.184  0.00  0.00    +0.000 HD
ENDROOT
BRANCH   3   5
ATOM      5  C   UNL     1       1.435   8.414  20.773  0.00  0.00    +0.000 A 
ATOM      6  C   UNL     1       0.966   8.638  22.073  0.00  0.00    +0.000 A 
ATOM      7  C   UNL     1       0.038   9.640  22.347  0.00  0.00    +0.000 A 
ATOM      8  C   UNL     1      -0.407  10.467  21.325  0.00  0.00    +0.000 A 
ATOM      9  C   UNL     1       0.100  10.319  20.026  0.00  0.00    +0.000 A 
ATOM     10  C   UNL     1       1.030   9.290  19.760  0.00  0.00    +0.000 A 
BRANCH   9  11
ATOM     11  C   UNL     1      -0.314  11.298  18.949  0.00  0.00    +0.000 C 
BRANCH  11  12
ATOM     12  N   UNL     1      -1.752  11.244  18.700  0.00  0.00    +0.000 N 
ATOM     13  C   UNL     1      -2.603  12.066  19.409  0.00  0.00    +0.000 A 
ATOM     14  C   UNL     1      -3.907  12.101  19.141  0.00  0.00    +0.000 A 
ATOM     15  C   UNL     1      -4.324  11.227  18.041  0.00  0.00    +0.000 A 
ATOM     16  N   UNL     1      -3.557  10.439  17.372  0.00  0.00    +0.000 NA
ATOM     17  C   UNL     1      -2.216  10.405  17.679  0.00  0.00    +0.000 A 
ATOM     18  O   UNL     1      -1.452   9.666  17.059  0.00  0.00    +0.000 OA
ENDBRANCH  11  12
ENDBRANCH   9  11
ENDBRANCH   3   5
BRANCH   2  19
ATOM     19  C   UNL     1       3.386   5.621  19.024  0.00  0.00    +0.000 C 
ATOM     20  C   UNL     1       3.587   5.359  17.515  0.00  0.00    +0.000 C 
ATOM     21  C   UNL     1       4.461   4.153  17.214  0.00  0.00    +0.000 C 
ATOM     22  C   UNL     1       3.957   2.912  17.930  0.00  0.00    +0.000 C 
ATOM     23  C   UNL     1       3.822   3.160  19.433  0.00  0.00    +0.000 C 
ATOM     24  C   UNL     1       2.902   4.356  19.768  0.00  0.00    +0.000 C 
BRANCH  24  25
ATOM     25  C   UNL     1       1.419   4.006  19.569  0.00  0.00    +0.000 C 
ATOM     26  F   UNL     1       0.595   4.682  20.388  0.00  0.00    +0.000 F 
ATOM     27  F   UNL     1       0.998   4.227  18.305  0.00  0.00    +0.000 F 
ATOM     28  F   UNL     1       1.233   2.686  19.810  0.00  0.00    +0.000 F 
ENDBRANCH  24  25
ENDBRANCH   2  19
TORSDOF 5
ENDMDL
MODEL 6
REMARK VINA RESULT:      -8.1      1.354      1.694
REMARK  Name = 
REMARK  5 active torsions:
REMARK  status: ('A' for Active; 'I' for Inactive)
REMARK    1  A    between atoms: C_2  and  C_18
REMARK    2  A    between atoms: N_3  and  C_4
REMARK    3  A    between atoms: C_8  and  C_9
REMARK    4  A    between atoms: C_9  and  N_10
REMARK    5  A    between atoms: C_23  and  C_24
REMARK                            x       y       z     vdW  Elec       q    Type
REMARK                         _______ _______ _______ _____ _____    ______ ____
ROOT
ATOM      1  O   UNL     1       1.730   5.912  20.694  0.00  0.00    +0.000 OA
ATOM      2  C   UNL     1       2.413   6.381  19.784  0.00  0.00    +0.000 C 
ATOM      3  N   UNL     1       2.263   7.666  19.285  0.00  0.00    +0.000 N 
ATOM      4  H   UNL     1       2.598   7.870  18.351  0.00  0.00    +0.000 HD
ENDROOT
BRANCH   3   5
ATOM      5  C   UNL     1       1.404   8.635  19.876  0.00  0.00    +0.000 A 
ATOM      6  C   UNL     1       1.115   8.633  21.245  0.00  0.00    +0.000 A 
ATOM      7  C   UNL     1       0.195   9.523  21.794  0.00  0.00    +0.000 A 
ATOM      8  C   UNL     1      -0.426  10.462  20.982  0.00  0.00    +0.000 A 
ATOM      9  C   UNL     1      -0.103  10.542  19.619  0.00  0.00    +0.000 A 
ATOM     10  C   UNL     1       0.823   9.625  19.075  0.00  0.00    +0.000 A 
BRANCH   9  11
ATOM     11  C   UNL     1      -0.706  11.641  18.773  0.00  0.00    +0.000 C 
BRANCH  11  12
ATOM     12  N   UNL     1      -2.149  11.471  18.624  0.00  0.00    +0.000 N 
ATOM     13  C   UNL     1      -3.011  12.178  19.435  0.00  0.00    +0.000 A 
ATOM     14  C   UNL     1      -4.330  12.109  19.262  0.00  0.00    +0.000 A 
ATOM     15  C   UNL     1      -4.752  11.255  18.147  0.00  0.00    +0.000 A 
ATOM     16  N   UNL     1      -3.972  10.573  17.383  0.00  0.00    +0.000 NA
ATOM     17  C   UNL     1      -2.615  10.644  17.593  0.00  0.00    +0.000 A 
ATOM     18  O   UNL     1      -1.838  10.007  16.882  0.00  0.00    +0.000 OA
ENDBRANCH  11  12
ENDBRANCH   9  11
ENDBRANCH   3   5
BRANCH   2  19
ATOM     19  C   UNL     1       3.448   5.495  19.082  0.00  0.00    +0.000 C 
ATOM     20  C   UNL     1       3.789   6.150  17.724  0.00  0.00    +0.000 C 
ATOM     21  C   UNL     1       4.809   5.374  16.910  0.00  0.00    +0.000 C 
ATOM     22  C   UNL     1       4.391   3.924  16.736  0.00  0.00    +0.000 C 
ATOM     23  C   UNL     1       4.118   3.264  18.088  0.00  0.00    +0.000 C 
ATOM     24  C   UNL     1       3.051   4.011  18.919  0.00  0.00    +0.000 C 
BRANCH  24  25
ATOM     25  C   UNL     1       1.633   3.768  18.377  0.00  0.00    +0.000 C 
ATOM     26  F   UNL     1       0.697   3.696  19.338  0.00  0.00    +0.000 F 
ATOM     27  F   UNL     1       1.241   4.720  17.504  0.00  0.00    +0.000 F 
ATOM     28  F   UNL     1       1.608   2.593  17.701  0.00  0.00    +0.000 F 
ENDBRANCH  24  25
ENDBRANCH   2  19
TORSDOF 5
ENDMDL
MODEL 7
REMARK VINA RESULT:      -8.0      3.397      8.169
REMARK  Name = 
REMARK  5 active torsions:
REMARK  status: ('A' for Active; 'I' for Inactive)
REMARK    1  A    between atoms: C_2  and  C_18
REMARK    2  A    between atoms: N_3  and  C_4
REMARK    3  A    between atoms: C_8  and  C_9
REMARK    4  A    between atoms: C_9  and  N_10
REMARK    5  A    between atoms: C_23  and  C_24
REMARK                            x       y       z     vdW  Elec       q    Type
REMARK                         _______ _______ _______ _____ _____    ______ ____
ROOT
ATOM      1  O   UNL     1      -0.399   7.771  21.288  0.00  0.00    +0.000 OA
ATOM      2  C   UNL     1       0.608   8.473  21.203  0.00  0.00    +0.000 C 
ATOM      3  N   UNL     1       1.844   8.009  20.777  0.00  0.00    +0.000 N 
ATOM      4  H   UNL     1       2.678   8.518  21.046  0.00  0.00    +0.000 HD
ENDROOT
BRANCH   3   5
ATOM      5  C   UNL     1       2.044   6.703  20.246  0.00  0.00    +0.000 A 
ATOM      6  C   UNL     1       1.389   5.582  20.769  0.00  0.00    +0.000 A 
ATOM      7  C   UNL     1       1.670   4.298  20.309  0.00  0.00    +0.000 A 
ATOM      8  C   UNL     1       2.587   4.118  19.282  0.00  0.00    +0.000 A 
ATOM      9  C   UNL     1       3.204   5.225  18.684  0.00  0.00    +0.000 A 
ATOM     10  C   UNL     1       2.920   6.521  19.170  0.00  0.00    +0.000 A 
BRANCH   9  11
ATOM     11  C   UNL     1       4.118   5.018  17.496  0.00  0.00    +0.000 C 
BRANCH  11  12
ATOM     12  N   UNL     1       5.462   5.523  17.759  0.00  0.00    +0.000 N 
ATOM     13  C   UNL     1       5.892   6.683  17.150  0.00  0.00    +0.000 A 
ATOM     14  C   UNL     1       7.079   7.213  17.439  0.00  0.00    +0.000 A 
ATOM     15  C   UNL     1       7.842   6.476  18.451  0.00  0.00    +0.000 A 
ATOM     16  N   UNL     1       7.474   5.384  19.026  0.00  0.00    +0.000 NA
ATOM     17  C   UNL     1       6.252   4.845  18.697  0.00  0.00    +0.000 A 
ATOM     18  O   UNL     1       5.865   3.803  19.226  0.00  0.00    +0.000 OA
ENDBRANCH  11  12
ENDBRANCH   9  11
ENDBRANCH   3   5
BRANCH   2  19
ATOM     19  C   UNL     1       0.553   9.934  21.662  0.00  0.00    +0.000 C 
ATOM     20  C   UNL     1      -0.782  10.146  22.410  0.00  0.00    +0.000 C 
ATOM     21  C   UNL     1      -0.978  11.562  22.924  0.00  0.00    +0.000 C 
ATOM     22  C   UNL     1      -0.797  12.583  21.815  0.00  0.00    +0.000 C 
ATOM     23  C   UNL     1       0.554  12.409  21.121  0.00  0.00    +0.000 C 
ATOM     24  C   UNL     1       0.761  10.987  20.550  0.00  0.00    +0.000 C 
BRANCH  24  25
ATOM     25  C   UNL     1      -0.062  10.762  19.272  0.00  0.00    +0.000 C 
ATOM     26  F   UNL     1      -0.245  11.880  18.549  0.00  0.00    +0.000 F 
ATOM     27  F   UNL     1       0.491   9.840  18.455  0.00  0.00    +0.000 F 
ATOM     28  F   UNL     1      -1.289  10.293  19.606  0.00  0.00    +0.000 F 
ENDBRANCH  24  25
ENDBRANCH   2  19
TORSDOF 5
ENDMDL
MODEL 8
REMARK VINA RESULT:      -8.0      3.240      7.965
REMARK  Name = 
REMARK  5 active torsions:
REMARK  status: ('A' for Active; 'I' for Inactive)
REMARK    1  A    between atoms: C_2  and  C_18
REMARK    2  A    between atoms: N_3  and  C_4
REMARK    3  A    between atoms: C_8  and  C_9
REMARK    4  A    between atoms: C_9  and  N_10
REMARK    5  A    between atoms: C_23  and  C_24
REMARK                            x       y       z     vdW  Elec       q    Type
REMARK                         _______ _______ _______ _____ _____    ______ ____
ROOT
ATOM      1  O   UNL     1       1.384   8.832  17.700  0.00  0.00    +0.000 OA
ATOM      2  C   UNL     1       1.381   9.260  18.854  0.00  0.00    +0.000 C 
ATOM      3  N   UNL     1       1.586   8.471  19.975  0.00  0.00    +0.000 N 
ATOM      4  H   UNL     1       1.242   8.795  20.872  0.00  0.00    +0.000 HD
ENDROOT
BRANCH   3   5
ATOM      5  C   UNL     1       1.975   7.104  19.904  0.00  0.00    +0.000 A 
ATOM      6  C   UNL     1       1.438   6.134  20.758  0.00  0.00    +0.000 A 
ATOM      7  C   UNL     1       1.900   4.821  20.748  0.00  0.00    +0.000 A 
ATOM      8  C   UNL     1       2.887   4.444  19.847  0.00  0.00    +0.000 A 
ATOM      9  C   UNL     1       3.394   5.371  18.925  0.00  0.00    +0.000 A 
ATOM     10  C   UNL     1       2.924   6.703  18.956  0.00  0.00    +0.000 A 
BRANCH   9  11
ATOM     11  C   UNL     1       4.389   4.917  17.881  0.00  0.00    +0.000 C 
BRANCH  11  12
ATOM     12  N   UNL     1       5.613   5.710  17.926  0.00  0.00    +0.000 N 
ATOM     13  C   UNL     1       6.534   5.496  18.930  0.00  0.00    +0.000 A 
ATOM     14  C   UNL     1       7.698   6.143  18.945  0.00  0.00    +0.000 A 
ATOM     15  C   UNL     1       7.901   7.054  17.814  0.00  0.00    +0.000 A 
ATOM     16  N   UNL     1       7.056   7.284  16.871  0.00  0.00    +0.000 NA
ATOM     17  C   UNL     1       5.852   6.619  16.886  0.00  0.00    +0.000 A 
ATOM     18  O   UNL     1       5.019   6.813  16.001  0.00  0.00    +0.000 OA
ENDBRANCH  11  12
ENDBRANCH   9  11
ENDBRANCH   3   5
BRANCH   2  19
ATOM     19  C   UNL     1       1.055  10.736  19.111  0.00  0.00    +0.000 C 
ATOM     20  C   UNL     1       0.847  10.917  20.632  0.00  0.00    +0.000 C 
ATOM     21  C   UNL     1       0.511  12.341  21.038  0.00  0.00    +0.000 C 
ATOM     22  C   UNL     1      -0.671  12.878  20.250  0.00  0.00    +0.000 C 
ATOM     23  C   UNL     1      -0.431  12.755  18.745  0.00  0.00    +0.000 C 
ATOM     24  C   UNL     1      -0.129  11.306  18.298  0.00  0.00    +0.000 C 
BRANCH  24  25
ATOM     25  C   UNL     1      -1.397  10.437  18.291  0.00  0.00    +0.000 C 
ATOM     26  F   UNL     1      -1.478   9.617  17.229  0.00  0.00    +0.000 F 
ATOM     27  F   UNL     1      -1.510   9.673  19.398  0.00  0.00    +0.000 F 
ATOM     28  F   UNL     1      -2.490  11.239  18.264  0.00  0.00    +0.000 F 
ENDBRANCH  24  25
ENDBRANCH   2  19
TORSDOF 5
ENDMDL
MODEL 9
REMARK VINA RESULT:      -8.0      1.644      2.555
REMARK  Name = 
REMARK  5 active torsions:
REMARK  status: ('A' for Active; 'I' for Inactive)
REMARK    1  A    between atoms: C_2  and  C_18
REMARK    2  A    between atoms: N_3  and  C_4
REMARK    3  A    between atoms: C_8  and  C_9
REMARK    4  A    between atoms: C_9  and  N_10
REMARK    5  A    between atoms: C_23  and  C_24
REMARK                            x       y       z     vdW  Elec       q    Type
REMARK                         _______ _______ _______ _____ _____    ______ ____
ROOT
ATOM      1  O   UNL     1       2.170   7.235  18.183  0.00  0.00    +0.000 OA
ATOM      2  C   UNL     1       2.534   6.707  19.233  0.00  0.00    +0.000 C 
ATOM      3  N   UNL     1       2.287   7.232  20.493  0.00  0.00    +0.000 N 
ATOM      4  H   UNL     1       2.882   6.954  21.265  0.00  0.00    +0.000 HD
ENDROOT
BRANCH   3   5
ATOM      5  C   UNL     1       1.450   8.362  20.714  0.00  0.00    +0.000 A 
ATOM      6  C   UNL     1       0.918   8.655  21.975  0.00  0.00    +0.000 A 
ATOM      7  C   UNL     1       0.020   9.703  22.158  0.00  0.00    +0.000 A 
ATOM      8  C   UNL     1      -0.333  10.506  21.082  0.00  0.00    +0.000 A 
ATOM      9  C   UNL     1       0.239  10.287  19.820  0.00  0.00    +0.000 A 
ATOM     10  C   UNL     1       1.140   9.213  19.647  0.00  0.00    +0.000 A 
BRANCH   9  11
ATOM     11  C   UNL     1      -0.073  11.238  18.686  0.00  0.00    +0.000 C 
BRANCH  11  12
ATOM     12  N   UNL     1       0.746  12.444  18.758  0.00  0.00    +0.000 N 
ATOM     13  C   UNL     1       2.078  12.393  18.402  0.00  0.00    +0.000 A 
ATOM     14  C   UNL     1       2.825  13.495  18.373  0.00  0.00    +0.000 A 
ATOM     15  C   UNL     1       2.106  14.725  18.724  0.00  0.00    +0.000 A 
ATOM     16  N   UNL     1       0.870  14.801  19.073  0.00  0.00    +0.000 NA
ATOM     17  C   UNL     1       0.122  13.647  19.114  0.00  0.00    +0.000 A 
ATOM     18  O   UNL     1      -1.064  13.682  19.442  0.00  0.00    +0.000 OA
ENDBRANCH  11  12
ENDBRANCH   9  11
ENDBRANCH   3   5
BRANCH   2  19
ATOM     19  C   UNL     1       3.385   5.433  19.183  0.00  0.00    +0.000 C 
ATOM     20  C   UNL     1       3.623   5.080  17.698  0.00  0.00    +0.000 C 
ATOM     21  C   UNL     1       4.456   3.826  17.493  0.00  0.00    +0.000 C 
ATOM     22  C   UNL     1       3.879   2.647  18.257  0.00  0.00    +0.000 C 
ATOM     23  C   UNL     1       3.707   2.982  19.739  0.00  0.00    +0.000 C 
ATOM     24  C   UNL     1       2.827   4.230  19.977  0.00  0.00    +0.000 C 
BRANCH  24  25
ATOM     25  C   UNL     1       1.337   3.928  19.747  0.00  0.00    +0.000 C 
ATOM     26  F   UNL     1       0.517   4.663  20.517  0.00  0.00    +0.000 F 
ATOM     27  F   UNL     1       0.961   4.117  18.464  0.00  0.00    +0.000 F 
ATOM     28  F   UNL     1       1.096   2.625  20.030  0.00  0.00    +0.000 F 
ENDBRANCH  24  25
ENDBRANCH   2  19
TORSDOF 5
ENDMDL
