MODEL 1
REMARK VINA RESULT:      -8.5      0.000      0.000
REMARK  Name = 
REMARK  5 active torsions:
REMARK  status: ('A' for Active; 'I' for Inactive)
REMARK    1  A    between atoms: C_2  and  C_3
REMARK    2  A    between atoms: C_3  and  S_4
REMARK    3  A    between atoms: S_4  and  C_5
REMARK    4  A    between atoms: C_12  and  C_13
REMARK    5  A    between atoms: N_20  and  C_21
REMARK                            x       y       z     vdW  Elec       q    Type
REMARK                         _______ _______ _______ _____ _____    ______ ____
ROOT
ATOM      1  C   UNL     1       4.675   5.189  18.904  0.00  0.00    +0.000 A 
ATOM      2  N   UNL     1       5.470   4.095  18.878  0.00  0.00    +0.000 NA
ATOM      3  C   UNL     1       5.030   2.967  19.446  0.00  0.00    +0.000 A 
ATOM      4  N   UNL     1       3.886   2.798  20.094  0.00  0.00    +0.000 NA
ATOM      5  C   UNL     1       3.130   3.905  20.132  0.00  0.00    +0.000 A 
ATOM      6  S   UNL     1       1.671   3.843  20.999  0.00  0.00    +0.000 S 
ATOM      7  C   UNL     1       1.326   5.454  20.620  0.00  0.00    +0.000 A 
ATOM      8  C   UNL     1       2.288   6.057  19.818  0.00  0.00    +0.000 A 
ATOM      9  C   UNL     1       3.412   5.145  19.555  0.00  0.00    +0.000 A 
ENDROOT
BRANCH   8  10
ATOM     10  C   UNL     1       2.069   7.481  19.523  0.00  0.00    +0.000 A 
ATOM     11  C   UNL     1       1.465   8.311  20.468  0.00  0.00    +0.000 A 
ATOM     12  C   UNL     1       1.058   9.603  20.136  0.00  0.00    +0.000 A 
ATOM     13  C   UNL     1       1.191  10.063  18.830  0.00  0.00    +0.000 A 
ATOM     14  C   UNL     1       1.797   9.257  17.870  0.00  0.00    +0.000 A 
ATOM     15  C   UNL     1       2.261   7.984  18.221  0.00  0.00    +0.000 A 
ENDBRANCH   8  10
BRANCH   1  16
ATOM     16  S   UNL     1       5.334   6.664  18.178  0.00  0.00    +0.000 S 
BRANCH  16  17
ATOM     17  C   UNL     1       7.046   6.236  17.718  0.00  0.00    +0.000 C 
BRANCH  17  19
ATOM     18  O   UNL     1       8.071   4.362  16.681  0.00  0.00    +0.000 OA
ATOM     19  C   UNL     1       7.246   5.263  16.553  0.00  0.00    +0.000 C 
ATOM     20  N   UNL     1       6.565   5.536  15.379  0.00  0.00    +0.000 N 
ATOM     21  H   UNL     1       6.072   6.425  15.357  0.00  0.00    +0.000 HD
BRANCH  20  22
ATOM     22  C   UNL     1       6.704   4.877  14.122  0.00  0.00    +0.000 A 
ATOM     23  C   UNL     1       7.674   5.132  13.145  0.00  0.00    +0.000 A 
ATOM     24  F   UNL     1       8.736   5.913  13.376  0.00  0.00    +0.000 F 
ATOM     25  C   UNL     1       7.620   4.523  11.884  0.00  0.00    +0.000 A 
ATOM     26  C   UNL     1       6.619   3.603  11.585  0.00  0.00    +0.000 A 
ATOM     27  C   UNL     1       5.701   3.260  12.573  0.00  0.00    +0.000 A 
ATOM     28  C   UNL     1       5.756   3.889  13.821  0.00  0.00    +0.000 A 
ATOM     29  F   UNL     1       4.848   3.547  14.751  0.00  0.00    +0.000 F 
ENDBRANCH  20  22
ENDBRANCH  17  19
ENDBRANCH  16  17
ENDBRANCH   1  16
TORSDOF 5
ENDMDL
MODEL 2
REMARK VINA RESULT:      -8.3      4.016      8.112
REMARK  Name = 
REMARK  5 active torsions:
REMARK  status: ('A' for Active; 'I' for Inactive)
REMARK    1  A    between atoms: C_2  and  C_3
REMARK    2  A    between atoms: C_3  and  S_4
REMARK    3  A    between atoms: S_4  and  C_5
REMARK    4  A    between atoms: C_12  and  C_13
REMARK    5  A    between atoms: N_20  and  C_21
REMARK                            x       y       z     vdW  Elec       q    Type
REMARK                         _______ _______ _______ _____ _____    ______ ____
ROOT
ATOM      1  C   UNL     1       2.765   5.569  19.370  0.00  0.00    +0.000 A 
ATOM      2  N   UNL     1       1.776   5.749  20.275  0.00  0.00    +0.000 NA
ATOM      3  C   UNL     1       1.077   4.686  20.685  0.00  0.00    +0.000 A 
ATOM      4  N   UNL     1       1.211   3.436  20.262  0.00  0.00    +0.000 NA
ATOM      5  C   UNL     1       2.177   3.289  19.343  0.00  0.00    +0.000 A 
ATOM      6  S   UNL     1       2.400   1.749  18.664  0.00  0.00    +0.000 S 
ATOM      7  C   UNL     1       3.664   2.312  17.692  0.00  0.00    +0.000 A 
ATOM      8  C   UNL     1       3.953   3.658  17.878  0.00  0.00    +0.000 A 
ATOM      9  C   UNL     1       3.027   4.276  18.840  0.00  0.00    +0.000 A 
ENDROOT
BRANCH   8  10
ATOM     10  C   UNL     1       4.996   4.212  17.002  0.00  0.00    +0.000 A 
ATOM     11  C   UNL     1       4.791   4.287  15.625  0.00  0.00    +0.000 A 
ATOM     12  C   UNL     1       5.835   4.607  14.757  0.00  0.00    +0.000 A 
ATOM     13  C   UNL     1       7.121   4.798  15.253  0.00  0.00    +0.000 A 
ATOM     14  C   UNL     1       7.351   4.736  16.625  0.00  0.00    +0.000 A 
ATOM     15  C   UNL     1       6.289   4.475  17.498  0.00  0.00    +0.000 A 
ENDBRANCH   8  10
BRANCH   1  16
ATOM     16  S   UNL     1       3.621   7.023  18.832  0.00  0.00    +0.000 S 
BRANCH  16  17
ATOM     17  C   UNL     1       2.432   7.897  17.760  0.00  0.00    +0.000 C 
BRANCH  17  19
ATOM     18  O   UNL     1       0.691   9.511  17.722  0.00  0.00    +0.000 OA
ATOM     19  C   UNL     1       1.411   8.817  18.435  0.00  0.00    +0.000 C 
ATOM     20  N   UNL     1       1.448   8.894  19.816  0.00  0.00    +0.000 N 
ATOM     21  H   UNL     1       2.226   8.413  20.260  0.00  0.00    +0.000 HD
BRANCH  20  22
ATOM     22  C   UNL     1       0.714   9.783  20.656  0.00  0.00    +0.000 A 
ATOM     23  C   UNL     1       0.773  11.183  20.648  0.00  0.00    +0.000 A 
ATOM     24  F   UNL     1       1.399  11.868  19.684  0.00  0.00    +0.000 F 
ATOM     25  C   UNL     1       0.117  11.948  21.622  0.00  0.00    +0.000 A 
ATOM     26  C   UNL     1      -0.657  11.332  22.601  0.00  0.00    +0.000 A 
ATOM     27  C   UNL     1      -0.811   9.949  22.570  0.00  0.00    +0.000 A 
ATOM     28  C   UNL     1      -0.136   9.197  21.604  0.00  0.00    +0.000 A 
ATOM     29  F   UNL     1      -0.293   7.862  21.606  0.00  0.00    +0.000 F 
ENDBRANCH  20  22
ENDBRANCH  17  19
ENDBRANCH  16  17
ENDBRANCH   1  16
TORSDOF 5
ENDMDL
MODEL 3
REMARK VINA RESULT:      -8.3      4.463      7.801
REMARK  Name = 
REMARK  5 active torsions:
REMARK  status: ('A' for Active; 'I' for Inactive)
REMARK    1  A    between atoms: C_2  and  C_3
REMARK    2  A    between atoms: C_3  and  S_4
REMARK    3  A    between atoms: S_4  and  C_5
REMARK    4  A    between atoms: C_12  and  C_13
REMARK    5  A    between atoms: N_20  and  C_21
REMARK                            x       y       z     vdW  Elec       q    Type
REMARK                         _______ _______ _______ _____ _____    ______ ____
ROOT
ATOM      1  C   UNL     1       2.183   5.138  19.858  0.00  0.00    +0.000 A 
ATOM      2  N   UNL     1       0.981   4.738  20.332  0.00  0.00    +0.000 NA
ATOM      3  C   UNL     1       0.634   3.454  20.203  0.00  0.00    +0.000 A 
ATOM      4  N   UNL     1       1.331   2.498  19.605  0.00  0.00    +0.000 NA
ATOM      5  C   UNL     1       2.505   2.926  19.117  0.00  0.00    +0.000 A 
ATOM      6  S   UNL     1       3.462   1.816  18.260  0.00  0.00    +0.000 S 
ATOM      7  C   UNL     1       4.655   2.984  17.992  0.00  0.00    +0.000 A 
ATOM      8  C   UNL     1       4.365   4.218  18.561  0.00  0.00    +0.000 A 
ATOM      9  C   UNL     1       3.042   4.212  19.204  0.00  0.00    +0.000 A 
ENDROOT
BRANCH   8  10
ATOM     10  C   UNL     1       5.338   5.287  18.292  0.00  0.00    +0.000 A 
ATOM     11  C   UNL     1       5.223   6.071  17.145  0.00  0.00    +0.000 A 
ATOM     12  C   UNL     1       6.242   6.943  16.762  0.00  0.00    +0.000 A 
ATOM     13  C   UNL     1       7.426   6.996  17.492  0.00  0.00    +0.000 A 
ATOM     14  C   UNL     1       7.563   6.229  18.645  0.00  0.00    +0.000 A 
ATOM     15  C   UNL     1       6.514   5.401  19.061  0.00  0.00    +0.000 A 
ENDBRANCH   8  10
BRANCH   1  16
ATOM     16  S   UNL     1       2.565   6.860  20.016  0.00  0.00    +0.000 S 
BRANCH  16  17
ATOM     17  C   UNL     1       2.349   7.543  18.339  0.00  0.00    +0.000 C 
BRANCH  17  19
ATOM     18  O   UNL     1       2.165   9.730  17.431  0.00  0.00    +0.000 OA
ATOM     19  C   UNL     1       1.679   8.914  18.210  0.00  0.00    +0.000 C 
ATOM     20  N   UNL     1       0.633   9.188  19.074  0.00  0.00    +0.000 N 
ATOM     21  H   UNL     1       0.469   8.491  19.796  0.00  0.00    +0.000 HD
BRANCH  20  22
ATOM     22  C   UNL     1      -0.042  10.432  19.253  0.00  0.00    +0.000 A 
ATOM     23  C   UNL     1       0.269  11.426  20.189  0.00  0.00    +0.000 A 
ATOM     24  F   UNL     1       1.395  11.403  20.911  0.00  0.00    +0.000 F 
ATOM     25  C   UNL     1      -0.558  12.542  20.373  0.00  0.00    +0.000 A 
ATOM     26  C   UNL     1      -1.694  12.716  19.587  0.00  0.00    +0.000 A 
ATOM     27  C   UNL     1      -1.970  11.793  18.584  0.00  0.00    +0.000 A 
ATOM     28  C   UNL     1      -1.146  10.674  18.424  0.00  0.00    +0.000 A 
ATOM     29  F   UNL     1      -1.444   9.792  17.455  0.00  0.00    +0.000 F 
ENDBRANCH  20  22
ENDBRANCH  17  19
ENDBRANCH  16  17
ENDBRANCH   1  16
TORSDOF 5
ENDMDL
MODEL 4
REMARK VINA RESULT:      -8.2      4.489      7.835
REMARK  Name = 
REMARK  5 active torsions:
REMARK  status: ('A' for Active; 'I' for Inactive)
REMARK    1  A    between atoms: C_2  and  C_3
REMARK    2  A    between atoms: C_3  and  S_4
REMARK    3  A    between atoms: S_4  and  C_5
REMARK    4  A    between atoms: C_12  and  C_13
REMARK    5  A    between atoms: N_20  and  C_21
REMARK                            x       y       z     vdW  Elec       q    Type
REMARK                         _______ _______ _______ _____ _____    ______ ____
ROOT
ATOM      1  C   UNL     1       2.173   5.079  19.885  0.00  0.00    +0.000 A 
ATOM      2  N   UNL     1       0.974   4.673  20.364  0.00  0.00    +0.000 NA
ATOM      3  C   UNL     1       0.626   3.390  20.222  0.00  0.00    +0.000 A 
ATOM      4  N   UNL     1       1.318   2.442  19.605  0.00  0.00    +0.000 NA
ATOM      5  C   UNL     1       2.488   2.876  19.113  0.00  0.00    +0.000 A 
ATOM      6  S   UNL     1       3.438   1.778  18.234  0.00  0.00    +0.000 S 
ATOM      7  C   UNL     1       4.628   2.949  17.971  0.00  0.00    +0.000 A 
ATOM      8  C   UNL     1       4.343   4.176  18.558  0.00  0.00    +0.000 A 
ATOM      9  C   UNL     1       3.025   4.162  19.212  0.00  0.00    +0.000 A 
ENDROOT
BRANCH   8  10
ATOM     10  C   UNL     1       5.314   5.248  18.294  0.00  0.00    +0.000 A 
ATOM     11  C   UNL     1       5.223   6.009  17.128  0.00  0.00    +0.000 A 
ATOM     12  C   UNL     1       6.245   6.882  16.756  0.00  0.00    +0.000 A 
ATOM     13  C   UNL     1       7.408   6.960  17.517  0.00  0.00    +0.000 A 
ATOM     14  C   UNL     1       7.520   6.217  18.689  0.00  0.00    +0.000 A 
ATOM     15  C   UNL     1       6.467   5.389  19.092  0.00  0.00    +0.000 A 
ENDBRANCH   8  10
BRANCH   1  16
ATOM     16  S   UNL     1       2.555   6.799  20.061  0.00  0.00    +0.000 S 
BRANCH  16  17
ATOM     17  C   UNL     1       2.388   7.490  18.382  0.00  0.00    +0.000 C 
BRANCH  17  19
ATOM     18  O   UNL     1       2.156   9.633  17.384  0.00  0.00    +0.000 OA
ATOM     19  C   UNL     1       1.728   8.865  18.242  0.00  0.00    +0.000 C 
ATOM     20  N   UNL     1       0.762   9.199  19.176  0.00  0.00    +0.000 N 
ATOM     21  H   UNL     1       0.651   8.541  19.944  0.00  0.00    +0.000 HD
BRANCH  20  22
ATOM     22  C   UNL     1       0.122  10.461  19.349  0.00  0.00    +0.000 A 
ATOM     23  C   UNL     1      -0.803  11.057  18.481  0.00  0.00    +0.000 A 
ATOM     24  F   UNL     1      -1.355  10.395  17.458  0.00  0.00    +0.000 F 
ATOM     25  C   UNL     1      -1.253  12.369  18.681  0.00  0.00    +0.000 A 
ATOM     26  C   UNL     1      -0.826  13.102  19.785  0.00  0.00    +0.000 A 
ATOM     27  C   UNL     1       0.016  12.497  20.713  0.00  0.00    +0.000 A 
ATOM     28  C   UNL     1       0.471  11.194  20.492  0.00  0.00    +0.000 A 
ATOM     29  F   UNL     1       1.294  10.639  21.399  0.00  0.00    +0.000 F 
ENDBRANCH  20  22
ENDBRANCH  17  19
ENDBRANCH  16  17
ENDBRANCH   1  16
TORSDOF 5
ENDMDL
MODEL 5
REMARK VINA RESULT:      -8.2      4.079      8.434
REMARK  Name = 
REMARK  5 active torsions:
REMARK  status: ('A' for Active; 'I' for Inactive)
REMARK    1  A    between atoms: C_2  and  C_3
REMARK    2  A    between atoms: C_3  and  S_4
REMARK    3  A    between atoms: S_4  and  C_5
REMARK    4  A    between atoms: C_12  and  C_13
REMARK    5  A    between atoms: N_20  and  C_21
REMARK                            x       y       z     vdW  Elec       q    Type
REMARK                         _______ _______ _______ _____ _____    ______ ____
ROOT
ATOM      1  C   UNL     1       2.855   6.426  19.170  0.00  0.00    +0.000 A 
ATOM      2  N   UNL     1       1.905   6.812  20.053  0.00  0.00    +0.000 NA
ATOM      3  C   UNL     1       1.483   5.933  20.967  0.00  0.00    +0.000 A 
ATOM      4  N   UNL     1       1.862   4.669  21.089  0.00  0.00    +0.000 NA
ATOM      5  C   UNL     1       2.781   4.302  20.184  0.00  0.00    +0.000 A 
ATOM      6  S   UNL     1       3.295   2.684  20.183  0.00  0.00    +0.000 S 
ATOM      7  C   UNL     1       4.345   2.972  18.889  0.00  0.00    +0.000 A 
ATOM      8  C   UNL     1       4.343   4.291  18.452  0.00  0.00    +0.000 A 
ATOM      9  C   UNL     1       3.363   5.098  19.195  0.00  0.00    +0.000 A 
ENDROOT
BRANCH   8  10
ATOM     10  C   UNL     1       5.185   4.575  17.281  0.00  0.00    +0.000 A 
ATOM     11  C   UNL     1       4.690   4.374  15.993  0.00  0.00    +0.000 A 
ATOM     12  C   UNL     1       5.529   4.432  14.881  0.00  0.00    +0.000 A 
ATOM     13  C   UNL     1       6.896   4.631  15.048  0.00  0.00    +0.000 A 
ATOM     14  C   UNL     1       7.415   4.842  16.322  0.00  0.00    +0.000 A 
ATOM     15  C   UNL     1       6.561   4.844  17.430  0.00  0.00    +0.000 A 
ENDBRANCH   8  10
BRANCH   1  16
ATOM     16  S   UNL     1       3.338   7.619  17.953  0.00  0.00    +0.000 S 
BRANCH  16  17
ATOM     17  C   UNL     1       1.814   8.549  17.578  0.00  0.00    +0.000 C 
BRANCH  17  19
ATOM     18  O   UNL     1       2.044  10.676  18.609  0.00  0.00    +0.000 OA
ATOM     19  C   UNL     1       1.386   9.639  18.565  0.00  0.00    +0.000 C 
ATOM     20  N   UNL     1       0.350   9.335  19.431  0.00  0.00    +0.000 N 
ATOM     21  H   UNL     1       0.033   8.369  19.409  0.00  0.00    +0.000 HD
BRANCH  20  22
ATOM     22  C   UNL     1      -0.121  10.114  20.528  0.00  0.00    +0.000 A 
ATOM     23  C   UNL     1       0.105   9.868  21.888  0.00  0.00    +0.000 A 
ATOM     24  F   UNL     1       0.986   8.955  22.314  0.00  0.00    +0.000 F 
ATOM     25  C   UNL     1      -0.535  10.619  22.883  0.00  0.00    +0.000 A 
ATOM     26  C   UNL     1      -1.382  11.670  22.541  0.00  0.00    +0.000 A 
ATOM     27  C   UNL     1      -1.545  11.995  21.198  0.00  0.00    +0.000 A 
ATOM     28  C   UNL     1      -0.915  11.226  20.215  0.00  0.00    +0.000 A 
ATOM     29  F   UNL     1      -1.101  11.556  18.926  0.00  0.00    +0.000 F 
ENDBRANCH  20  22
ENDBRANCH  17  19
ENDBRANCH  16  17
ENDBRANCH   1  16
TORSDOF 5
ENDMDL
MODEL 6
REMARK VINA RESULT:      -8.1      4.044      8.017
REMARK  Name = 
REMARK  5 active torsions:
REMARK  status: ('A' for Active; 'I' for Inactive)
REMARK    1  A    between atoms: C_2  and  C_3
REMARK    2  A    between atoms: C_3  and  S_4
REMARK    3  A    between atoms: S_4  and  C_5
REMARK    4  A    between atoms: C_12  and  C_13
REMARK    5  A    between atoms: N_20  and  C_21
REMARK                            x       y       z     vdW  Elec       q    Type
REMARK                         _______ _______ _______ _____ _____    ______ ____
ROOT
ATOM      1  C   UNL     1       2.758   5.555  19.317  0.00  0.00    +0.000 A 
ATOM      2  N   UNL     1       1.763   5.730  20.217  0.00  0.00    +0.000 NA
ATOM      3  C   UNL     1       1.086   4.658  20.642  0.00  0.00    +0.000 A 
ATOM      4  N   UNL     1       1.246   3.405  20.238  0.00  0.00    +0.000 NA
ATOM      5  C   UNL     1       2.216   3.264  19.323  0.00  0.00    +0.000 A 
ATOM      6  S   UNL     1       2.472   1.719  18.668  0.00  0.00    +0.000 S 
ATOM      7  C   UNL     1       3.726   2.293  17.689  0.00  0.00    +0.000 A 
ATOM      8  C   UNL     1       3.988   3.647  17.856  0.00  0.00    +0.000 A 
ATOM      9  C   UNL     1       3.047   4.260  18.807  0.00  0.00    +0.000 A 
ENDROOT
BRANCH   8  10
ATOM     10  C   UNL     1       5.021   4.209  16.973  0.00  0.00    +0.000 A 
ATOM     11  C   UNL     1       4.827   4.237  15.592  0.00  0.00    +0.000 A 
ATOM     12  C   UNL     1       5.868   4.566  14.725  0.00  0.00    +0.000 A 
ATOM     13  C   UNL     1       7.143   4.812  15.226  0.00  0.00    +0.000 A 
ATOM     14  C   UNL     1       7.360   4.798  16.601  0.00  0.00    +0.000 A 
ATOM     15  C   UNL     1       6.300   4.528  17.472  0.00  0.00    +0.000 A 
ENDBRANCH   8  10
BRANCH   1  16
ATOM     16  S   UNL     1       3.585   7.018  18.757  0.00  0.00    +0.000 S 
BRANCH  16  17
ATOM     17  C   UNL     1       2.318   7.949  17.833  0.00  0.00    +0.000 C 
BRANCH  17  19
ATOM     18  O   UNL     1       1.454   8.881  19.840  0.00  0.00    +0.000 OA
ATOM     19  C   UNL     1       1.465   8.954  18.613  0.00  0.00    +0.000 C 
ATOM     20  N   UNL     1       0.665   9.808  17.875  0.00  0.00    +0.000 N 
ATOM     21  H   UNL     1       0.631   9.621  16.876  0.00  0.00    +0.000 HD
BRANCH  20  22
ATOM     22  C   UNL     1      -0.321  10.714  18.366  0.00  0.00    +0.000 A 
ATOM     23  C   UNL     1      -0.117  11.763  19.271  0.00  0.00    +0.000 A 
ATOM     24  F   UNL     1       1.105  12.168  19.636  0.00  0.00    +0.000 F 
ATOM     25  C   UNL     1      -1.191  12.495  19.796  0.00  0.00    +0.000 A 
ATOM     26  C   UNL     1      -2.495  12.227  19.389  0.00  0.00    +0.000 A 
ATOM     27  C   UNL     1      -2.713  11.256  18.417  0.00  0.00    +0.000 A 
ATOM     28  C   UNL     1      -1.634  10.521  17.915  0.00  0.00    +0.000 A 
ATOM     29  F   UNL     1      -1.876   9.580  16.987  0.00  0.00    +0.000 F 
ENDBRANCH  20  22
ENDBRANCH  17  19
ENDBRANCH  16  17
ENDBRANCH   1  16
TORSDOF 5
ENDMDL
MODEL 7
REMARK VINA RESULT:      -8.1      4.078      8.350
REMARK  Name = 
REMARK  5 active torsions:
REMARK  status: ('A' for Active; 'I' for Inactive)
REMARK    1  A    between atoms: C_2  and  C_3
REMARK    2  A    between atoms: C_3  and  S_4
REMARK    3  A    between atoms: S_4  and  C_5
REMARK    4  A    between atoms: C_12  and  C_13
REMARK    5  A    between atoms: N_20  and  C_21
REMARK                            x       y       z     vdW  Elec       q    Type
REMARK                         _______ _______ _______ _____ _____    ______ ____
ROOT
ATOM      1  C   UNL     1       2.894   6.364  19.178  0.00  0.00    +0.000 A 
ATOM      2  N   UNL     1       1.949   6.741  20.070  0.00  0.00    +0.000 NA
ATOM      3  C   UNL     1       1.524   5.850  20.971  0.00  0.00    +0.000 A 
ATOM      4  N   UNL     1       1.897   4.582  21.071  0.00  0.00    +0.000 NA
ATOM      5  C   UNL     1       2.811   4.225  20.158  0.00  0.00    +0.000 A 
ATOM      6  S   UNL     1       3.317   2.605  20.130  0.00  0.00    +0.000 S 
ATOM      7  C   UNL     1       4.365   2.907  18.838  0.00  0.00    +0.000 A 
ATOM      8  C   UNL     1       4.369   4.233  18.422  0.00  0.00    +0.000 A 
ATOM      9  C   UNL     1       3.395   5.034  19.181  0.00  0.00    +0.000 A 
ENDROOT
BRANCH   8  10
ATOM     10  C   UNL     1       5.210   4.531  17.254  0.00  0.00    +0.000 A 
ATOM     11  C   UNL     1       4.711   4.350  15.964  0.00  0.00    +0.000 A 
ATOM     12  C   UNL     1       5.549   4.422  14.851  0.00  0.00    +0.000 A 
ATOM     13  C   UNL     1       6.917   4.614  15.018  0.00  0.00    +0.000 A 
ATOM     14  C   UNL     1       7.438   4.806  16.295  0.00  0.00    +0.000 A 
ATOM     15  C   UNL     1       6.587   4.794  17.404  0.00  0.00    +0.000 A 
ENDBRANCH   8  10
BRANCH   1  16
ATOM     16  S   UNL     1       3.381   7.575  17.980  0.00  0.00    +0.000 S 
BRANCH  16  17
ATOM     17  C   UNL     1       1.838   8.438  17.533  0.00  0.00    +0.000 C 
BRANCH  17  19
ATOM     18  O   UNL     1       2.145  10.659  18.318  0.00  0.00    +0.000 OA
ATOM     19  C   UNL     1       1.437   9.656  18.370  0.00  0.00    +0.000 C 
ATOM     20  N   UNL     1       0.362   9.505  19.228  0.00  0.00    +0.000 N 
ATOM     21  H   UNL     1      -0.004   8.559  19.307  0.00  0.00    +0.000 HD
BRANCH  20  22
ATOM     22  C   UNL     1      -0.102  10.429  20.210  0.00  0.00    +0.000 A 
ATOM     23  C   UNL     1      -0.409  11.781  20.009  0.00  0.00    +0.000 A 
ATOM     24  F   UNL     1      -0.491  12.323  18.788  0.00  0.00    +0.000 F 
ATOM     25  C   UNL     1      -0.713  12.629  21.082  0.00  0.00    +0.000 A 
ATOM     26  C   UNL     1      -0.767  12.133  22.382  0.00  0.00    +0.000 A 
ATOM     27  C   UNL     1      -0.563  10.773  22.595  0.00  0.00    +0.000 A 
ATOM     28  C   UNL     1      -0.242   9.942  21.517  0.00  0.00    +0.000 A 
ATOM     29  F   UNL     1      -0.038   8.635  21.754  0.00  0.00    +0.000 F 
ENDBRANCH  20  22
ENDBRANCH  17  19
ENDBRANCH  16  17
ENDBRANCH   1  16
TORSDOF 5
ENDMDL
MODEL 8
REMARK VINA RESULT:      -8.1      3.944      8.008
REMARK  Name = 
REMARK  5 active torsions:
REMARK  status: ('A' for Active; 'I' for Inactive)
REMARK    1  A    between atoms: C_2  and  C_3
REMARK    2  A    between atoms: C_3  and  S_4
REMARK    3  A    between atoms: S_4  and  C_5
REMARK    4  A    between atoms: C_12  and  C_13
REMARK    5  A    between atoms: N_20  and  C_21
REMARK                            x       y       z     vdW  Elec       q    Type
REMARK                         _______ _______ _______ _____ _____    ______ ____
ROOT
ATOM      1  C   UNL     1       2.940   5.767  19.190  0.00  0.00    +0.000 A 
ATOM      2  N   UNL     1       1.977   6.113  20.076  0.00  0.00    +0.000 NA
ATOM      3  C   UNL     1       1.245   5.147  20.640  0.00  0.00    +0.000 A 
ATOM      4  N   UNL     1       1.319   3.847  20.392  0.00  0.00    +0.000 NA
ATOM      5  C   UNL     1       2.259   3.532  19.489  0.00  0.00    +0.000 A 
ATOM      6  S   UNL     1       2.404   1.906  19.026  0.00  0.00    +0.000 S 
ATOM      7  C   UNL     1       3.670   2.274  17.967  0.00  0.00    +0.000 A 
ATOM      8  C   UNL     1       4.018   3.619  17.961  0.00  0.00    +0.000 A 
ATOM      9  C   UNL     1       3.138   4.403  18.841  0.00  0.00    +0.000 A 
ENDROOT
BRANCH   8  10
ATOM     10  C   UNL     1       5.064   4.001  17.001  0.00  0.00    +0.000 A 
ATOM     11  C   UNL     1       6.326   4.389  17.452  0.00  0.00    +0.000 A 
ATOM     12  C   UNL     1       7.260   4.953  16.584  0.00  0.00    +0.000 A 
ATOM     13  C   UNL     1       6.920   5.197  15.256  0.00  0.00    +0.000 A 
ATOM     14  C   UNL     1       5.670   4.812  14.779  0.00  0.00    +0.000 A 
ATOM     15  C   UNL     1       4.758   4.190  15.638  0.00  0.00    +0.000 A 
ENDBRANCH   8  10
BRANCH   1  16
ATOM     16  S   UNL     1       3.843   7.094  18.442  0.00  0.00    +0.000 S 
BRANCH  16  17
ATOM     17  C   UNL     1       2.594   8.049  17.519  0.00  0.00    +0.000 C 
BRANCH  17  19
ATOM     18  O   UNL     1       2.212  10.339  18.021  0.00  0.00    +0.000 OA
ATOM     19  C   UNL     1       1.876   9.181  18.259  0.00  0.00    +0.000 C 
ATOM     20  N   UNL     1       0.971   8.819  19.241  0.00  0.00    +0.000 N 
ATOM     21  H   UNL     1       0.941   7.827  19.463  0.00  0.00    +0.000 HD
BRANCH  20  22
ATOM     22  C   UNL     1       0.300   9.676  20.163  0.00  0.00    +0.000 A 
ATOM     23  C   UNL     1      -0.569  10.728  19.847  0.00  0.00    +0.000 A 
ATOM     24  F   UNL     1      -1.036  10.924  18.608  0.00  0.00    +0.000 F 
ATOM     25  C   UNL     1      -1.053  11.598  20.833  0.00  0.00    +0.000 A 
ATOM     26  C   UNL     1      -0.718  11.406  22.171  0.00  0.00    +0.000 A 
ATOM     27  C   UNL     1       0.064  10.310  22.521  0.00  0.00    +0.000 A 
ATOM     28  C   UNL     1       0.555   9.460  21.524  0.00  0.00    +0.000 A 
ATOM     29  F   UNL     1       1.319   8.417  21.890  0.00  0.00    +0.000 F 
ENDBRANCH  20  22
ENDBRANCH  17  19
ENDBRANCH  16  17
ENDBRANCH   1  16
TORSDOF 5
ENDMDL
MODEL 9
REMARK VINA RESULT:      -8.1      4.791      7.973
REMARK  Name = 
REMARK  5 active torsions:
REMARK  status: ('A' for Active; 'I' for Inactive)
REMARK    1  A    between atoms: C_2  and  C_3
REMARK    2  A    between atoms: C_3  and  S_4
REMARK    3  A    between atoms: S_4  and  C_5
REMARK    4  A    between atoms: C_12  and  C_13
REMARK    5  A    between atoms: N_20  and  C_21
REMARK                            x       y       z     vdW  Elec       q    Type
REMARK                         _______ _______ _______ _____ _____    ______ ____
ROOT
ATOM      1  C   UNL     1       2.106   5.187  19.852  0.00  0.00    +0.000 A 
ATOM      2  N   UNL     1       0.900   4.771  20.303  0.00  0.00    +0.000 NA
ATOM      3  C   UNL     1       0.631   3.462  20.303  0.00  0.00    +0.000 A 
ATOM      4  N   UNL     1       1.413   2.489  19.856  0.00  0.00    +0.000 NA
ATOM      5  C   UNL     1       2.589   2.930  19.386  0.00  0.00    +0.000 A 
ATOM      6  S   UNL     1       3.654   1.791  18.714  0.00  0.00    +0.000 S 
ATOM      7  C   UNL     1       4.796   2.991  18.378  0.00  0.00    +0.000 A 
ATOM      8  C   UNL     1       4.407   4.262  18.786  0.00  0.00    +0.000 A 
ATOM      9  C   UNL     1       3.050   4.248  19.354  0.00  0.00    +0.000 A 
ENDROOT
BRANCH   8  10
ATOM     10  C   UNL     1       5.336   5.350  18.449  0.00  0.00    +0.000 A 
ATOM     11  C   UNL     1       5.088   6.172  17.350  0.00  0.00    +0.000 A 
ATOM     12  C   UNL     1       6.052   7.068  16.888  0.00  0.00    +0.000 A 
ATOM     13  C   UNL     1       7.309   7.110  17.484  0.00  0.00    +0.000 A 
ATOM     14  C   UNL     1       7.579   6.305  18.588  0.00  0.00    +0.000 A 
ATOM     15  C   UNL     1       6.589   5.452  19.087  0.00  0.00    +0.000 A 
ENDBRANCH   8  10
BRANCH   1  16
ATOM     16  S   UNL     1       2.385   6.936  19.832  0.00  0.00    +0.000 S 
BRANCH  16  17
ATOM     17  C   UNL     1       1.373   7.588  21.202  0.00  0.00    +0.000 C 
BRANCH  17  19
ATOM     18  O   UNL     1      -0.193   9.269  21.802  0.00  0.00    +0.000 OA
ATOM     19  C   UNL     1       0.655   8.922  20.983  0.00  0.00    +0.000 C 
ATOM     20  N   UNL     1       0.927   9.599  19.807  0.00  0.00    +0.000 N 
ATOM     21  H   UNL     1       1.502   9.095  19.136  0.00  0.00    +0.000 HD
BRANCH  20  22
ATOM     22  C   UNL     1       0.279  10.768  19.309  0.00  0.00    +0.000 A 
ATOM     23  C   UNL     1      -0.854  10.811  18.486  0.00  0.00    +0.000 A 
ATOM     24  F   UNL     1      -1.596   9.727  18.231  0.00  0.00    +0.000 F 
ATOM     25  C   UNL     1      -1.313  12.015  17.936  0.00  0.00    +0.000 A 
ATOM     26  C   UNL     1      -0.677  13.217  18.237  0.00  0.00    +0.000 A 
ATOM     27  C   UNL     1       0.390  13.212  19.129  0.00  0.00    +0.000 A 
ATOM     28  C   UNL     1       0.849  12.000  19.656  0.00  0.00    +0.000 A 
ATOM     29  F   UNL     1       1.890  12.025  20.506  0.00  0.00    +0.000 F 
ENDBRANCH  20  22
ENDBRANCH  17  19
ENDBRANCH  16  17
ENDBRANCH   1  16
TORSDOF 5
ENDMDL
