MODEL 1
REMARK VINA RESULT:      -8.7      0.000      0.000
REMARK  Name = 
REMARK  6 active torsions:
REMARK  status: ('A' for Active; 'I' for Inactive)
REMARK    1  A    between atoms: C_1  and  C_2
REMARK    2  A    between atoms: C_5  and  C_6
REMARK    3  A    between atoms: C_9  and  C_10
REMARK    4  A    between atoms: C_10  and  C_11
REMARK    5  A    between atoms: C_11  and  C_12
REMARK    6  A    between atoms: N_18  and  C_19
REMARK                            x       y       z     vdW  Elec       q    Type
REMARK                         _______ _______ _______ _____ _____    ______ ____
ROOT
ATOM      1  C   UNL     1       7.959   8.512  17.358  0.00  0.00    +0.000 C 
ENDROOT
BRANCH   1   2
ATOM      2  C   UNL     1       7.342   7.136  17.207  0.00  0.00    +0.000 C 
ATOM      3  O   UNL     1       7.506   6.498  16.167  0.00  0.00    +0.000 OA
ATOM      4  N   UNL     1       6.600   6.737  18.293  0.00  0.00    +0.000 N 
ATOM      5  C   UNL     1       5.968   5.521  18.350  0.00  0.00    +0.000 A 
ATOM      6  N   UNL     1       6.270   4.487  17.512  0.00  0.00    +0.000 NA
ATOM      7  C   UNL     1       5.405   3.559  17.832  0.00  0.00    +0.000 A 
ATOM      8  N   UNL     1       4.602   4.019  18.826  0.00  0.00    +0.000 N 
ATOM      9  N   UNL     1       4.995   5.250  19.230  0.00  0.00    +0.000 NA
ATOM     10  H   UNL     1       6.346   7.376  19.032  0.00  0.00    +0.000 HD
BRANCH   8  11
ATOM     11  C   UNL     1       3.407   3.367  19.350  0.00  0.00    +0.000 C 
ATOM     12  C   UNL     1       2.357   3.141  18.252  0.00  0.00    +0.000 C 
ATOM     13  C   UNL     1       1.093   2.479  18.798  0.00  0.00    +0.000 C 
ATOM     14  C   UNL     1       0.512   3.265  19.968  0.00  0.00    +0.000 C 
ATOM     15  C   UNL     1       1.545   3.455  21.073  0.00  0.00    +0.000 C 
ATOM     16  C   UNL     1       2.820   4.120  20.551  0.00  0.00    +0.000 C 
ENDBRANCH   8  11
ENDBRANCH   1   2
BRANCH   1  17
ATOM     17  C   UNL     1       8.617   8.639  18.735  0.00  0.00    +0.000 C 
BRANCH  17  21
ATOM     18  C   UNL     1       9.706  12.014  19.056  0.00  0.00    +0.000 A 
ATOM     19  N   UNL     1       9.731  11.648  20.348  0.00  0.00    +0.000 NA
ATOM     20  O   UNL     1       9.304  10.323  20.326  0.00  0.00    +0.000 OA
ATOM     21  C   UNL     1       9.063  10.018  19.020  0.00  0.00    +0.000 A 
ATOM     22  N   UNL     1       9.289  11.017  18.200  0.00  0.00    +0.000 NA
BRANCH  18  27
ATOM     23  C   UNL     1      11.187  17.263  17.169  0.00  0.00    +0.000 C 
ATOM     24  C   UNL     1      10.814  15.894  17.645  0.00  0.00    +0.000 A 
ATOM     25  C   UNL     1      11.215  14.752  16.946  0.00  0.00    +0.000 A 
ATOM     26  C   UNL     1      10.853  13.482  17.408  0.00  0.00    +0.000 A 
ATOM     27  C   UNL     1      10.086  13.334  18.573  0.00  0.00    +0.000 A 
ATOM     28  C   UNL     1       9.685  14.481  19.270  0.00  0.00    +0.000 A 
ATOM     29  C   UNL     1      10.052  15.740  18.805  0.00  0.00    +0.000 A 
ATOM     30  F   UNL     1       9.666  16.822  19.497  0.00  0.00    +0.000 F 
ENDBRANCH  18  27
ENDBRANCH  17  21
ENDBRANCH   1  17
TORSDOF 5
ENDMDL
MODEL 2
REMARK VINA RESULT:      -8.6      3.633      9.322
REMARK  Name = 
REMARK  6 active torsions:
REMARK  status: ('A' for Active; 'I' for Inactive)
REMARK    1  A    between atoms: C_1  and  C_2
REMARK    2  A    between atoms: C_5  and  C_6
REMARK    3  A    between atoms: C_9  and  C_10
REMARK    4  A    between atoms: C_10  and  C_11
REMARK    5  A    between atoms: C_11  and  C_12
REMARK    6  A    between atoms: N_18  and  C_19
REMARK                            x       y       z     vdW  Elec       q    Type
REMARK                         _______ _______ _______ _____ _____    ______ ____
ROOT
ATOM      1  C   UNL     1       6.822   4.442  17.416  0.00  0.00    +0.000 C 
ENDROOT
BRANCH   1   2
ATOM      2  C   UNL     1       7.173   5.895  17.169  0.00  0.00    +0.000 C 
ATOM      3  O   UNL     1       7.036   6.379  16.046  0.00  0.00    +0.000 OA
ATOM      4  N   UNL     1       7.662   6.545  18.277  0.00  0.00    +0.000 N 
ATOM      5  C   UNL     1       8.031   7.867  18.256  0.00  0.00    +0.000 A 
ATOM      6  N   UNL     1       7.654   8.727  17.266  0.00  0.00    +0.000 NA
ATOM      7  C   UNL     1       8.267   9.843  17.567  0.00  0.00    +0.000 A 
ATOM      8  N   UNL     1       8.995   9.661  18.699  0.00  0.00    +0.000 N 
ATOM      9  N   UNL     1       8.798   8.420  19.204  0.00  0.00    +0.000 NA
ATOM     10  H   UNL     1       7.930   6.049  19.114  0.00  0.00    +0.000 HD
BRANCH   8  11
ATOM     11  C   UNL     1       9.954  10.598  19.274  0.00  0.00    +0.000 C 
ATOM     12  C   UNL     1       9.376  11.315  20.504  0.00  0.00    +0.000 C 
ATOM     13  C   UNL     1      10.366  12.315  21.100  0.00  0.00    +0.000 C 
ATOM     14  C   UNL     1      10.850  13.312  20.053  0.00  0.00    +0.000 C 
ATOM     15  C   UNL     1      11.457  12.599  18.849  0.00  0.00    +0.000 C 
ATOM     16  C   UNL     1      10.482  11.593  18.233  0.00  0.00    +0.000 C 
ENDBRANCH   8  11
ENDBRANCH   1   2
BRANCH   1  17
ATOM     17  C   UNL     1       5.353   4.194  17.063  0.00  0.00    +0.000 C 
BRANCH  17  21
ATOM     18  C   UNL     1       3.132   6.073  19.118  0.00  0.00    +0.000 A 
ATOM     19  N   UNL     1       3.302   4.995  19.901  0.00  0.00    +0.000 NA
ATOM     20  O   UNL     1       4.162   4.183  19.167  0.00  0.00    +0.000 OA
ATOM     21  C   UNL     1       4.428   4.852  18.009  0.00  0.00    +0.000 A 
ATOM     22  N   UNL     1       3.821   6.011  17.925  0.00  0.00    +0.000 NA
BRANCH  18  27
ATOM     23  C   UNL     1      -0.131  10.630  20.493  0.00  0.00    +0.000 C 
ATOM     24  C   UNL     1       0.711   9.439  20.152  0.00  0.00    +0.000 A 
ATOM     25  C   UNL     1       0.911   8.409  21.075  0.00  0.00    +0.000 A 
ATOM     26  C   UNL     1       1.702   7.306  20.736  0.00  0.00    +0.000 A 
ATOM     27  C   UNL     1       2.307   7.218  19.473  0.00  0.00    +0.000 A 
ATOM     28  C   UNL     1       2.105   8.254  18.552  0.00  0.00    +0.000 A 
ATOM     29  C   UNL     1       1.313   9.344  18.897  0.00  0.00    +0.000 A 
ATOM     30  F   UNL     1       1.126  10.317  17.993  0.00  0.00    +0.000 F 
ENDBRANCH  18  27
ENDBRANCH  17  21
ENDBRANCH   1  17
TORSDOF 5
ENDMDL
MODEL 3
REMARK VINA RESULT:      -8.6      3.009     11.664
REMARK  Name = 
REMARK  6 active torsions:
REMARK  status: ('A' for Active; 'I' for Inactive)
REMARK    1  A    between atoms: C_1  and  C_2
REMARK    2  A    between atoms: C_5  and  C_6
REMARK    3  A    between atoms: C_9  and  C_10
REMARK    4  A    between atoms: C_10  and  C_11
REMARK    5  A    between atoms: C_11  and  C_12
REMARK    6  A    between atoms: N_18  and  C_19
REMARK                            x       y       z     vdW  Elec       q    Type
REMARK                         _______ _______ _______ _____ _____    ______ ____
ROOT
ATOM      1  C   UNL     1       8.020   8.950  17.829  0.00  0.00    +0.000 C 
ENDROOT
BRANCH   1   2
ATOM      2  C   UNL     1       8.887   9.945  18.574  0.00  0.00    +0.000 C 
ATOM      3  O   UNL     1       9.189   9.737  19.749  0.00  0.00    +0.000 OA
ATOM      4  N   UNL     1       9.237  11.045  17.830  0.00  0.00    +0.000 N 
ATOM      5  C   UNL     1      10.024  12.054  18.327  0.00  0.00    +0.000 A 
ATOM      6  N   UNL     1      10.784  11.917  19.451  0.00  0.00    +0.000 NA
ATOM      7  C   UNL     1      11.305  13.104  19.626  0.00  0.00    +0.000 A 
ATOM      8  N   UNL     1      10.869  13.933  18.643  0.00  0.00    +0.000 N 
ATOM      9  N   UNL     1      10.105  13.260  17.750  0.00  0.00    +0.000 NA
ATOM     10  H   UNL     1       8.805  11.251  16.941  0.00  0.00    +0.000 HD
BRANCH   8  11
ATOM     11  C   UNL     1      11.075  15.375  18.568  0.00  0.00    +0.000 C 
ATOM     12  C   UNL     1      10.202  16.126  19.585  0.00  0.00    +0.000 C 
ATOM     13  C   UNL     1      10.395  17.639  19.497  0.00  0.00    +0.000 C 
ATOM     14  C   UNL     1      10.160  18.150  18.080  0.00  0.00    +0.000 C 
ATOM     15  C   UNL     1      11.054  17.429  17.076  0.00  0.00    +0.000 C 
ATOM     16  C   UNL     1      10.875  15.911  17.144  0.00  0.00    +0.000 C 
ENDBRANCH   8  11
ENDBRANCH   1   2
BRANCH   1  17
ATOM     17  C   UNL     1       8.263   7.539  18.369  0.00  0.00    +0.000 C 
BRANCH  17  21
ATOM     18  C   UNL     1       5.570   5.299  17.725  0.00  0.00    +0.000 A 
ATOM     19  N   UNL     1       6.277   5.129  16.596  0.00  0.00    +0.000 NA
ATOM     20  O   UNL     1       7.364   5.985  16.751  0.00  0.00    +0.000 OA
ATOM     21  C   UNL     1       7.206   6.590  17.962  0.00  0.00    +0.000 A 
ATOM     22  N   UNL     1       6.125   6.211  18.599  0.00  0.00    +0.000 NA
BRANCH  18  27
ATOM     23  C   UNL     1       0.663   2.526  18.962  0.00  0.00    +0.000 C 
ATOM     24  C   UNL     1       1.936   3.238  18.624  0.00  0.00    +0.000 A 
ATOM     25  C   UNL     1       2.612   2.980  17.428  0.00  0.00    +0.000 A 
ATOM     26  C   UNL     1       3.801   3.655  17.133  0.00  0.00    +0.000 A 
ATOM     27  C   UNL     1       4.332   4.596  18.028  0.00  0.00    +0.000 A 
ATOM     28  C   UNL     1       3.653   4.851  19.226  0.00  0.00    +0.000 A 
ATOM     29  C   UNL     1       2.469   4.177  19.508  0.00  0.00    +0.000 A 
ATOM     30  F   UNL     1       1.831   4.447  20.657  0.00  0.00    +0.000 F 
ENDBRANCH  18  27
ENDBRANCH  17  21
ENDBRANCH   1  17
TORSDOF 5
ENDMDL
MODEL 4
REMARK VINA RESULT:      -8.5      3.485     11.686
REMARK  Name = 
REMARK  6 active torsions:
REMARK  status: ('A' for Active; 'I' for Inactive)
REMARK    1  A    between atoms: C_1  and  C_2
REMARK    2  A    between atoms: C_5  and  C_6
REMARK    3  A    between atoms: C_9  and  C_10
REMARK    4  A    between atoms: C_10  and  C_11
REMARK    5  A    between atoms: C_11  and  C_12
REMARK    6  A    between atoms: N_18  and  C_19
REMARK                            x       y       z     vdW  Elec       q    Type
REMARK                         _______ _______ _______ _____ _____    ______ ____
ROOT
ATOM      1  C   UNL     1       8.004   9.012  17.472  0.00  0.00    +0.000 C 
ENDROOT
BRANCH   1   2
ATOM      2  C   UNL     1       8.769   9.990  18.340  0.00  0.00    +0.000 C 
ATOM      3  O   UNL     1       9.175   9.642  19.449  0.00  0.00    +0.000 OA
ATOM      4  N   UNL     1       8.910  11.237  17.781  0.00  0.00    +0.000 N 
ATOM      5  C   UNL     1       9.578  12.258  18.410  0.00  0.00    +0.000 A 
ATOM      6  N   UNL     1      10.422  12.056  19.462  0.00  0.00    +0.000 NA
ATOM      7  C   UNL     1      10.780  13.264  19.816  0.00  0.00    +0.000 A 
ATOM      8  N   UNL     1      10.167  14.167  19.007  0.00  0.00    +0.000 N 
ATOM      9  N   UNL     1       9.449  13.541  18.045  0.00  0.00    +0.000 NA
ATOM     10  H   UNL     1       8.395  11.517  16.959  0.00  0.00    +0.000 HD
BRANCH   8  11
ATOM     11  C   UNL     1      10.162  15.616  19.171  0.00  0.00    +0.000 C 
ATOM     12  C   UNL     1       9.271  16.051  20.344  0.00  0.00    +0.000 C 
ATOM     13  C   UNL     1       9.241  17.570  20.508  0.00  0.00    +0.000 C 
ATOM     14  C   UNL     1       8.831  18.262  19.213  0.00  0.00    +0.000 C 
ATOM     15  C   UNL     1       9.739  17.858  18.057  0.00  0.00    +0.000 C 
ATOM     16  C   UNL     1       9.782  16.340  17.872  0.00  0.00    +0.000 C 
ENDBRANCH   8  11
ENDBRANCH   1   2
BRANCH   1  17
ATOM     17  C   UNL     1       8.015   7.623  18.118  0.00  0.00    +0.000 C 
BRANCH  17  21
ATOM     18  C   UNL     1       5.222   5.536  17.397  0.00  0.00    +0.000 A 
ATOM     19  N   UNL     1       5.657   5.764  16.148  0.00  0.00    +0.000 NA
ATOM     20  O   UNL     1       6.761   6.594  16.327  0.00  0.00    +0.000 OA
ATOM     21  C   UNL     1       6.884   6.786  17.671  0.00  0.00    +0.000 A 
ATOM     22  N   UNL     1       5.967   6.165  18.373  0.00  0.00    +0.000 NA
BRANCH  18  27
ATOM     23  C   UNL     1       0.694   2.196  18.680  0.00  0.00    +0.000 C 
ATOM     24  C   UNL     1       1.858   3.078  18.351  0.00  0.00    +0.000 A 
ATOM     25  C   UNL     1       1.710   4.465  18.260  0.00  0.00    +0.000 A 
ATOM     26  C   UNL     1       2.812   5.270  17.949  0.00  0.00    +0.000 A 
ATOM     27  C   UNL     1       4.074   4.701  17.723  0.00  0.00    +0.000 A 
ATOM     28  C   UNL     1       4.218   3.311  17.813  0.00  0.00    +0.000 A 
ATOM     29  C   UNL     1       3.118   2.519  18.127  0.00  0.00    +0.000 A 
ATOM     30  F   UNL     1       3.283   1.191  18.218  0.00  0.00    +0.000 F 
ENDBRANCH  18  27
ENDBRANCH  17  21
ENDBRANCH   1  17
TORSDOF 5
ENDMDL
MODEL 5
REMARK VINA RESULT:      -8.4      1.166      1.469
REMARK  Name = 
REMARK  6 active torsions:
REMARK  status: ('A' for Active; 'I' for Inactive)
REMARK    1  A    between atoms: C_1  and  C_2
REMARK    2  A    between atoms: C_5  and  C_6
REMARK    3  A    between atoms: C_9  and  C_10
REMARK    4  A    between atoms: C_10  and  C_11
REMARK    5  A    between atoms: C_11  and  C_12
REMARK    6  A    between atoms: N_18  and  C_19
REMARK                            x       y       z     vdW  Elec       q    Type
REMARK                         _______ _______ _______ _____ _____    ______ ____
ROOT
ATOM      1  C   UNL     1       8.586   8.315  18.479  0.00  0.00    +0.000 C 
ENDROOT
BRANCH   1   2
ATOM      2  C   UNL     1       7.709   7.243  17.863  0.00  0.00    +0.000 C 
ATOM      3  O   UNL     1       7.775   7.012  16.656  0.00  0.00    +0.000 OA
ATOM      4  N   UNL     1       6.867   6.631  18.761  0.00  0.00    +0.000 N 
ATOM      5  C   UNL     1       6.001   5.631  18.397  0.00  0.00    +0.000 A 
ATOM      6  N   UNL     1       6.115   4.938  17.227  0.00  0.00    +0.000 NA
ATOM      7  C   UNL     1       5.071   4.149  17.224  0.00  0.00    +0.000 A 
ATOM      8  N   UNL     1       4.346   4.364  18.352  0.00  0.00    +0.000 N 
ATOM      9  N   UNL     1       4.965   5.256  19.160  0.00  0.00    +0.000 NA
ATOM     10  H   UNL     1       6.723   6.992  19.692  0.00  0.00    +0.000 HD
BRANCH   8  11
ATOM     11  C   UNL     1       3.027   3.817  18.654  0.00  0.00    +0.000 C 
ATOM     12  C   UNL     1       2.302   4.645  19.726  0.00  0.00    +0.000 C 
ATOM     13  C   UNL     1       0.930   4.066  20.065  0.00  0.00    +0.000 C 
ATOM     14  C   UNL     1       1.028   2.599  20.469  0.00  0.00    +0.000 C 
ATOM     15  C   UNL     1       1.715   1.772  19.387  0.00  0.00    +0.000 C 
ATOM     16  C   UNL     1       3.093   2.332  19.033  0.00  0.00    +0.000 C 
ENDBRANCH   8  11
ENDBRANCH   1   2
BRANCH   1  17
ATOM     17  C   UNL     1       8.310   9.662  17.807  0.00  0.00    +0.000 C 
BRANCH  17  21
ATOM     18  C   UNL     1      10.143  12.496  18.945  0.00  0.00    +0.000 A 
ATOM     19  N   UNL     1      10.337  11.671  19.987  0.00  0.00    +0.000 NA
ATOM     20  O   UNL     1       9.638  10.520  19.635  0.00  0.00    +0.000 OA
ATOM     21  C   UNL     1       9.089  10.762  18.411  0.00  0.00    +0.000 A 
ATOM     22  N   UNL     1       9.363  11.956  17.944  0.00  0.00    +0.000 NA
BRANCH  18  27
ATOM     23  C   UNL     1      12.320  17.825  18.543  0.00  0.00    +0.000 C 
ATOM     24  C   UNL     1      11.766  16.439  18.662  0.00  0.00    +0.000 A 
ATOM     25  C   UNL     1      12.333  15.508  19.537  0.00  0.00    +0.000 A 
ATOM     26  C   UNL     1      11.801  14.217  19.631  0.00  0.00    +0.000 A 
ATOM     27  C   UNL     1      10.698  13.838  18.851  0.00  0.00    +0.000 A 
ATOM     28  C   UNL     1      10.134  14.773  17.974  0.00  0.00    +0.000 A 
ATOM     29  C   UNL     1      10.668  16.056  17.891  0.00  0.00    +0.000 A 
ATOM     30  F   UNL     1      10.103  16.936  17.052  0.00  0.00    +0.000 F 
ENDBRANCH  18  27
ENDBRANCH  17  21
ENDBRANCH   1  17
TORSDOF 5
ENDMDL
MODEL 6
REMARK VINA RESULT:      -8.4      3.298     11.869
REMARK  Name = 
REMARK  6 active torsions:
REMARK  status: ('A' for Active; 'I' for Inactive)
REMARK    1  A    between atoms: C_1  and  C_2
REMARK    2  A    between atoms: C_5  and  C_6
REMARK    3  A    between atoms: C_9  and  C_10
REMARK    4  A    between atoms: C_10  and  C_11
REMARK    5  A    between atoms: C_11  and  C_12
REMARK    6  A    between atoms: N_18  and  C_19
REMARK                            x       y       z     vdW  Elec       q    Type
REMARK                         _______ _______ _______ _____ _____    ______ ____
ROOT
ATOM      1  C   UNL     1       7.881   9.355  17.824  0.00  0.00    +0.000 C 
ENDROOT
BRANCH   1   2
ATOM      2  C   UNL     1       8.952  10.145  18.548  0.00  0.00    +0.000 C 
ATOM      3  O   UNL     1       9.370   9.759  19.639  0.00  0.00    +0.000 OA
ATOM      4  N   UNL     1       9.342  11.286  17.890  0.00  0.00    +0.000 N 
ATOM      5  C   UNL     1      10.305  12.131  18.382  0.00  0.00    +0.000 A 
ATOM      6  N   UNL     1      11.176  11.770  19.368  0.00  0.00    +0.000 NA
ATOM      7  C   UNL     1      11.859  12.862  19.600  0.00  0.00    +0.000 A 
ATOM      8  N   UNL     1      11.411  13.852  18.785  0.00  0.00    +0.000 N 
ATOM      9  N   UNL     1      10.464  13.385  17.937  0.00  0.00    +0.000 NA
ATOM     10  H   UNL     1       8.831  11.649  17.098  0.00  0.00    +0.000 HD
BRANCH   8  11
ATOM     11  C   UNL     1      11.785  15.260  18.843  0.00  0.00    +0.000 C 
ATOM     12  C   UNL     1      10.814  16.070  19.716  0.00  0.00    +0.000 C 
ATOM     13  C   UNL     1      11.186  17.551  19.763  0.00  0.00    +0.000 C 
ATOM     14  C   UNL     1      11.298  18.142  18.362  0.00  0.00    +0.000 C 
ATOM     15  C   UNL     1      12.291  17.360  17.508  0.00  0.00    +0.000 C 
ATOM     16  C   UNL     1      11.937  15.873  17.444  0.00  0.00    +0.000 C 
ENDBRANCH   8  11
ENDBRANCH   1   2
BRANCH   1  17
ATOM     17  C   UNL     1       8.169   7.856  17.944  0.00  0.00    +0.000 C 
BRANCH  17  21
ATOM     18  C   UNL     1       5.328   5.741  17.570  0.00  0.00    +0.000 A 
ATOM     19  N   UNL     1       5.455   6.169  16.304  0.00  0.00    +0.000 NA
ATOM     20  O   UNL     1       6.553   7.025  16.351  0.00  0.00    +0.000 OA
ATOM     21  C   UNL     1       6.982   7.029  17.645  0.00  0.00    +0.000 A 
ATOM     22  N   UNL     1       6.267   6.265  18.434  0.00  0.00    +0.000 NA
BRANCH  18  27
ATOM     23  C   UNL     1       1.302   2.014  19.362  0.00  0.00    +0.000 C 
ATOM     24  C   UNL     1       2.333   2.991  18.888  0.00  0.00    +0.000 A 
ATOM     25  C   UNL     1       2.012   3.989  17.964  0.00  0.00    +0.000 A 
ATOM     26  C   UNL     1       2.992   4.890  17.533  0.00  0.00    +0.000 A 
ATOM     27  C   UNL     1       4.306   4.806  18.018  0.00  0.00    +0.000 A 
ATOM     28  C   UNL     1       4.624   3.804  18.942  0.00  0.00    +0.000 A 
ATOM     29  C   UNL     1       3.642   2.915  19.368  0.00  0.00    +0.000 A 
ATOM     30  F   UNL     1       3.970   1.971  20.262  0.00  0.00    +0.000 F 
ENDBRANCH  18  27
ENDBRANCH  17  21
ENDBRANCH   1  17
TORSDOF 5
ENDMDL
MODEL 7
REMARK VINA RESULT:      -8.3      3.920      9.188
REMARK  Name = 
REMARK  6 active torsions:
REMARK  status: ('A' for Active; 'I' for Inactive)
REMARK    1  A    between atoms: C_1  and  C_2
REMARK    2  A    between atoms: C_5  and  C_6
REMARK    3  A    between atoms: C_9  and  C_10
REMARK    4  A    between atoms: C_10  and  C_11
REMARK    5  A    between atoms: C_11  and  C_12
REMARK    6  A    between atoms: N_18  and  C_19
REMARK                            x       y       z     vdW  Elec       q    Type
REMARK                         _______ _______ _______ _____ _____    ______ ____
ROOT
ATOM      1  C   UNL     1       6.405   4.176  17.405  0.00  0.00    +0.000 C 
ENDROOT
BRANCH   1   2
ATOM      2  C   UNL     1       6.747   5.629  17.140  0.00  0.00    +0.000 C 
ATOM      3  O   UNL     1       6.493   6.130  16.045  0.00  0.00    +0.000 OA
ATOM      4  N   UNL     1       7.363   6.257  18.195  0.00  0.00    +0.000 N 
ATOM      5  C   UNL     1       7.744   7.574  18.151  0.00  0.00    +0.000 A 
ATOM      6  N   UNL     1       7.272   8.453  17.220  0.00  0.00    +0.000 NA
ATOM      7  C   UNL     1       7.929   9.557  17.467  0.00  0.00    +0.000 A 
ATOM      8  N   UNL     1       8.775   9.351  18.509  0.00  0.00    +0.000 N 
ATOM      9  N   UNL     1       8.618   8.105  19.016  0.00  0.00    +0.000 NA
ATOM     10  H   UNL     1       7.714   5.746  18.991  0.00  0.00    +0.000 HD
BRANCH   8  11
ATOM     11  C   UNL     1       9.803  10.268  18.988  0.00  0.00    +0.000 C 
ATOM     12  C   UNL     1       9.397  10.932  20.313  0.00  0.00    +0.000 C 
ATOM     13  C   UNL     1      10.459  11.911  20.810  0.00  0.00    +0.000 C 
ATOM     14  C   UNL     1      10.798  12.952  19.749  0.00  0.00    +0.000 C 
ATOM     15  C   UNL     1      11.236  12.292  18.446  0.00  0.00    +0.000 C 
ATOM     16  C   UNL     1      10.187  11.307  17.927  0.00  0.00    +0.000 C 
ENDBRANCH   8  11
ENDBRANCH   1   2
BRANCH   1  17
ATOM     17  C   UNL     1       5.486   4.072  18.624  0.00  0.00    +0.000 C 
BRANCH  17  21
ATOM     18  C   UNL     1       2.777   6.383  18.589  0.00  0.00    +0.000 A 
ATOM     19  N   UNL     1       2.261   5.424  17.804  0.00  0.00    +0.000 NA
ATOM     20  O   UNL     1       3.268   4.463  17.748  0.00  0.00    +0.000 OA
ATOM     21  C   UNL     1       4.295   4.939  18.507  0.00  0.00    +0.000 A 
ATOM     22  N   UNL     1       4.050   6.110  19.042  0.00  0.00    +0.000 NA
BRANCH  18  27
ATOM     23  C   UNL     1      -0.003  11.223  20.057  0.00  0.00    +0.000 C 
ATOM     24  C   UNL     1       0.720   9.974  19.658  0.00  0.00    +0.000 A 
ATOM     25  C   UNL     1       0.999   9.698  18.317  0.00  0.00    +0.000 A 
ATOM     26  C   UNL     1       1.674   8.523  17.967  0.00  0.00    +0.000 A 
ATOM     27  C   UNL     1       2.076   7.607  18.951  0.00  0.00    +0.000 A 
ATOM     28  C   UNL     1       1.793   7.886  20.293  0.00  0.00    +0.000 A 
ATOM     29  C   UNL     1       1.125   9.059  20.632  0.00  0.00    +0.000 A 
ATOM     30  F   UNL     1       0.876   9.309  21.926  0.00  0.00    +0.000 F 
ENDBRANCH  18  27
ENDBRANCH  17  21
ENDBRANCH   1  17
TORSDOF 5
ENDMDL
MODEL 8
REMARK VINA RESULT:      -8.3      3.208     11.516
REMARK  Name = 
REMARK  6 active torsions:
REMARK  status: ('A' for Active; 'I' for Inactive)
REMARK    1  A    between atoms: C_1  and  C_2
REMARK    2  A    between atoms: C_5  and  C_6
REMARK    3  A    between atoms: C_9  and  C_10
REMARK    4  A    between atoms: C_10  and  C_11
REMARK    5  A    between atoms: C_11  and  C_12
REMARK    6  A    between atoms: N_18  and  C_19
REMARK                            x       y       z     vdW  Elec       q    Type
REMARK                         _______ _______ _______ _____ _____    ______ ____
ROOT
ATOM      1  C   UNL     1       7.497   8.818  17.606  0.00  0.00    +0.000 C 
ENDROOT
BRANCH   1   2
ATOM      2  C   UNL     1       8.549   9.637  18.328  0.00  0.00    +0.000 C 
ATOM      3  O   UNL     1       9.156   9.153  19.283  0.00  0.00    +0.000 OA
ATOM      4  N   UNL     1       8.699  10.909  17.833  0.00  0.00    +0.000 N 
ATOM      5  C   UNL     1       9.606  11.801  18.349  0.00  0.00    +0.000 A 
ATOM      6  N   UNL     1      10.641  11.424  19.154  0.00  0.00    +0.000 NA
ATOM      7  C   UNL     1      11.208  12.555  19.490  0.00  0.00    +0.000 A 
ATOM      8  N   UNL     1      10.532  13.582  18.911  0.00  0.00    +0.000 N 
ATOM      9  N   UNL     1       9.545  13.117  18.109  0.00  0.00    +0.000 NA
ATOM     10  H   UNL     1       8.044  11.310  17.178  0.00  0.00    +0.000 HD
BRANCH   8  11
ATOM     11  C   UNL     1      10.731  15.005  19.164  0.00  0.00    +0.000 C 
ATOM     12  C   UNL     1      12.125  15.287  19.745  0.00  0.00    +0.000 C 
ATOM     13  C   UNL     1      12.333  16.773  20.035  0.00  0.00    +0.000 C 
ATOM     14  C   UNL     1      11.234  17.325  20.936  0.00  0.00    +0.000 C 
ATOM     15  C   UNL     1       9.853  17.076  20.340  0.00  0.00    +0.000 C 
ATOM     16  C   UNL     1       9.620  15.593  20.044  0.00  0.00    +0.000 C 
ENDBRANCH   8  11
ENDBRANCH   1   2
BRANCH   1  17
ATOM     17  C   UNL     1       7.977   7.373  17.452  0.00  0.00    +0.000 C 
BRANCH  17  21
ATOM     18  C   UNL     1       5.540   5.123  18.747  0.00  0.00    +0.000 A 
ATOM     19  N   UNL     1       6.468   5.025  19.712  0.00  0.00    +0.000 NA
ATOM     20  O   UNL     1       7.484   5.876  19.284  0.00  0.00    +0.000 OA
ATOM     21  C   UNL     1       7.067   6.406  18.099  0.00  0.00    +0.000 A 
ATOM     22  N   UNL     1       5.887   5.977  17.721  0.00  0.00    +0.000 NA
BRANCH  18  27
ATOM     23  C   UNL     1       0.499   2.314  18.821  0.00  0.00    +0.000 C 
ATOM     24  C   UNL     1       1.812   3.031  18.787  0.00  0.00    +0.000 A 
ATOM     25  C   UNL     1       2.875   2.557  18.013  0.00  0.00    +0.000 A 
ATOM     26  C   UNL     1       4.095   3.242  17.999  0.00  0.00    +0.000 A 
ATOM     27  C   UNL     1       4.271   4.409  18.759  0.00  0.00    +0.000 A 
ATOM     28  C   UNL     1       3.205   4.880  19.534  0.00  0.00    +0.000 A 
ATOM     29  C   UNL     1       1.994   4.194  19.539  0.00  0.00    +0.000 A 
ATOM     30  F   UNL     1       0.984   4.672  20.281  0.00  0.00    +0.000 F 
ENDBRANCH  18  27
ENDBRANCH  17  21
ENDBRANCH   1  17
TORSDOF 5
ENDMDL
MODEL 9
REMARK VINA RESULT:      -8.2      1.322      1.501
REMARK  Name = 
REMARK  6 active torsions:
REMARK  status: ('A' for Active; 'I' for Inactive)
REMARK    1  A    between atoms: C_1  and  C_2
REMARK    2  A    between atoms: C_5  and  C_6
REMARK    3  A    between atoms: C_9  and  C_10
REMARK    4  A    between atoms: C_10  and  C_11
REMARK    5  A    between atoms: C_11  and  C_12
REMARK    6  A    between atoms: N_18  and  C_19
REMARK                            x       y       z     vdW  Elec       q    Type
REMARK                         _______ _______ _______ _____ _____    ______ ____
ROOT
ATOM      1  C   UNL     1       8.563   8.212  18.442  0.00  0.00    +0.000 C 
ENDROOT
BRANCH   1   2
ATOM      2  C   UNL     1       7.497   7.318  17.840  0.00  0.00    +0.000 C 
ATOM      3  O   UNL     1       7.057   7.557  16.716  0.00  0.00    +0.000 OA
ATOM      4  N   UNL     1       7.093   6.300  18.669  0.00  0.00    +0.000 N 
ATOM      5  C   UNL     1       6.141   5.382  18.302  0.00  0.00    +0.000 A 
ATOM      6  N   UNL     1       5.755   5.190  17.007  0.00  0.00    +0.000 NA
ATOM      7  C   UNL     1       4.793   4.308  17.092  0.00  0.00    +0.000 A 
ATOM      8  N   UNL     1       4.600   3.981  18.396  0.00  0.00    +0.000 N 
ATOM      9  N   UNL     1       5.508   4.601  19.187  0.00  0.00    +0.000 NA
ATOM     10  H   UNL     1       7.350   6.269  19.644  0.00  0.00    +0.000 HD
BRANCH   8  11
ATOM     11  C   UNL     1       3.516   3.168  18.937  0.00  0.00    +0.000 C 
ATOM     12  C   UNL     1       2.320   3.106  17.976  0.00  0.00    +0.000 C 
ATOM     13  C   UNL     1       1.171   2.274  18.545  0.00  0.00    +0.000 C 
ATOM     14  C   UNL     1       0.751   2.773  19.923  0.00  0.00    +0.000 C 
ATOM     15  C   UNL     1       1.933   2.798  20.887  0.00  0.00    +0.000 C 
ATOM     16  C   UNL     1       3.095   3.628  20.339  0.00  0.00    +0.000 C 
ENDBRANCH   8  11
ENDBRANCH   1   2
BRANCH   1  17
ATOM     17  C   UNL     1       8.471   9.614  17.833  0.00  0.00    +0.000 C 
BRANCH  17  21
ATOM     18  C   UNL     1      10.020  12.313  19.566  0.00  0.00    +0.000 A 
ATOM     19  N   UNL     1      10.470  11.286  20.305  0.00  0.00    +0.000 NA
ATOM     20  O   UNL     1       9.901  10.167  19.702  0.00  0.00    +0.000 OA
ATOM     21  C   UNL     1       9.161  10.630  18.655  0.00  0.00    +0.000 A 
ATOM     22  N   UNL     1       9.195  11.934  18.527  0.00  0.00    +0.000 NA
BRANCH  18  27
ATOM     23  C   UNL     1      11.353  17.836  20.575  0.00  0.00    +0.000 C 
ATOM     24  C   UNL     1      11.014  16.405  20.296  0.00  0.00    +0.000 A 
ATOM     25  C   UNL     1      11.113  15.878  19.005  0.00  0.00    +0.000 A 
ATOM     26  C   UNL     1      10.788  14.538  18.766  0.00  0.00    +0.000 A 
ATOM     27  C   UNL     1      10.359  13.707  19.812  0.00  0.00    +0.000 A 
ATOM     28  C   UNL     1      10.260  14.239  21.103  0.00  0.00    +0.000 A 
ATOM     29  C   UNL     1      10.588  15.571  21.332  0.00  0.00    +0.000 A 
ATOM     30  F   UNL     1      10.495  16.054  22.580  0.00  0.00    +0.000 F 
ENDBRANCH  18  27
ENDBRANCH  17  21
ENDBRANCH   1  17
TORSDOF 5
ENDMDL
