MODEL 1
REMARK VINA RESULT:      -9.0      0.000      0.000
REMARK  Name = 
REMARK  3 active torsions:
REMARK  status: ('A' for Active; 'I' for Inactive)
REMARK    1  A    between atoms: C_4  and  C_5
REMARK    2  A    between atoms: N_11  and  C_12
REMARK    3  A    between atoms: C_18  and  C_19
REMARK                            x       y       z     vdW  Elec       q    Type
REMARK                         _______ _______ _______ _____ _____    ______ ____
ROOT
ATOM      1  O   UNL     1      -0.067   2.340  19.276  0.00  0.00    +0.000 OA
ATOM      2  C   UNL     1       1.095   2.399  18.890  0.00  0.00    +0.000 C 
ATOM      3  C   UNL     1       1.664   3.622  18.225  0.00  0.00    +0.000 C 
ATOM      4  C   UNL     1       2.694   4.343  19.112  0.00  0.00    +0.000 C 
ATOM      5  N   UNL     1       4.030   3.675  19.032  0.00  0.00    +0.000 N 
ATOM      6  C   UNL     1       4.143   2.293  19.522  0.00  0.00    +0.000 C 
ATOM      7  C   UNL     1       3.314   1.294  18.710  0.00  0.00    +0.000 C 
ATOM      8  N   UNL     1       1.913   1.326  19.054  0.00  0.00    +0.000 N 
ATOM      9  H   UNL     1       1.477   0.519  19.484  0.00  0.00    +0.000 HD
ENDROOT
BRANCH   5  10
ATOM     10  C   UNL     1       5.196   4.355  18.695  0.00  0.00    +0.000 A 
ATOM     11  N   UNL     1       5.818   5.072  19.660  0.00  0.00    +0.000 NA
ATOM     12  C   UNL     1       6.959   5.723  19.395  0.00  0.00    +0.000 A 
ATOM     13  N   UNL     1       7.571   5.842  18.218  0.00  0.00    +0.000 NA
ATOM     14  C   UNL     1       6.920   5.184  17.247  0.00  0.00    +0.000 A 
ATOM     15  S   UNL     1       7.485   5.246  15.637  0.00  0.00    +0.000 S 
ATOM     16  C   UNL     1       6.208   4.263  15.063  0.00  0.00    +0.000 A 
ATOM     17  C   UNL     1       5.430   3.838  16.125  0.00  0.00    +0.000 A 
ATOM     18  C   UNL     1       5.771   4.421  17.393  0.00  0.00    +0.000 A 
BRANCH  16  19
ATOM     19  C   UNL     1       6.009   3.945  13.637  0.00  0.00    +0.000 A 
ATOM     20  C   UNL     1       7.120   3.924  12.773  0.00  0.00    +0.000 A 
ATOM     21  C   UNL     1       7.000   3.520  11.443  0.00  0.00    +0.000 A 
ATOM     22  C   UNL     1       5.758   3.142  10.946  0.00  0.00    +0.000 A 
ATOM     23  C   UNL     1       4.641   3.176  11.776  0.00  0.00    +0.000 A 
ATOM     24  C   UNL     1       4.765   3.571  13.113  0.00  0.00    +0.000 A 
ENDBRANCH  16  19
ENDBRANCH   5  10
BRANCH   4  25
ATOM     25  C   UNL     1       2.665   5.854  18.824  0.00  0.00    +0.000 A 
ATOM     26  C   UNL     1       2.160   6.757  19.777  0.00  0.00    +0.000 A 
ATOM     27  C   UNL     1       2.106   8.127  19.497  0.00  0.00    +0.000 A 
ATOM     28  C   UNL     1       2.557   8.622  18.272  0.00  0.00    +0.000 A 
ATOM     29  C   UNL     1       3.073   7.744  17.325  0.00  0.00    +0.000 A 
ATOM     30  C   UNL     1       3.134   6.382  17.601  0.00  0.00    +0.000 A 
ENDBRANCH   4  25
TORSDOF 3
ENDMDL
MODEL 2
REMARK VINA RESULT:      -8.6      0.100      1.268
REMARK  Name = 
REMARK  3 active torsions:
REMARK  status: ('A' for Active; 'I' for Inactive)
REMARK    1  A    between atoms: C_4  and  C_5
REMARK    2  A    between atoms: N_11  and  C_12
REMARK    3  A    between atoms: C_18  and  C_19
REMARK                            x       y       z     vdW  Elec       q    Type
REMARK                         _______ _______ _______ _____ _____    ______ ____
ROOT
ATOM      1  O   UNL     1      -0.067   2.318  19.228  0.00  0.00    +0.000 OA
ATOM      2  C   UNL     1       1.098   2.395  18.853  0.00  0.00    +0.000 C 
ATOM      3  C   UNL     1       1.654   3.626  18.193  0.00  0.00    +0.000 C 
ATOM      4  C   UNL     1       2.665   4.363  19.090  0.00  0.00    +0.000 C 
ATOM      5  N   UNL     1       4.011   3.716  19.023  0.00  0.00    +0.000 N 
ATOM      6  C   UNL     1       4.141   2.336  19.515  0.00  0.00    +0.000 C 
ATOM      7  C   UNL     1       3.334   1.324  18.695  0.00  0.00    +0.000 C 
ATOM      8  N   UNL     1       1.930   1.334  19.026  0.00  0.00    +0.000 N 
ATOM      9  H   UNL     1       1.502   0.521  19.452  0.00  0.00    +0.000 HD
ENDROOT
BRANCH   5  10
ATOM     10  C   UNL     1       5.170   4.413  18.697  0.00  0.00    +0.000 A 
ATOM     11  N   UNL     1       5.752   5.169  19.658  0.00  0.00    +0.000 NA
ATOM     12  C   UNL     1       6.884   5.838  19.404  0.00  0.00    +0.000 A 
ATOM     13  N   UNL     1       7.523   5.942  18.240  0.00  0.00    +0.000 NA
ATOM     14  C   UNL     1       6.911   5.245  17.270  0.00  0.00    +0.000 A 
ATOM     15  S   UNL     1       7.514   5.278  15.673  0.00  0.00    +0.000 S 
ATOM     16  C   UNL     1       6.274   4.251  15.095  0.00  0.00    +0.000 A 
ATOM     17  C   UNL     1       5.479   3.837  16.148  0.00  0.00    +0.000 A 
ATOM     18  C   UNL     1       5.775   4.460  17.408  0.00  0.00    +0.000 A 
BRANCH  16  19
ATOM     19  C   UNL     1       6.117   3.893  13.672  0.00  0.00    +0.000 A 
ATOM     20  C   UNL     1       4.853   3.499  13.195  0.00  0.00    +0.000 A 
ATOM     21  C   UNL     1       4.629   3.260  11.839  0.00  0.00    +0.000 A 
ATOM     22  C   UNL     1       5.675   3.395  10.934  0.00  0.00    +0.000 A 
ATOM     23  C   UNL     1       6.939   3.761  11.385  0.00  0.00    +0.000 A 
ATOM     24  C   UNL     1       7.160   4.012  12.744  0.00  0.00    +0.000 A 
ENDBRANCH  16  19
ENDBRANCH   5  10
BRANCH   4  25
ATOM     25  C   UNL     1       2.615   5.873  18.801  0.00  0.00    +0.000 A 
ATOM     26  C   UNL     1       3.060   6.384  17.568  0.00  0.00    +0.000 A 
ATOM     27  C   UNL     1       3.043   7.761  17.323  0.00  0.00    +0.000 A 
ATOM     28  C   UNL     1       2.579   8.652  18.293  0.00  0.00    +0.000 A 
ATOM     29  C   UNL     1       2.122   8.161  19.512  0.00  0.00    +0.000 A 
ATOM     30  C   UNL     1       2.132   6.792  19.757  0.00  0.00    +0.000 A 
ENDBRANCH   4  25
TORSDOF 3
ENDMDL
MODEL 3
REMARK VINA RESULT:      -7.7      6.014      9.054
REMARK  Name = 
REMARK  3 active torsions:
REMARK  status: ('A' for Active; 'I' for Inactive)
REMARK    1  A    between atoms: C_4  and  C_5
REMARK    2  A    between atoms: N_11  and  C_12
REMARK    3  A    between atoms: C_18  and  C_19
REMARK                            x       y       z     vdW  Elec       q    Type
REMARK                         _______ _______ _______ _____ _____    ______ ____
ROOT
ATOM      1  O   UNL     1       0.549  16.005  18.093  0.00  0.00    +0.000 OA
ATOM      2  C   UNL     1       0.588  15.269  19.074  0.00  0.00    +0.000 C 
ATOM      3  C   UNL     1      -0.503  14.282  19.386  0.00  0.00    +0.000 C 
ATOM      4  C   UNL     1      -0.046  12.826  19.190  0.00  0.00    +0.000 C 
ATOM      5  N   UNL     1       0.732  12.345  20.374  0.00  0.00    +0.000 N 
ATOM      6  C   UNL     1       2.008  13.009  20.679  0.00  0.00    +0.000 C 
ATOM      7  C   UNL     1       1.844  14.482  21.067  0.00  0.00    +0.000 C 
ATOM      8  N   UNL     1       1.646  15.339  19.924  0.00  0.00    +0.000 N 
ATOM      9  H   UNL     1       2.341  16.036  19.684  0.00  0.00    +0.000 HD
ENDROOT
BRANCH   5  10
ATOM     10  C   UNL     1       0.402  11.190  21.077  0.00  0.00    +0.000 A 
ATOM     11  N   UNL     1      -0.272  11.325  22.243  0.00  0.00    +0.000 NA
ATOM     12  C   UNL     1      -0.639  10.243  22.945  0.00  0.00    +0.000 A 
ATOM     13  N   UNL     1      -0.346   8.970  22.686  0.00  0.00    +0.000 NA
ATOM     14  C   UNL     1       0.378   8.841  21.564  0.00  0.00    +0.000 A 
ATOM     15  S   UNL     1       0.925   7.303  21.063  0.00  0.00    +0.000 S 
ATOM     16  C   UNL     1       1.719   7.941  19.689  0.00  0.00    +0.000 A 
ATOM     17  C   UNL     1       1.476   9.299  19.595  0.00  0.00    +0.000 A 
ATOM     18  C   UNL     1       0.769   9.864  20.711  0.00  0.00    +0.000 A 
BRANCH  16  19
ATOM     19  C   UNL     1       2.533   7.122  18.771  0.00  0.00    +0.000 A 
ATOM     20  C   UNL     1       3.414   7.757  17.876  0.00  0.00    +0.000 A 
ATOM     21  C   UNL     1       4.285   7.024  17.069  0.00  0.00    +0.000 A 
ATOM     22  C   UNL     1       4.278   5.636  17.130  0.00  0.00    +0.000 A 
ATOM     23  C   UNL     1       3.399   4.985  17.991  0.00  0.00    +0.000 A 
ATOM     24  C   UNL     1       2.535   5.721  18.808  0.00  0.00    +0.000 A 
ENDBRANCH  16  19
ENDBRANCH   5  10
BRANCH   4  25
ATOM     25  C   UNL     1      -1.240  11.958  18.756  0.00  0.00    +0.000 A 
ATOM     26  C   UNL     1      -1.050  10.842  17.921  0.00  0.00    +0.000 A 
ATOM     27  C   UNL     1      -2.144  10.075  17.503  0.00  0.00    +0.000 A 
ATOM     28  C   UNL     1      -3.439  10.400  17.911  0.00  0.00    +0.000 A 
ATOM     29  C   UNL     1      -3.641  11.491  18.748  0.00  0.00    +0.000 A 
ATOM     30  C   UNL     1      -2.557  12.253  19.171  0.00  0.00    +0.000 A 
ENDBRANCH   4  25
TORSDOF 3
ENDMDL
MODEL 4
REMARK VINA RESULT:      -7.4      3.039      6.941
REMARK  Name = 
REMARK  3 active torsions:
REMARK  status: ('A' for Active; 'I' for Inactive)
REMARK    1  A    between atoms: C_4  and  C_5
REMARK    2  A    between atoms: N_11  and  C_12
REMARK    3  A    between atoms: C_18  and  C_19
REMARK                            x       y       z     vdW  Elec       q    Type
REMARK                         _______ _______ _______ _____ _____    ______ ____
ROOT
ATOM      1  O   UNL     1       8.216   5.731  12.572  0.00  0.00    +0.000 OA
ATOM      2  C   UNL     1       7.469   5.006  13.220  0.00  0.00    +0.000 C 
ATOM      3  C   UNL     1       7.666   4.750  14.689  0.00  0.00    +0.000 C 
ATOM      4  C   UNL     1       6.572   5.407  15.548  0.00  0.00    +0.000 C 
ATOM      5  N   UNL     1       5.331   4.572  15.566  0.00  0.00    +0.000 N 
ATOM      6  C   UNL     1       4.617   4.366  14.297  0.00  0.00    +0.000 C 
ATOM      7  C   UNL     1       5.433   3.582  13.265  0.00  0.00    +0.000 C 
ATOM      8  N   UNL     1       6.422   4.397  12.603  0.00  0.00    +0.000 N 
ATOM      9  H   UNL     1       6.347   4.581  11.610  0.00  0.00    +0.000 HD
ENDROOT
BRANCH   5  10
ATOM     10  C   UNL     1       4.725   4.144  16.743  0.00  0.00    +0.000 A 
ATOM     11  N   UNL     1       4.791   2.828  17.052  0.00  0.00    +0.000 NA
ATOM     12  C   UNL     1       4.248   2.368  18.188  0.00  0.00    +0.000 A 
ATOM     13  N   UNL     1       3.533   3.051  19.080  0.00  0.00    +0.000 NA
ATOM     14  C   UNL     1       3.413   4.344  18.742  0.00  0.00    +0.000 A 
ATOM     15  S   UNL     1       2.484   5.404  19.705  0.00  0.00    +0.000 S 
ATOM     16  C   UNL     1       2.785   6.737  18.675  0.00  0.00    +0.000 A 
ATOM     17  C   UNL     1       3.658   6.364  17.669  0.00  0.00    +0.000 A 
ATOM     18  C   UNL     1       3.975   4.963  17.635  0.00  0.00    +0.000 A 
BRANCH  16  19
ATOM     19  C   UNL     1       2.179   8.067  18.874  0.00  0.00    +0.000 A 
ATOM     20  C   UNL     1       2.209   9.003  17.823  0.00  0.00    +0.000 A 
ATOM     21  C   UNL     1       1.552  10.230  17.923  0.00  0.00    +0.000 A 
ATOM     22  C   UNL     1       0.862  10.550  19.086  0.00  0.00    +0.000 A 
ATOM     23  C   UNL     1       0.838   9.650  20.146  0.00  0.00    +0.000 A 
ATOM     24  C   UNL     1       1.488   8.415  20.042  0.00  0.00    +0.000 A 
ENDBRANCH  16  19
ENDBRANCH   5  10
BRANCH   4  25
ATOM     25  C   UNL     1       7.151   5.805  16.917  0.00  0.00    +0.000 A 
ATOM     26  C   UNL     1       7.348   7.158  17.247  0.00  0.00    +0.000 A 
ATOM     27  C   UNL     1       7.905   7.512  18.482  0.00  0.00    +0.000 A 
ATOM     28  C   UNL     1       8.268   6.531  19.407  0.00  0.00    +0.000 A 
ATOM     29  C   UNL     1       8.066   5.190  19.100  0.00  0.00    +0.000 A 
ATOM     30  C   UNL     1       7.507   4.834  17.878  0.00  0.00    +0.000 A 
ENDBRANCH   4  25
TORSDOF 3
ENDMDL
MODEL 5
REMARK VINA RESULT:      -7.3      9.207     13.276
REMARK  Name = 
REMARK  3 active torsions:
REMARK  status: ('A' for Active; 'I' for Inactive)
REMARK    1  A    between atoms: C_4  and  C_5
REMARK    2  A    between atoms: N_11  and  C_12
REMARK    3  A    between atoms: C_18  and  C_19
REMARK                            x       y       z     vdW  Elec       q    Type
REMARK                         _______ _______ _______ _____ _____    ______ ____
ROOT
ATOM      1  O   UNL     1       3.372  14.535  21.494  0.00  0.00    +0.000 OA
ATOM      2  C   UNL     1       2.532  14.306  20.630  0.00  0.00    +0.000 C 
ATOM      3  C   UNL     1       1.946  12.938  20.416  0.00  0.00    +0.000 C 
ATOM      4  C   UNL     1       0.467  12.864  20.835  0.00  0.00    +0.000 C 
ATOM      5  N   UNL     1      -0.421  13.415  19.765  0.00  0.00    +0.000 N 
ATOM      6  C   UNL     1      -0.289  14.839  19.422  0.00  0.00    +0.000 C 
ATOM      7  C   UNL     1       1.076  15.192  18.822  0.00  0.00    +0.000 C 
ATOM      8  N   UNL     1       2.107  15.314  19.823  0.00  0.00    +0.000 N 
ATOM      9  H   UNL     1       2.550  16.210  19.991  0.00  0.00    +0.000 HD
ENDROOT
BRANCH   5  10
ATOM     10  C   UNL     1      -1.481  12.698  19.220  0.00  0.00    +0.000 A 
ATOM     11  N   UNL     1      -1.280  12.055  18.046  0.00  0.00    +0.000 NA
ATOM     12  C   UNL     1      -2.260  11.328  17.492  0.00  0.00    +0.000 A 
ATOM     13  N   UNL     1      -3.516  11.202  17.916  0.00  0.00    +0.000 NA
ATOM     14  C   UNL     1      -3.734  11.891  19.046  0.00  0.00    +0.000 A 
ATOM     15  S   UNL     1      -5.292  11.930  19.745  0.00  0.00    +0.000 S 
ATOM     16  C   UNL     1      -4.783  12.946  21.024  0.00  0.00    +0.000 A 
ATOM     17  C   UNL     1      -3.420  13.161  20.938  0.00  0.00    +0.000 A 
ATOM     18  C   UNL     1      -2.799  12.629  19.757  0.00  0.00    +0.000 A 
BRANCH  16  19
ATOM     19  C   UNL     1      -5.703  13.487  22.043  0.00  0.00    +0.000 A 
ATOM     20  C   UNL     1      -6.852  12.753  22.393  0.00  0.00    +0.000 A 
ATOM     21  C   UNL     1      -7.691  13.167  23.429  0.00  0.00    +0.000 A 
ATOM     22  C   UNL     1      -7.403  14.335  24.125  0.00  0.00    +0.000 A 
ATOM     23  C   UNL     1      -6.285  15.088  23.781  0.00  0.00    +0.000 A 
ATOM     24  C   UNL     1      -5.438  14.666  22.750  0.00  0.00    +0.000 A 
ENDBRANCH  16  19
ENDBRANCH   5  10
BRANCH   4  25
ATOM     25  C   UNL     1       0.137  11.448  21.338  0.00  0.00    +0.000 A 
ATOM     26  C   UNL     1      -0.631  11.260  22.501  0.00  0.00    +0.000 A 
ATOM     27  C   UNL     1      -0.901   9.970  22.972  0.00  0.00    +0.000 A 
ATOM     28  C   UNL     1      -0.418   8.849  22.294  0.00  0.00    +0.000 A 
ATOM     29  C   UNL     1       0.331   9.018  21.134  0.00  0.00    +0.000 A 
ATOM     30  C   UNL     1       0.596  10.298  20.659  0.00  0.00    +0.000 A 
ENDBRANCH   4  25
TORSDOF 3
ENDMDL
MODEL 6
REMARK VINA RESULT:      -7.2      6.618      9.859
REMARK  Name = 
REMARK  3 active torsions:
REMARK  status: ('A' for Active; 'I' for Inactive)
REMARK    1  A    between atoms: C_4  and  C_5
REMARK    2  A    between atoms: N_11  and  C_12
REMARK    3  A    between atoms: C_18  and  C_19
REMARK                            x       y       z     vdW  Elec       q    Type
REMARK                         _______ _______ _______ _____ _____    ______ ____
ROOT
ATOM      1  O   UNL     1       0.821  16.594  18.049  0.00  0.00    +0.000 OA
ATOM      2  C   UNL     1       0.779  15.927  19.076  0.00  0.00    +0.000 C 
ATOM      3  C   UNL     1      -0.419  15.099  19.453  0.00  0.00    +0.000 C 
ATOM      4  C   UNL     1      -0.140  13.589  19.357  0.00  0.00    +0.000 C 
ATOM      5  N   UNL     1       0.584  13.100  20.571  0.00  0.00    +0.000 N 
ATOM      6  C   UNL     1       1.932  13.627  20.832  0.00  0.00    +0.000 C 
ATOM      7  C   UNL     1       1.947  15.131  21.120  0.00  0.00    +0.000 C 
ATOM      8  N   UNL     1       1.843  15.927  19.921  0.00  0.00    +0.000 N 
ATOM      9  H   UNL     1       2.615  16.518  19.635  0.00  0.00    +0.000 HD
ENDROOT
BRANCH   5  10
ATOM     10  C   UNL     1       0.124  12.043  21.350  0.00  0.00    +0.000 A 
ATOM     11  N   UNL     1      -0.604  12.333  22.453  0.00  0.00    +0.000 NA
ATOM     12  C   UNL     1      -1.094  11.351  23.223  0.00  0.00    +0.000 A 
ATOM     13  N   UNL     1      -0.887  10.041  23.097  0.00  0.00    +0.000 NA
ATOM     14  C   UNL     1      -0.112   9.757  22.039  0.00  0.00    +0.000 A 
ATOM     15  S   UNL     1       0.342   8.143  21.713  0.00  0.00    +0.000 S 
ATOM     16  C   UNL     1       1.262   8.592  20.342  0.00  0.00    +0.000 A 
ATOM     17  C   UNL     1       1.132   9.949  20.114  0.00  0.00    +0.000 A 
ATOM     18  C   UNL     1       0.407  10.665  21.127  0.00  0.00    +0.000 A 
BRANCH  16  19
ATOM     19  C   UNL     1       2.061   7.634  19.555  0.00  0.00    +0.000 A 
ATOM     20  C   UNL     1       2.205   6.312  20.017  0.00  0.00    +0.000 A 
ATOM     21  C   UNL     1       2.854   5.341  19.253  0.00  0.00    +0.000 A 
ATOM     22  C   UNL     1       3.387   5.680  18.016  0.00  0.00    +0.000 A 
ATOM     23  C   UNL     1       3.277   6.986  17.549  0.00  0.00    +0.000 A 
ATOM     24  C   UNL     1       2.616   7.956  18.310  0.00  0.00    +0.000 A 
ENDBRANCH  16  19
ENDBRANCH   5  10
BRANCH   4  25
ATOM     25  C   UNL     1      -1.431  12.842  18.981  0.00  0.00    +0.000 A 
ATOM     26  C   UNL     1      -2.619  13.052  19.705  0.00  0.00    +0.000 A 
ATOM     27  C   UNL     1      -3.782  12.346  19.379  0.00  0.00    +0.000 A 
ATOM     28  C   UNL     1      -3.786  11.426  18.328  0.00  0.00    +0.000 A 
ATOM     29  C   UNL     1      -2.624  11.219  17.594  0.00  0.00    +0.000 A 
ATOM     30  C   UNL     1      -1.467  11.923  17.910  0.00  0.00    +0.000 A 
ENDBRANCH   4  25
TORSDOF 3
ENDMDL
MODEL 7
REMARK VINA RESULT:      -7.2      9.240     13.508
REMARK  Name = 
REMARK  3 active torsions:
REMARK  status: ('A' for Active; 'I' for Inactive)
REMARK    1  A    between atoms: C_4  and  C_5
REMARK    2  A    between atoms: N_11  and  C_12
REMARK    3  A    between atoms: C_18  and  C_19
REMARK                            x       y       z     vdW  Elec       q    Type
REMARK                         _______ _______ _______ _____ _____    ______ ____
ROOT
ATOM      1  O   UNL     1       2.988  14.923  22.335  0.00  0.00    +0.000 OA
ATOM      2  C   UNL     1       2.204  14.744  21.410  0.00  0.00    +0.000 C 
ATOM      3  C   UNL     1       1.777  13.371  20.967  0.00  0.00    +0.000 C 
ATOM      4  C   UNL     1       0.304  13.081  21.302  0.00  0.00    +0.000 C 
ATOM      5  N   UNL     1      -0.607  13.695  20.286  0.00  0.00    +0.000 N 
ATOM      6  C   UNL     1      -0.620  15.161  20.165  0.00  0.00    +0.000 C 
ATOM      7  C   UNL     1       0.715  15.740  19.688  0.00  0.00    +0.000 C 
ATOM      8  N   UNL     1       1.696  15.814  20.743  0.00  0.00    +0.000 N 
ATOM      9  H   UNL     1       2.033  16.714  21.063  0.00  0.00    +0.000 HD
ENDROOT
BRANCH   5  10
ATOM     10  C   UNL     1      -1.566  12.965  19.592  0.00  0.00    +0.000 A 
ATOM     11  N   UNL     1      -1.214  12.416  18.405  0.00  0.00    +0.000 NA
ATOM     12  C   UNL     1      -2.092  11.680  17.710  0.00  0.00    +0.000 A 
ATOM     13  N   UNL     1      -3.375  11.461  17.996  0.00  0.00    +0.000 NA
ATOM     14  C   UNL     1      -3.741  12.058  19.140  0.00  0.00    +0.000 A 
ATOM     15  S   UNL     1      -5.359  11.968  19.679  0.00  0.00    +0.000 S 
ATOM     16  C   UNL     1      -5.036  12.917  21.066  0.00  0.00    +0.000 A 
ATOM     17  C   UNL     1      -3.686  13.207  21.132  0.00  0.00    +0.000 A 
ATOM     18  C   UNL     1      -2.923  12.791  19.988  0.00  0.00    +0.000 A 
BRANCH  16  19
ATOM     19  C   UNL     1      -6.081  13.337  22.020  0.00  0.00    +0.000 A 
ATOM     20  C   UNL     1      -6.110  12.766  23.306  0.00  0.00    +0.000 A 
ATOM     21  C   UNL     1      -7.006  13.212  24.279  0.00  0.00    +0.000 A 
ATOM     22  C   UNL     1      -7.902  14.230  23.976  0.00  0.00    +0.000 A 
ATOM     23  C   UNL     1      -7.906  14.794  22.704  0.00  0.00    +0.000 A 
ATOM     24  C   UNL     1      -7.000  14.354  21.733  0.00  0.00    +0.000 A 
ENDBRANCH  16  19
ENDBRANCH   5  10
BRANCH   4  25
ATOM     25  C   UNL     1       0.115  11.579  21.572  0.00  0.00    +0.000 A 
ATOM     26  C   UNL     1       0.650  10.618  20.695  0.00  0.00    +0.000 A 
ATOM     27  C   UNL     1       0.447   9.254  20.929  0.00  0.00    +0.000 A 
ATOM     28  C   UNL     1      -0.282   8.822  22.038  0.00  0.00    +0.000 A 
ATOM     29  C   UNL     1      -0.804   9.758  22.923  0.00  0.00    +0.000 A 
ATOM     30  C   UNL     1      -0.601  11.116  22.698  0.00  0.00    +0.000 A 
ENDBRANCH   4  25
TORSDOF 3
ENDMDL
MODEL 8
REMARK VINA RESULT:      -7.0      6.754      9.932
REMARK  Name = 
REMARK  3 active torsions:
REMARK  status: ('A' for Active; 'I' for Inactive)
REMARK    1  A    between atoms: C_4  and  C_5
REMARK    2  A    between atoms: N_11  and  C_12
REMARK    3  A    between atoms: C_18  and  C_19
REMARK                            x       y       z     vdW  Elec       q    Type
REMARK                         _______ _______ _______ _____ _____    ______ ____
ROOT
ATOM      1  O   UNL     1       0.205  16.658  18.198  0.00  0.00    +0.000 OA
ATOM      2  C   UNL     1       0.308  15.939  19.186  0.00  0.00    +0.000 C 
ATOM      3  C   UNL     1      -0.840  15.122  19.713  0.00  0.00    +0.000 C 
ATOM      4  C   UNL     1      -0.629  13.613  19.500  0.00  0.00    +0.000 C 
ATOM      5  N   UNL     1       0.265  13.043  20.556  0.00  0.00    +0.000 N 
ATOM      6  C   UNL     1       1.654  13.524  20.620  0.00  0.00    +0.000 C 
ATOM      7  C   UNL     1       1.763  15.010  20.972  0.00  0.00    +0.000 C 
ATOM      8  N   UNL     1       1.494  15.869  19.845  0.00  0.00    +0.000 N 
ATOM      9  H   UNL     1       2.228  16.456  19.466  0.00  0.00    +0.000 HD
ENDROOT
BRANCH   5  10
ATOM     10  C   UNL     1      -0.097  11.959  21.348  0.00  0.00    +0.000 A 
ATOM     11  N   UNL     1      -0.792  12.202  22.484  0.00  0.00    +0.000 NA
ATOM     12  C   UNL     1      -1.189  11.191  23.269  0.00  0.00    +0.000 A 
ATOM     13  N   UNL     1      -0.911   9.896  23.126  0.00  0.00    +0.000 NA
ATOM     14  C   UNL     1      -0.168   9.661  22.034  0.00  0.00    +0.000 A 
ATOM     15  S   UNL     1       0.364   8.078  21.679  0.00  0.00    +0.000 S 
ATOM     16  C   UNL     1       1.195   8.584  20.271  0.00  0.00    +0.000 A 
ATOM     17  C   UNL     1       0.975   9.932  20.057  0.00  0.00    +0.000 A 
ATOM     18  C   UNL     1       0.256  10.600  21.105  0.00  0.00    +0.000 A 
BRANCH  16  19
ATOM     19  C   UNL     1       2.012   7.677  19.443  0.00  0.00    +0.000 A 
ATOM     20  C   UNL     1       2.601   8.164  18.261  0.00  0.00    +0.000 A 
ATOM     21  C   UNL     1       3.473   7.379  17.506  0.00  0.00    +0.000 A 
ATOM     22  C   UNL     1       3.761   6.082  17.912  0.00  0.00    +0.000 A 
ATOM     23  C   UNL     1       3.173   5.571  19.065  0.00  0.00    +0.000 A 
ATOM     24  C   UNL     1       2.308   6.363  19.829  0.00  0.00    +0.000 A 
ENDBRANCH  16  19
ENDBRANCH   5  10
BRANCH   4  25
ATOM     25  C   UNL     1      -1.987  12.918  19.304  0.00  0.00    +0.000 A 
ATOM     26  C   UNL     1      -3.100  13.283  20.084  0.00  0.00    +0.000 A 
ATOM     27  C   UNL     1      -4.324  12.625  19.923  0.00  0.00    +0.000 A 
ATOM     28  C   UNL     1      -4.465  11.601  18.985  0.00  0.00    +0.000 A 
ATOM     29  C   UNL     1      -3.379  11.239  18.196  0.00  0.00    +0.000 A 
ATOM     30  C   UNL     1      -2.161  11.894  18.348  0.00  0.00    +0.000 A 
ENDBRANCH   4  25
TORSDOF 3
ENDMDL
MODEL 9
REMARK VINA RESULT:      -6.6      9.452     11.896
REMARK  Name = 
REMARK  3 active torsions:
REMARK  status: ('A' for Active; 'I' for Inactive)
REMARK    1  A    between atoms: C_4  and  C_5
REMARK    2  A    between atoms: N_11  and  C_12
REMARK    3  A    between atoms: C_18  and  C_19
REMARK                            x       y       z     vdW  Elec       q    Type
REMARK                         _______ _______ _______ _____ _____    ______ ____
ROOT
ATOM      1  O   UNL     1       3.073  14.820  20.908  0.00  0.00    +0.000 OA
ATOM      2  C   UNL     1       1.857  14.899  20.772  0.00  0.00    +0.000 C 
ATOM      3  C   UNL     1       0.991  13.692  20.541  0.00  0.00    +0.000 C 
ATOM      4  C   UNL     1       0.097  13.374  21.753  0.00  0.00    +0.000 C 
ATOM      5  N   UNL     1      -1.118  14.247  21.766  0.00  0.00    +0.000 N 
ATOM      6  C   UNL     1      -0.926  15.697  21.920  0.00  0.00    +0.000 C 
ATOM      7  C   UNL     1      -0.171  16.334  20.750  0.00  0.00    +0.000 C 
ATOM      8  N   UNL     1       1.253  16.115  20.823  0.00  0.00    +0.000 N 
ATOM      9  H   UNL     1       1.882  16.899  20.956  0.00  0.00    +0.000 HD
ENDROOT
BRANCH   5  10
ATOM     10  C   UNL     1      -2.412  13.740  21.827  0.00  0.00    +0.000 A 
ATOM     11  N   UNL     1      -3.108  13.907  22.977  0.00  0.00    +0.000 NA
ATOM     12  C   UNL     1      -4.368  13.462  23.079  0.00  0.00    +0.000 A 
ATOM     13  N   UNL     1      -5.057  12.760  22.181  0.00  0.00    +0.000 NA
ATOM     14  C   UNL     1      -4.344  12.539  21.066  0.00  0.00    +0.000 A 
ATOM     15  S   UNL     1      -4.999  11.604  19.796  0.00  0.00    +0.000 S 
ATOM     16  C   UNL     1      -3.587  11.760  18.842  0.00  0.00    +0.000 A 
ATOM     17  C   UNL     1      -2.683  12.592  19.475  0.00  0.00    +0.000 A 
ATOM     18  C   UNL     1      -3.060  12.994  20.802  0.00  0.00    +0.000 A 
BRANCH  16  19
ATOM     19  C   UNL     1      -3.410  11.084  17.543  0.00  0.00    +0.000 A 
ATOM     20  C   UNL     1      -4.249  11.427  16.466  0.00  0.00    +0.000 A 
ATOM     21  C   UNL     1      -4.048  10.899  15.190  0.00  0.00    +0.000 A 
ATOM     22  C   UNL     1      -3.009  10.003  14.971  0.00  0.00    +0.000 A 
ATOM     23  C   UNL     1      -2.181   9.631  16.025  0.00  0.00    +0.000 A 
ATOM     24  C   UNL     1      -2.376  10.170  17.302  0.00  0.00    +0.000 A 
ENDBRANCH  16  19
ENDBRANCH   5  10
BRANCH   4  25
ATOM     25  C   UNL     1      -0.148  11.858  21.838  0.00  0.00    +0.000 A 
ATOM     26  C   UNL     1      -0.689  11.282  23.002  0.00  0.00    +0.000 A 
ATOM     27  C   UNL     1      -0.879   9.898  23.085  0.00  0.00    +0.000 A 
ATOM     28  C   UNL     1      -0.542   9.067  22.015  0.00  0.00    +0.000 A 
ATOM     29  C   UNL     1      -0.020   9.622  20.852  0.00  0.00    +0.000 A 
ATOM     30  C   UNL     1       0.165  10.998  20.762  0.00  0.00    +0.000 A 
ENDBRANCH   4  25
TORSDOF 3
ENDMDL
