MODEL 1
REMARK VINA RESULT:      -8.4      0.000      0.000
REMARK  Name = 
REMARK  5 active torsions:
REMARK  status: ('A' for Active; 'I' for Inactive)
REMARK    1  A    between atoms: C_2  and  C_17
REMARK    2  A    between atoms: N_3  and  C_4
REMARK    3  A    between atoms: C_4  and  C_5
REMARK    4  A    between atoms: N_8  and  C_9
REMARK    5  A    between atoms: C_9  and  C_10
REMARK                            x       y       z     vdW  Elec       q    Type
REMARK                         _______ _______ _______ _____ _____    ______ ____
ROOT
ATOM      1  O   UNL     1       1.271   5.050  20.714  0.00  0.00    +0.000 OA
ATOM      2  C   UNL     1       2.135   5.664  20.101  0.00  0.00    +0.000 C 
ATOM      3  N   UNL     1       2.296   7.032  20.168  0.00  0.00    +0.000 N 
ATOM      4  H   UNL     1       3.062   7.448  19.652  0.00  0.00    +0.000 HD
ENDROOT
BRANCH   2   5
ATOM      5  C   UNL     1       3.227   4.987  19.276  0.00  0.00    +0.000 C 
ATOM      6  C   UNL     1       3.036   5.070  17.760  0.00  0.00    +0.000 C 
ATOM      7  C   UNL     1       4.461   4.871  17.383  0.00  0.00    +0.000 A 
ATOM      8  C   UNL     1       5.034   4.444  16.200  0.00  0.00    +0.000 A 
ATOM      9  C   UNL     1       6.426   4.360  16.152  0.00  0.00    +0.000 A 
ATOM     10  F   UNL     1       7.017   3.903  15.039  0.00  0.00    +0.000 F 
ATOM     11  C   UNL     1       7.227   4.729  17.242  0.00  0.00    +0.000 A 
ATOM     12  C   UNL     1       6.636   5.173  18.425  0.00  0.00    +0.000 A 
ATOM     13  C   UNL     1       5.259   5.205  18.473  0.00  0.00    +0.000 A 
ATOM     14  O   UNL     1       4.534   5.524  19.594  0.00  0.00    +0.000 OA
ENDBRANCH   2   5
BRANCH   3  15
ATOM     15  C   UNL     1       1.513   7.874  21.043  0.00  0.00    +0.000 C 
BRANCH  15  16
ATOM     16  C   UNL     1       0.890   8.960  20.248  0.00  0.00    +0.000 A 
ATOM     17  C   UNL     1       1.463   9.679  19.173  0.00  0.00    +0.000 A 
ATOM     18  N   UNL     1       0.653  10.622  18.687  0.00  0.00    +0.000 NA
ATOM     19  N   UNL     1      -0.434  10.553  19.488  0.00  0.00    +0.000 N 
ATOM     20  C   UNL     1      -0.357   9.539  20.401  0.00  0.00    +0.000 A 
BRANCH  19  21
ATOM     21  C   UNL     1      -1.541  11.487  19.303  0.00  0.00    +0.000 C 
BRANCH  21  22
ATOM     22  C   UNL     1      -2.390  11.131  18.103  0.00  0.00    +0.000 A 
ATOM     23  C   UNL     1      -1.903  10.261  17.114  0.00  0.00    +0.000 A 
ATOM     24  C   UNL     1      -2.682   9.937  16.004  0.00  0.00    +0.000 A 
ATOM     25  C   UNL     1      -3.963  10.468  15.871  0.00  0.00    +0.000 A 
ATOM     26  C   UNL     1      -4.467  11.319  16.856  0.00  0.00    +0.000 A 
ATOM     27  C   UNL     1      -3.689  11.645  17.967  0.00  0.00    +0.000 A 
ENDBRANCH  21  22
ENDBRANCH  19  21
ENDBRANCH  15  16
ENDBRANCH   3  15
TORSDOF 5
ENDMDL
MODEL 2
REMARK VINA RESULT:      -8.2      1.173      1.430
REMARK  Name = 
REMARK  5 active torsions:
REMARK  status: ('A' for Active; 'I' for Inactive)
REMARK    1  A    between atoms: C_2  and  C_17
REMARK    2  A    between atoms: N_3  and  C_4
REMARK    3  A    between atoms: C_4  and  C_5
REMARK    4  A    between atoms: N_8  and  C_9
REMARK    5  A    between atoms: C_9  and  C_10
REMARK                            x       y       z     vdW  Elec       q    Type
REMARK                         _______ _______ _______ _____ _____    ______ ____
ROOT
ATOM      1  O   UNL     1       1.373   5.215  20.769  0.00  0.00    +0.000 OA
ATOM      2  C   UNL     1       2.121   6.039  20.261  0.00  0.00    +0.000 C 
ATOM      3  N   UNL     1       2.088   7.387  20.553  0.00  0.00    +0.000 N 
ATOM      4  H   UNL     1       2.769   7.989  20.107  0.00  0.00    +0.000 HD
ENDROOT
BRANCH   2   5
ATOM      5  C   UNL     1       3.271   5.673  19.326  0.00  0.00    +0.000 C 
ATOM      6  C   UNL     1       3.114   4.335  18.601  0.00  0.00    +0.000 C 
ATOM      7  C   UNL     1       4.023   4.632  17.463  0.00  0.00    +0.000 A 
ATOM      8  C   UNL     1       4.695   3.792  16.596  0.00  0.00    +0.000 A 
ATOM      9  C   UNL     1       5.487   4.382  15.610  0.00  0.00    +0.000 A 
ATOM     10  F   UNL     1       6.193   3.599  14.781  0.00  0.00    +0.000 F 
ATOM     11  C   UNL     1       5.577   5.774  15.469  0.00  0.00    +0.000 A 
ATOM     12  C   UNL     1       4.881   6.611  16.341  0.00  0.00    +0.000 A 
ATOM     13  C   UNL     1       4.141   6.014  17.338  0.00  0.00    +0.000 A 
ATOM     14  O   UNL     1       3.485   6.701  18.328  0.00  0.00    +0.000 OA
ENDBRANCH   2   5
BRANCH   3  15
ATOM     15  C   UNL     1       1.221   7.952  21.561  0.00  0.00    +0.000 C 
BRANCH  15  16
ATOM     16  C   UNL     1       0.616   9.203  21.043  0.00  0.00    +0.000 A 
ATOM     17  C   UNL     1      -0.148  10.152  21.761  0.00  0.00    +0.000 A 
ATOM     18  N   UNL     1      -0.581  11.157  20.996  0.00  0.00    +0.000 NA
ATOM     19  N   UNL     1      -0.141  10.830  19.760  0.00  0.00    +0.000 N 
ATOM     20  C   UNL     1       0.623   9.698  19.751  0.00  0.00    +0.000 A 
BRANCH  19  21
ATOM     21  C   UNL     1      -0.472  11.676  18.618  0.00  0.00    +0.000 C 
BRANCH  21  22
ATOM     22  C   UNL     1      -1.776  11.270  17.969  0.00  0.00    +0.000 A 
ATOM     23  C   UNL     1      -1.807  10.253  16.999  0.00  0.00    +0.000 A 
ATOM     24  C   UNL     1      -3.008   9.881  16.396  0.00  0.00    +0.000 A 
ATOM     25  C   UNL     1      -4.196  10.510  16.758  0.00  0.00    +0.000 A 
ATOM     26  C   UNL     1      -4.183  11.508  17.734  0.00  0.00    +0.000 A 
ATOM     27  C   UNL     1      -2.983  11.883  18.339  0.00  0.00    +0.000 A 
ENDBRANCH  21  22
ENDBRANCH  19  21
ENDBRANCH  15  16
ENDBRANCH   3  15
TORSDOF 5
ENDMDL
MODEL 3
REMARK VINA RESULT:      -8.2      0.559      1.129
REMARK  Name = 
REMARK  5 active torsions:
REMARK  status: ('A' for Active; 'I' for Inactive)
REMARK    1  A    between atoms: C_2  and  C_17
REMARK    2  A    between atoms: N_3  and  C_4
REMARK    3  A    between atoms: C_4  and  C_5
REMARK    4  A    between atoms: N_8  and  C_9
REMARK    5  A    between atoms: C_9  and  C_10
REMARK                            x       y       z     vdW  Elec       q    Type
REMARK                         _______ _______ _______ _____ _____    ______ ____
ROOT
ATOM      1  O   UNL     1       1.340   5.070  20.789  0.00  0.00    +0.000 OA
ATOM      2  C   UNL     1       2.143   5.687  20.102  0.00  0.00    +0.000 C 
ATOM      3  N   UNL     1       2.233   7.064  20.080  0.00  0.00    +0.000 N 
ATOM      4  H   UNL     1       2.953   7.486  19.505  0.00  0.00    +0.000 HD
ENDROOT
BRANCH   2   5
ATOM      5  C   UNL     1       3.234   5.017  19.271  0.00  0.00    +0.000 C 
ATOM      6  C   UNL     1       3.078   5.167  17.757  0.00  0.00    +0.000 C 
ATOM      7  C   UNL     1       4.504   4.947  17.400  0.00  0.00    +0.000 A 
ATOM      8  C   UNL     1       5.091   4.554  16.212  0.00  0.00    +0.000 A 
ATOM      9  C   UNL     1       6.481   4.435  16.188  0.00  0.00    +0.000 A 
ATOM     10  F   UNL     1       7.083   4.009  15.069  0.00  0.00    +0.000 F 
ATOM     11  C   UNL     1       7.268   4.738  17.308  0.00  0.00    +0.000 A 
ATOM     12  C   UNL     1       6.664   5.148  18.497  0.00  0.00    +0.000 A 
ATOM     13  C   UNL     1       5.288   5.215  18.519  0.00  0.00    +0.000 A 
ATOM     14  O   UNL     1       4.548   5.506  19.637  0.00  0.00    +0.000 OA
ENDBRANCH   2   5
BRANCH   3  15
ATOM     15  C   UNL     1       1.443   7.918  20.936  0.00  0.00    +0.000 C 
BRANCH  15  16
ATOM     16  C   UNL     1       0.936   9.067  20.148  0.00  0.00    +0.000 A 
ATOM     17  C   UNL     1       1.403   9.525  18.893  0.00  0.00    +0.000 A 
ATOM     18  N   UNL     1       0.755  10.609  18.461  0.00  0.00    +0.000 NA
ATOM     19  N   UNL     1      -0.102  10.891  19.468  0.00  0.00    +0.000 N 
ATOM     20  C   UNL     1      -0.065   9.966  20.472  0.00  0.00    +0.000 A 
BRANCH  19  21
ATOM     21  C   UNL     1      -0.962  12.069  19.389  0.00  0.00    +0.000 C 
BRANCH  21  22
ATOM     22  C   UNL     1      -2.241  11.788  18.634  0.00  0.00    +0.000 A 
ATOM     23  C   UNL     1      -3.491  12.043  19.224  0.00  0.00    +0.000 A 
ATOM     24  C   UNL     1      -4.672  11.780  18.532  0.00  0.00    +0.000 A 
ATOM     25  C   UNL     1      -4.624  11.268  17.237  0.00  0.00    +0.000 A 
ATOM     26  C   UNL     1      -3.389  11.028  16.632  0.00  0.00    +0.000 A 
ATOM     27  C   UNL     1      -2.206  11.290  17.322  0.00  0.00    +0.000 A 
ENDBRANCH  21  22
ENDBRANCH  19  21
ENDBRANCH  15  16
ENDBRANCH   3  15
TORSDOF 5
ENDMDL
MODEL 4
REMARK VINA RESULT:      -8.2      0.850      1.145
REMARK  Name = 
REMARK  5 active torsions:
REMARK  status: ('A' for Active; 'I' for Inactive)
REMARK    1  A    between atoms: C_2  and  C_17
REMARK    2  A    between atoms: N_3  and  C_4
REMARK    3  A    between atoms: C_4  and  C_5
REMARK    4  A    between atoms: N_8  and  C_9
REMARK    5  A    between atoms: C_9  and  C_10
REMARK                            x       y       z     vdW  Elec       q    Type
REMARK                         _______ _______ _______ _____ _____    ______ ____
ROOT
ATOM      1  O   UNL     1       1.204   4.453  20.254  0.00  0.00    +0.000 OA
ATOM      2  C   UNL     1       2.141   5.181  19.952  0.00  0.00    +0.000 C 
ATOM      3  N   UNL     1       2.287   6.473  20.413  0.00  0.00    +0.000 N 
ATOM      4  H   UNL     1       3.115   6.987  20.137  0.00  0.00    +0.000 HD
ENDROOT
BRANCH   2   5
ATOM      5  C   UNL     1       3.338   4.717  19.125  0.00  0.00    +0.000 C 
ATOM      6  C   UNL     1       3.145   4.797  17.609  0.00  0.00    +0.000 C 
ATOM      7  C   UNL     1       4.584   4.852  17.241  0.00  0.00    +0.000 A 
ATOM      8  C   UNL     1       5.229   4.553  16.056  0.00  0.00    +0.000 A 
ATOM      9  C   UNL     1       6.615   4.709  16.020  0.00  0.00    +0.000 A 
ATOM     10  F   UNL     1       7.282   4.382  14.903  0.00  0.00    +0.000 F 
ATOM     11  C   UNL     1       7.335   5.187  17.124  0.00  0.00    +0.000 A 
ATOM     12  C   UNL     1       6.669   5.500  18.309  0.00  0.00    +0.000 A 
ATOM     13  C   UNL     1       5.307   5.296  18.345  0.00  0.00    +0.000 A 
ATOM     14  O   UNL     1       4.532   5.463  19.465  0.00  0.00    +0.000 OA
ENDBRANCH   2   5
BRANCH   3  15
ATOM     15  C   UNL     1       1.390   7.071  21.374  0.00  0.00    +0.000 C 
BRANCH  15  16
ATOM     16  C   UNL     1       1.055   8.449  20.939  0.00  0.00    +0.000 A 
ATOM     17  C   UNL     1       0.787   9.570  21.760  0.00  0.00    +0.000 A 
ATOM     18  N   UNL     1       0.484  10.666  21.060  0.00  0.00    +0.000 NA
ATOM     19  N   UNL     1       0.501  10.241  19.777  0.00  0.00    +0.000 N 
ATOM     20  C   UNL     1       0.889   8.937  19.656  0.00  0.00    +0.000 A 
BRANCH  19  21
ATOM     21  C   UNL     1       0.156  11.160  18.697  0.00  0.00    +0.000 C 
BRANCH  21  22
ATOM     22  C   UNL     1      -1.278  10.994  18.247  0.00  0.00    +0.000 A 
ATOM     23  C   UNL     1      -1.617  10.044  17.269  0.00  0.00    +0.000 A 
ATOM     24  C   UNL     1      -2.938   9.894  16.849  0.00  0.00    +0.000 A 
ATOM     25  C   UNL     1      -3.942  10.682  17.406  0.00  0.00    +0.000 A 
ATOM     26  C   UNL     1      -3.623  11.617  18.393  0.00  0.00    +0.000 A 
ATOM     27  C   UNL     1      -2.302  11.769  18.815  0.00  0.00    +0.000 A 
ENDBRANCH  21  22
ENDBRANCH  19  21
ENDBRANCH  15  16
ENDBRANCH   3  15
TORSDOF 5
ENDMDL
MODEL 5
REMARK VINA RESULT:      -8.1      0.845      1.448
REMARK  Name = 
REMARK  5 active torsions:
REMARK  status: ('A' for Active; 'I' for Inactive)
REMARK    1  A    between atoms: C_2  and  C_17
REMARK    2  A    between atoms: N_3  and  C_4
REMARK    3  A    between atoms: C_4  and  C_5
REMARK    4  A    between atoms: N_8  and  C_9
REMARK    5  A    between atoms: C_9  and  C_10
REMARK                            x       y       z     vdW  Elec       q    Type
REMARK                         _______ _______ _______ _____ _____    ______ ____
ROOT
ATOM      1  O   UNL     1       1.534   5.068  20.672  0.00  0.00    +0.000 OA
ATOM      2  C   UNL     1       2.271   5.822  20.051  0.00  0.00    +0.000 C 
ATOM      3  N   UNL     1       2.388   7.170  20.318  0.00  0.00    +0.000 N 
ATOM      4  H   UNL     1       3.051   7.709  19.772  0.00  0.00    +0.000 HD
ENDROOT
BRANCH   2   5
ATOM      5  C   UNL     1       3.250   5.352  18.978  0.00  0.00    +0.000 C 
ATOM      6  C   UNL     1       3.390   6.287  17.775  0.00  0.00    +0.000 C 
ATOM      7  C   UNL     1       4.735   5.830  17.339  0.00  0.00    +0.000 A 
ATOM      8  C   UNL     1       5.373   5.925  16.117  0.00  0.00    +0.000 A 
ATOM      9  C   UNL     1       6.659   5.393  16.017  0.00  0.00    +0.000 A 
ATOM     10  F   UNL     1       7.291   5.422  14.835  0.00  0.00    +0.000 F 
ATOM     11  C   UNL     1       7.307   4.815  17.118  0.00  0.00    +0.000 A 
ATOM     12  C   UNL     1       6.658   4.739  18.350  0.00  0.00    +0.000 A 
ATOM     13  C   UNL     1       5.371   5.226  18.420  0.00  0.00    +0.000 A 
ATOM     14  O   UNL     1       4.571   5.133  19.532  0.00  0.00    +0.000 OA
ENDBRANCH   2   5
BRANCH   3  15
ATOM     15  C   UNL     1       1.715   7.815  21.422  0.00  0.00    +0.000 C 
BRANCH  15  16
ATOM     16  C   UNL     1       0.913   8.952  20.909  0.00  0.00    +0.000 A 
ATOM     17  C   UNL     1      -0.172   9.597  21.548  0.00  0.00    +0.000 A 
ATOM     18  N   UNL     1      -0.708  10.570  20.807  0.00  0.00    +0.000 NA
ATOM     19  N   UNL     1      -0.001  10.521  19.656  0.00  0.00    +0.000 N 
ATOM     20  C   UNL     1       1.012   9.604  19.694  0.00  0.00    +0.000 A 
BRANCH  19  21
ATOM     21  C   UNL     1      -0.338  11.414  18.551  0.00  0.00    +0.000 C 
BRANCH  21  22
ATOM     22  C   UNL     1      -1.700  11.110  17.970  0.00  0.00    +0.000 A 
ATOM     23  C   UNL     1      -2.805  11.923  18.272  0.00  0.00    +0.000 A 
ATOM     24  C   UNL     1      -4.063  11.641  17.742  0.00  0.00    +0.000 A 
ATOM     25  C   UNL     1      -4.235  10.550  16.893  0.00  0.00    +0.000 A 
ATOM     26  C   UNL     1      -3.142   9.744  16.569  0.00  0.00    +0.000 A 
ATOM     27  C   UNL     1      -1.882  10.024  17.099  0.00  0.00    +0.000 A 
ENDBRANCH  21  22
ENDBRANCH  19  21
ENDBRANCH  15  16
ENDBRANCH   3  15
TORSDOF 5
ENDMDL
MODEL 6
REMARK VINA RESULT:      -7.9      5.162      7.639
REMARK  Name = 
REMARK  5 active torsions:
REMARK  status: ('A' for Active; 'I' for Inactive)
REMARK    1  A    between atoms: C_2  and  C_17
REMARK    2  A    between atoms: N_3  and  C_4
REMARK    3  A    between atoms: C_4  and  C_5
REMARK    4  A    between atoms: N_8  and  C_9
REMARK    5  A    between atoms: C_9  and  C_10
REMARK                            x       y       z     vdW  Elec       q    Type
REMARK                         _______ _______ _______ _____ _____    ______ ____
ROOT
ATOM      1  O   UNL     1       7.934   6.559  18.984  0.00  0.00    +0.000 OA
ATOM      2  C   UNL     1       7.914   7.348  18.049  0.00  0.00    +0.000 C 
ATOM      3  N   UNL     1       7.139   7.181  16.921  0.00  0.00    +0.000 N 
ATOM      4  H   UNL     1       7.162   7.905  16.213  0.00  0.00    +0.000 HD
ENDROOT
BRANCH   2   5
ATOM      5  C   UNL     1       8.652   8.685  18.057  0.00  0.00    +0.000 C 
ATOM      6  C   UNL     1       7.871   9.858  17.463  0.00  0.00    +0.000 C 
ATOM      7  C   UNL     1       8.607  10.944  18.162  0.00  0.00    +0.000 A 
ATOM      8  C   UNL     1       8.741  12.287  17.862  0.00  0.00    +0.000 A 
ATOM      9  C   UNL     1       9.510  13.066  18.727  0.00  0.00    +0.000 A 
ATOM     10  F   UNL     1       9.704  14.362  18.444  0.00  0.00    +0.000 F 
ATOM     11  C   UNL     1      10.097  12.530  19.882  0.00  0.00    +0.000 A 
ATOM     12  C   UNL     1       9.940  11.177  20.181  0.00  0.00    +0.000 A 
ATOM     13  C   UNL     1       9.219  10.410  19.293  0.00  0.00    +0.000 A 
ATOM     14  O   UNL     1       9.061   9.051  19.398  0.00  0.00    +0.000 OA
ENDBRANCH   2   5
BRANCH   3  15
ATOM     15  C   UNL     1       6.198   6.095  16.767  0.00  0.00    +0.000 C 
BRANCH  15  16
ATOM     16  C   UNL     1       4.919   6.458  17.424  0.00  0.00    +0.000 A 
ATOM     17  C   UNL     1       4.048   7.520  17.086  0.00  0.00    +0.000 A 
ATOM     18  N   UNL     1       2.990   7.603  17.895  0.00  0.00    +0.000 NA
ATOM     19  N   UNL     1       3.201   6.620  18.799  0.00  0.00    +0.000 N 
ATOM     20  C   UNL     1       4.315   5.878  18.525  0.00  0.00    +0.000 A 
BRANCH  19  21
ATOM     21  C   UNL     1       2.267   6.429  19.905  0.00  0.00    +0.000 C 
BRANCH  21  22
ATOM     22  C   UNL     1       1.930   4.970  20.117  0.00  0.00    +0.000 A 
ATOM     23  C   UNL     1       1.386   4.201  19.074  0.00  0.00    +0.000 A 
ATOM     24  C   UNL     1       1.069   2.858  19.270  0.00  0.00    +0.000 A 
ATOM     25  C   UNL     1       1.301   2.259  20.506  0.00  0.00    +0.000 A 
ATOM     26  C   UNL     1       1.860   3.005  21.545  0.00  0.00    +0.000 A 
ATOM     27  C   UNL     1       2.177   4.350  21.352  0.00  0.00    +0.000 A 
ENDBRANCH  21  22
ENDBRANCH  19  21
ENDBRANCH  15  16
ENDBRANCH   3  15
TORSDOF 5
ENDMDL
MODEL 7
REMARK VINA RESULT:      -7.9      2.193      2.804
REMARK  Name = 
REMARK  5 active torsions:
REMARK  status: ('A' for Active; 'I' for Inactive)
REMARK    1  A    between atoms: C_2  and  C_17
REMARK    2  A    between atoms: N_3  and  C_4
REMARK    3  A    between atoms: C_4  and  C_5
REMARK    4  A    between atoms: N_8  and  C_9
REMARK    5  A    between atoms: C_9  and  C_10
REMARK                            x       y       z     vdW  Elec       q    Type
REMARK                         _______ _______ _______ _____ _____    ______ ____
ROOT
ATOM      1  O   UNL     1       1.192   4.543  20.462  0.00  0.00    +0.000 OA
ATOM      2  C   UNL     1       2.077   5.273  20.034  0.00  0.00    +0.000 C 
ATOM      3  N   UNL     1       2.172   6.617  20.331  0.00  0.00    +0.000 N 
ATOM      4  H   UNL     1       2.959   7.134  19.959  0.00  0.00    +0.000 HD
ENDROOT
BRANCH   2   5
ATOM      5  C   UNL     1       3.263   4.772  19.214  0.00  0.00    +0.000 C 
ATOM      6  C   UNL     1       3.124   4.950  17.701  0.00  0.00    +0.000 C 
ATOM      7  C   UNL     1       4.574   4.922  17.376  0.00  0.00    +0.000 A 
ATOM      8  C   UNL     1       5.233   4.643  16.194  0.00  0.00    +0.000 A 
ATOM      9  C   UNL     1       6.627   4.701  16.204  0.00  0.00    +0.000 A 
ATOM     10  F   UNL     1       7.304   4.390  15.090  0.00  0.00    +0.000 F 
ATOM     11  C   UNL     1       7.344   5.063  17.353  0.00  0.00    +0.000 A 
ATOM     12  C   UNL     1       6.665   5.357  18.536  0.00  0.00    +0.000 A 
ATOM     13  C   UNL     1       5.292   5.249  18.523  0.00  0.00    +0.000 A 
ATOM     14  O   UNL     1       4.496   5.409  19.629  0.00  0.00    +0.000 OA
ENDBRANCH   2   5
BRANCH   3  15
ATOM     15  C   UNL     1       1.282   7.283  21.254  0.00  0.00    +0.000 C 
BRANCH  15  16
ATOM     16  C   UNL     1       1.043   8.671  20.789  0.00  0.00    +0.000 A 
ATOM     17  C   UNL     1       1.238   9.189  19.487  0.00  0.00    +0.000 A 
ATOM     18  N   UNL     1       0.963  10.492  19.399  0.00  0.00    +0.000 NA
ATOM     19  N   UNL     1       0.638  10.836  20.665  0.00  0.00    +0.000 N 
ATOM     20  C   UNL     1       0.622   9.769  21.518  0.00  0.00    +0.000 A 
BRANCH  19  21
ATOM     21  C   UNL     1       0.324  12.224  20.989  0.00  0.00    +0.000 C 
BRANCH  21  22
ATOM     22  C   UNL     1      -1.099  12.386  21.474  0.00  0.00    +0.000 A 
ATOM     23  C   UNL     1      -1.404  12.297  22.842  0.00  0.00    +0.000 A 
ATOM     24  C   UNL     1      -2.716  12.440  23.291  0.00  0.00    +0.000 A 
ATOM     25  C   UNL     1      -3.742  12.685  22.382  0.00  0.00    +0.000 A 
ATOM     26  C   UNL     1      -3.451  12.796  21.021  0.00  0.00    +0.000 A 
ATOM     27  C   UNL     1      -2.139  12.653  20.569  0.00  0.00    +0.000 A 
ENDBRANCH  21  22
ENDBRANCH  19  21
ENDBRANCH  15  16
ENDBRANCH   3  15
TORSDOF 5
ENDMDL
MODEL 8
REMARK VINA RESULT:      -7.9      2.368      3.427
REMARK  Name = 
REMARK  5 active torsions:
REMARK  status: ('A' for Active; 'I' for Inactive)
REMARK    1  A    between atoms: C_2  and  C_17
REMARK    2  A    between atoms: N_3  and  C_4
REMARK    3  A    between atoms: C_4  and  C_5
REMARK    4  A    between atoms: N_8  and  C_9
REMARK    5  A    between atoms: C_9  and  C_10
REMARK                            x       y       z     vdW  Elec       q    Type
REMARK                         _______ _______ _______ _____ _____    ______ ____
ROOT
ATOM      1  O   UNL     1       1.510   5.127  20.748  0.00  0.00    +0.000 OA
ATOM      2  C   UNL     1       2.181   5.955  20.147  0.00  0.00    +0.000 C 
ATOM      3  N   UNL     1       2.047   7.318  20.313  0.00  0.00    +0.000 N 
ATOM      4  H   UNL     1       2.672   7.926  19.797  0.00  0.00    +0.000 HD
ENDROOT
BRANCH   2   5
ATOM      5  C   UNL     1       3.341   5.591  19.223  0.00  0.00    +0.000 C 
ATOM      6  C   UNL     1       3.193   4.254  18.494  0.00  0.00    +0.000 C 
ATOM      7  C   UNL     1       4.112   4.554  17.366  0.00  0.00    +0.000 A 
ATOM      8  C   UNL     1       4.793   3.716  16.504  0.00  0.00    +0.000 A 
ATOM      9  C   UNL     1       5.594   4.308  15.526  0.00  0.00    +0.000 A 
ATOM     10  F   UNL     1       6.308   3.528  14.703  0.00  0.00    +0.000 F 
ATOM     11  C   UNL     1       5.683   5.700  15.388  0.00  0.00    +0.000 A 
ATOM     12  C   UNL     1       4.978   6.535  16.255  0.00  0.00    +0.000 A 
ATOM     13  C   UNL     1       4.230   5.936  17.244  0.00  0.00    +0.000 A 
ATOM     14  O   UNL     1       3.563   6.621  18.228  0.00  0.00    +0.000 OA
ENDBRANCH   2   5
BRANCH   3  15
ATOM     15  C   UNL     1       1.156   7.907  21.286  0.00  0.00    +0.000 C 
BRANCH  15  16
ATOM     16  C   UNL     1       0.808   9.285  20.860  0.00  0.00    +0.000 A 
ATOM     17  C   UNL     1       0.449  10.377  21.684  0.00  0.00    +0.000 A 
ATOM     18  N   UNL     1       0.160  11.480  20.990  0.00  0.00    +0.000 NA
ATOM     19  N   UNL     1       0.278  11.087  19.702  0.00  0.00    +0.000 N 
ATOM     20  C   UNL     1       0.714   9.798  19.579  0.00  0.00    +0.000 A 
BRANCH  19  21
ATOM     21  C   UNL     1      -0.022  12.020  18.621  0.00  0.00    +0.000 C 
BRANCH  21  22
ATOM     22  C   UNL     1       0.943  13.184  18.591  0.00  0.00    +0.000 A 
ATOM     23  C   UNL     1       2.296  12.984  18.273  0.00  0.00    +0.000 A 
ATOM     24  C   UNL     1       3.189  14.055  18.251  0.00  0.00    +0.000 A 
ATOM     25  C   UNL     1       2.741  15.343  18.535  0.00  0.00    +0.000 A 
ATOM     26  C   UNL     1       1.395  15.560  18.834  0.00  0.00    +0.000 A 
ATOM     27  C   UNL     1       0.500  14.489  18.858  0.00  0.00    +0.000 A 
ENDBRANCH  21  22
ENDBRANCH  19  21
ENDBRANCH  15  16
ENDBRANCH   3  15
TORSDOF 5
ENDMDL
MODEL 9
REMARK VINA RESULT:      -7.8      1.455      2.040
REMARK  Name = 
REMARK  5 active torsions:
REMARK  status: ('A' for Active; 'I' for Inactive)
REMARK    1  A    between atoms: C_2  and  C_17
REMARK    2  A    between atoms: N_3  and  C_4
REMARK    3  A    between atoms: C_4  and  C_5
REMARK    4  A    between atoms: N_8  and  C_9
REMARK    5  A    between atoms: C_9  and  C_10
REMARK                            x       y       z     vdW  Elec       q    Type
REMARK                         _______ _______ _______ _____ _____    ______ ____
ROOT
ATOM      1  O   UNL     1       1.378   5.567  20.685  0.00  0.00    +0.000 OA
ATOM      2  C   UNL     1       2.114   6.336  20.082  0.00  0.00    +0.000 C 
ATOM      3  N   UNL     1       2.054   7.709  20.206  0.00  0.00    +0.000 N 
ATOM      4  H   UNL     1       2.729   8.265  19.693  0.00  0.00    +0.000 HD
ENDROOT
BRANCH   2   5
ATOM      5  C   UNL     1       3.278   5.879  19.206  0.00  0.00    +0.000 C 
ATOM      6  C   UNL     1       3.102   4.502  18.563  0.00  0.00    +0.000 C 
ATOM      7  C   UNL     1       4.049   4.701  17.435  0.00  0.00    +0.000 A 
ATOM      8  C   UNL     1       4.719   3.789  16.642  0.00  0.00    +0.000 A 
ATOM      9  C   UNL     1       5.554   4.292  15.644  0.00  0.00    +0.000 A 
ATOM     10  F   UNL     1       6.259   3.439  14.887  0.00  0.00    +0.000 F 
ATOM     11  C   UNL     1       5.688   5.669  15.417  0.00  0.00    +0.000 A 
ATOM     12  C   UNL     1       4.993   6.580  16.214  0.00  0.00    +0.000 A 
ATOM     13  C   UNL     1       4.211   6.068  17.226  0.00  0.00    +0.000 A 
ATOM     14  O   UNL     1       3.548   6.836  18.151  0.00  0.00    +0.000 OA
ENDBRANCH   2   5
BRANCH   3  15
ATOM     15  C   UNL     1       1.170   8.377  21.132  0.00  0.00    +0.000 C 
BRANCH  15  16
ATOM     16  C   UNL     1       0.740   9.672  20.552  0.00  0.00    +0.000 A 
ATOM     17  C   UNL     1       1.017  10.970  21.041  0.00  0.00    +0.000 A 
ATOM     18  N   UNL     1       0.456  11.934  20.307  0.00  0.00    +0.000 NA
ATOM     19  N   UNL     1      -0.237  11.255  19.365  0.00  0.00    +0.000 N 
ATOM     20  C   UNL     1      -0.053   9.904  19.442  0.00  0.00    +0.000 A 
BRANCH  19  21
ATOM     21  C   UNL     1      -1.047  11.978  18.390  0.00  0.00    +0.000 C 
BRANCH  21  22
ATOM     22  C   UNL     1      -2.508  12.012  18.779  0.00  0.00    +0.000 A 
ATOM     23  C   UNL     1      -2.914  12.604  19.987  0.00  0.00    +0.000 A 
ATOM     24  C   UNL     1      -4.260  12.631  20.350  0.00  0.00    +0.000 A 
ATOM     25  C   UNL     1      -5.222  12.079  19.507  0.00  0.00    +0.000 A 
ATOM     26  C   UNL     1      -4.835  11.505  18.295  0.00  0.00    +0.000 A 
ATOM     27  C   UNL     1      -3.489  11.476  17.930  0.00  0.00    +0.000 A 
ENDBRANCH  21  22
ENDBRANCH  19  21
ENDBRANCH  15  16
ENDBRANCH   3  15
TORSDOF 5
ENDMDL
