MODEL 1
REMARK VINA RESULT:      -8.1      0.000      0.000
REMARK  Name = 
REMARK  5 active torsions:
REMARK  status: ('A' for Active; 'I' for Inactive)
REMARK    1  A    between atoms: C_2  and  C_18
REMARK    2  A    between atoms: N_3  and  C_4
REMARK    3  A    between atoms: C_7  and  O_8
REMARK    4  A    between atoms: O_8  and  C_9
REMARK    5  A    between atoms: C_21  and  C_22
REMARK                            x       y       z     vdW  Elec       q    Type
REMARK                         _______ _______ _______ _____ _____    ______ ____
ROOT
ATOM      1  C   UNL     1       7.641   6.716  18.194  0.00  0.00    +0.000 A 
ATOM      2  C   UNL     1       7.273   6.539  16.858  0.00  0.00    +0.000 A 
ATOM      3  C   UNL     1       6.475   5.455  16.485  0.00  0.00    +0.000 A 
ATOM      4  C   UNL     1       6.082   4.563  17.466  0.00  0.00    +0.000 A 
ATOM      5  N   UNL     1       6.416   4.697  18.770  0.00  0.00    +0.000 NA
ATOM      6  C   UNL     1       7.198   5.754  19.096  0.00  0.00    +0.000 A 
ENDROOT
BRANCH   1   9
ATOM      7  O   UNL     1       7.590   9.505  17.318  0.00  0.00    +0.000 OA
ATOM      8  C   UNL     1       8.333   9.104  18.210  0.00  0.00    +0.000 C 
ATOM      9  N   UNL     1       8.410   7.803  18.666  0.00  0.00    +0.000 N 
ATOM     10  H   UNL     1       8.998   7.666  19.484  0.00  0.00    +0.000 HD
BRANCH   8  11
ATOM     11  C   UNL     1       9.199  10.035  18.923  0.00  0.00    +0.000 A 
ATOM     12  C   UNL     1       9.088  10.305  20.266  0.00  0.00    +0.000 A 
ATOM     13  O   UNL     1      10.027  11.220  20.597  0.00  0.00    +0.000 OA
ATOM     14  C   UNL     1      10.676  11.495  19.421  0.00  0.00    +0.000 A 
ATOM     15  N   UNL     1      10.237  10.788  18.387  0.00  0.00    +0.000 NA
BRANCH  14  16
ATOM     16  C   UNL     1      11.744  12.577  19.384  0.00  0.00    +0.000 C 
ATOM     17  C   UNL     1      11.329  13.892  20.111  0.00  0.00    +0.000 C 
ATOM     18  C   UNL     1      12.173  14.633  19.056  0.00  0.00    +0.000 C 
ATOM     19  C   UNL     1      11.823  13.461  18.110  0.00  0.00    +0.000 C 
ENDBRANCH  14  16
ENDBRANCH   8  11
ENDBRANCH   1   9
BRANCH   4  20
ATOM     20  O   UNL     1       5.300   3.489  17.058  0.00  0.00    +0.000 OA
BRANCH  20  21
ATOM     21  C   UNL     1       4.048   3.376  17.618  0.00  0.00    +0.000 A 
ATOM     22  C   UNL     1       3.775   2.216  18.349  0.00  0.00    +0.000 A 
ATOM     23  C   UNL     1       2.515   2.043  18.926  0.00  0.00    +0.000 A 
ATOM     24  C   UNL     1       1.548   3.034  18.778  0.00  0.00    +0.000 A 
ATOM     25  F   UNL     1       0.332   2.855  19.307  0.00  0.00    +0.000 F 
ATOM     26  C   UNL     1       1.825   4.208  18.090  0.00  0.00    +0.000 A 
ATOM     27  C   UNL     1       3.087   4.390  17.528  0.00  0.00    +0.000 A 
ENDBRANCH  20  21
ENDBRANCH   4  20
TORSDOF 5
ENDMDL
MODEL 2
REMARK VINA RESULT:      -7.9      0.765      1.452
REMARK  Name = 
REMARK  5 active torsions:
REMARK  status: ('A' for Active; 'I' for Inactive)
REMARK    1  A    between atoms: C_2  and  C_18
REMARK    2  A    between atoms: N_3  and  C_4
REMARK    3  A    between atoms: C_7  and  O_8
REMARK    4  A    between atoms: O_8  and  C_9
REMARK    5  A    between atoms: C_21  and  C_22
REMARK                            x       y       z     vdW  Elec       q    Type
REMARK                         _______ _______ _______ _____ _____    ______ ____
ROOT
ATOM      1  C   UNL     1       7.709   6.929  18.292  0.00  0.00    +0.000 A 
ATOM      2  C   UNL     1       7.396   5.891  19.173  0.00  0.00    +0.000 A 
ATOM      3  C   UNL     1       6.605   4.821  18.748  0.00  0.00    +0.000 A 
ATOM      4  C   UNL     1       6.133   4.831  17.449  0.00  0.00    +0.000 A 
ATOM      5  N   UNL     1       6.411   5.816  16.564  0.00  0.00    +0.000 NA
ATOM      6  C   UNL     1       7.174   6.843  17.011  0.00  0.00    +0.000 A 
ENDROOT
BRANCH   1   9
ATOM      7  O   UNL     1       7.426   9.729  17.500  0.00  0.00    +0.000 OA
ATOM      8  C   UNL     1       8.340   9.332  18.219  0.00  0.00    +0.000 C 
ATOM      9  N   UNL     1       8.534   8.026  18.624  0.00  0.00    +0.000 N 
ATOM     10  H   UNL     1       9.276   7.892  19.305  0.00  0.00    +0.000 HD
BRANCH   8  11
ATOM     11  C   UNL     1       9.311  10.274  18.764  0.00  0.00    +0.000 A 
ATOM     12  C   UNL     1       9.478  10.504  20.108  0.00  0.00    +0.000 A 
ATOM     13  O   UNL     1      10.440  11.442  20.265  0.00  0.00    +0.000 OA
ATOM     14  C   UNL     1      10.819  11.769  18.989  0.00  0.00    +0.000 A 
ATOM     15  N   UNL     1      10.192  11.074  18.047  0.00  0.00    +0.000 NA
BRANCH  14  16
ATOM     16  C   UNL     1      11.826  12.886  18.764  0.00  0.00    +0.000 C 
ATOM     17  C   UNL     1      11.178  14.299  18.648  0.00  0.00    +0.000 C 
ATOM     18  C   UNL     1      12.312  14.638  17.661  0.00  0.00    +0.000 C 
ATOM     19  C   UNL     1      12.308  13.132  17.308  0.00  0.00    +0.000 C 
ENDBRANCH  14  16
ENDBRANCH   8  11
ENDBRANCH   1   9
BRANCH   4  20
ATOM     20  O   UNL     1       5.338   3.759  17.063  0.00  0.00    +0.000 OA
BRANCH  20  21
ATOM     21  C   UNL     1       4.139   3.598  17.720  0.00  0.00    +0.000 A 
ATOM     22  C   UNL     1       3.188   4.611  17.575  0.00  0.00    +0.000 A 
ATOM     23  C   UNL     1       1.960   4.506  18.233  0.00  0.00    +0.000 A 
ATOM     24  C   UNL     1       1.693   3.387  19.017  0.00  0.00    +0.000 A 
ATOM     25  F   UNL     1       0.528   3.301  19.671  0.00  0.00    +0.000 F 
ATOM     26  C   UNL     1       2.616   2.356  19.133  0.00  0.00    +0.000 A 
ATOM     27  C   UNL     1       3.834   2.451  18.463  0.00  0.00    +0.000 A 
ENDBRANCH  20  21
ENDBRANCH   4  20
TORSDOF 5
ENDMDL
MODEL 3
REMARK VINA RESULT:      -7.7      0.513      1.177
REMARK  Name = 
REMARK  5 active torsions:
REMARK  status: ('A' for Active; 'I' for Inactive)
REMARK    1  A    between atoms: C_2  and  C_18
REMARK    2  A    between atoms: N_3  and  C_4
REMARK    3  A    between atoms: C_7  and  O_8
REMARK    4  A    between atoms: O_8  and  C_9
REMARK    5  A    between atoms: C_21  and  C_22
REMARK                            x       y       z     vdW  Elec       q    Type
REMARK                         _______ _______ _______ _____ _____    ______ ____
ROOT
ATOM      1  C   UNL     1       7.493   6.637  18.064  0.00  0.00    +0.000 A 
ATOM      2  C   UNL     1       7.008   6.394  16.778  0.00  0.00    +0.000 A 
ATOM      3  C   UNL     1       6.244   5.254  16.516  0.00  0.00    +0.000 A 
ATOM      4  C   UNL     1       6.003   4.374  17.555  0.00  0.00    +0.000 A 
ATOM      5  N   UNL     1       6.455   4.571  18.816  0.00  0.00    +0.000 NA
ATOM      6  C   UNL     1       7.199   5.682  19.033  0.00  0.00    +0.000 A 
ENDROOT
BRANCH   1   9
ATOM      7  O   UNL     1       7.229   9.375  17.074  0.00  0.00    +0.000 OA
ATOM      8  C   UNL     1       8.057   9.054  17.923  0.00  0.00    +0.000 C 
ATOM      9  N   UNL     1       8.237   7.781  18.427  0.00  0.00    +0.000 N 
ATOM     10  H   UNL     1       8.893   7.713  19.201  0.00  0.00    +0.000 HD
BRANCH   8  11
ATOM     11  C   UNL     1       8.924  10.060  18.524  0.00  0.00    +0.000 A 
ATOM     12  C   UNL     1       9.276  10.068  19.852  0.00  0.00    +0.000 A 
ATOM     13  O   UNL     1      10.069  11.140  20.078  0.00  0.00    +0.000 OA
ATOM     14  C   UNL     1      10.160  11.768  18.863  0.00  0.00    +0.000 A 
ATOM     15  N   UNL     1       9.514  11.144  17.885  0.00  0.00    +0.000 NA
BRANCH  14  16
ATOM     16  C   UNL     1      10.899  13.093  18.752  0.00  0.00    +0.000 C 
ATOM     17  C   UNL     1      12.329  13.065  19.371  0.00  0.00    +0.000 C 
ATOM     18  C   UNL     1      12.097  14.542  19.745  0.00  0.00    +0.000 C 
ATOM     19  C   UNL     1      10.597  14.172  19.827  0.00  0.00    +0.000 C 
ENDBRANCH  14  16
ENDBRANCH   8  11
ENDBRANCH   1   9
BRANCH   4  20
ATOM     20  O   UNL     1       5.252   3.243  17.257  0.00  0.00    +0.000 OA
BRANCH  20  21
ATOM     21  C   UNL     1       3.999   3.158  17.819  0.00  0.00    +0.000 A 
ATOM     22  C   UNL     1       3.102   4.195  17.548  0.00  0.00    +0.000 A 
ATOM     23  C   UNL     1       1.822   4.166  18.106  0.00  0.00    +0.000 A 
ATOM     24  C   UNL     1       1.448   3.097  18.915  0.00  0.00    +0.000 A 
ATOM     25  F   UNL     1       0.231   3.084  19.473  0.00  0.00    +0.000 F 
ATOM     26  C   UNL     1       2.318   2.041  19.155  0.00  0.00    +0.000 A 
ATOM     27  C   UNL     1       3.589   2.060  18.586  0.00  0.00    +0.000 A 
ENDBRANCH  20  21
ENDBRANCH   4  20
TORSDOF 5
ENDMDL
MODEL 4
REMARK VINA RESULT:      -7.7      6.446      8.608
REMARK  Name = 
REMARK  5 active torsions:
REMARK  status: ('A' for Active; 'I' for Inactive)
REMARK    1  A    between atoms: C_2  and  C_18
REMARK    2  A    between atoms: N_3  and  C_4
REMARK    3  A    between atoms: C_7  and  O_8
REMARK    4  A    between atoms: O_8  and  C_9
REMARK    5  A    between atoms: C_21  and  C_22
REMARK                            x       y       z     vdW  Elec       q    Type
REMARK                         _______ _______ _______ _____ _____    ______ ____
ROOT
ATOM      1  C   UNL     1       2.235   6.800  20.069  0.00  0.00    +0.000 A 
ATOM      2  C   UNL     1       2.758   7.039  18.796  0.00  0.00    +0.000 A 
ATOM      3  C   UNL     1       3.328   5.998  18.062  0.00  0.00    +0.000 A 
ATOM      4  C   UNL     1       3.375   4.741  18.636  0.00  0.00    +0.000 A 
ATOM      5  N   UNL     1       2.882   4.466  19.866  0.00  0.00    +0.000 NA
ATOM      6  C   UNL     1       2.343   5.500  20.554  0.00  0.00    +0.000 A 
ENDROOT
BRANCH   1   9
ATOM      7  O   UNL     1       1.088   9.359  19.240  0.00  0.00    +0.000 OA
ATOM      8  C   UNL     1       1.077   8.974  20.407  0.00  0.00    +0.000 C 
ATOM      9  N   UNL     1       1.605   7.783  20.864  0.00  0.00    +0.000 N 
ATOM     10  H   UNL     1       1.414   7.573  21.840  0.00  0.00    +0.000 HD
BRANCH   8  11
ATOM     11  C   UNL     1       0.428   9.772  21.439  0.00  0.00    +0.000 A 
ATOM     12  C   UNL     1       0.398   9.422  22.768  0.00  0.00    +0.000 A 
ATOM     13  O   UNL     1      -0.296  10.366  23.443  0.00  0.00    +0.000 OA
ATOM     14  C   UNL     1      -0.687  11.263  22.484  0.00  0.00    +0.000 A 
ATOM     15  N   UNL     1      -0.254  10.970  21.265  0.00  0.00    +0.000 NA
BRANCH  14  16
ATOM     16  C   UNL     1      -1.593  12.425  22.864  0.00  0.00    +0.000 C 
ATOM     17  C   UNL     1      -2.911  11.987  23.571  0.00  0.00    +0.000 C 
ATOM     18  C   UNL     1      -3.575  13.195  22.881  0.00  0.00    +0.000 C 
ATOM     19  C   UNL     1      -2.528  12.993  21.761  0.00  0.00    +0.000 C 
ENDBRANCH  14  16
ENDBRANCH   8  11
ENDBRANCH   1   9
BRANCH   4  20
ATOM     20  O   UNL     1       3.962   3.730  17.883  0.00  0.00    +0.000 OA
BRANCH  20  21
ATOM     21  C   UNL     1       4.961   4.097  17.011  0.00  0.00    +0.000 A 
ATOM     22  C   UNL     1       4.645   4.127  15.650  0.00  0.00    +0.000 A 
ATOM     23  C   UNL     1       5.626   4.478  14.720  0.00  0.00    +0.000 A 
ATOM     24  C   UNL     1       6.905   4.807  15.160  0.00  0.00    +0.000 A 
ATOM     25  F   UNL     1       7.853   5.115  14.266  0.00  0.00    +0.000 F 
ATOM     26  C   UNL     1       7.216   4.820  16.513  0.00  0.00    +0.000 A 
ATOM     27  C   UNL     1       6.235   4.487  17.443  0.00  0.00    +0.000 A 
ENDBRANCH  20  21
ENDBRANCH   4  20
TORSDOF 5
ENDMDL
MODEL 5
REMARK VINA RESULT:      -7.6      4.319     10.580
REMARK  Name = 
REMARK  5 active torsions:
REMARK  status: ('A' for Active; 'I' for Inactive)
REMARK    1  A    between atoms: C_2  and  C_18
REMARK    2  A    between atoms: N_3  and  C_4
REMARK    3  A    between atoms: C_7  and  O_8
REMARK    4  A    between atoms: O_8  and  C_9
REMARK    5  A    between atoms: C_21  and  C_22
REMARK                            x       y       z     vdW  Elec       q    Type
REMARK                         _______ _______ _______ _____ _____    ______ ____
ROOT
ATOM      1  C   UNL     1       9.551  10.452  19.470  0.00  0.00    +0.000 A 
ATOM      2  C   UNL     1       9.424  10.995  20.750  0.00  0.00    +0.000 A 
ATOM      3  C   UNL     1       9.936  12.264  21.031  0.00  0.00    +0.000 A 
ATOM      4  C   UNL     1      10.581  12.949  20.018  0.00  0.00    +0.000 A 
ATOM      5  N   UNL     1      10.726  12.460  18.765  0.00  0.00    +0.000 NA
ATOM      6  C   UNL     1      10.226  11.223  18.529  0.00  0.00    +0.000 A 
ENDROOT
BRANCH   1   9
ATOM      7  O   UNL     1       7.567   9.851  17.407  0.00  0.00    +0.000 OA
ATOM      8  C   UNL     1       8.093   8.980  18.096  0.00  0.00    +0.000 C 
ATOM      9  N   UNL     1       9.029   9.197  19.087  0.00  0.00    +0.000 N 
ATOM     10  H   UNL     1       9.441   8.355  19.484  0.00  0.00    +0.000 HD
BRANCH   8  11
ATOM     11  C   UNL     1       7.783   7.574  17.869  0.00  0.00    +0.000 A 
ATOM     12  C   UNL     1       7.975   6.589  18.808  0.00  0.00    +0.000 A 
ATOM     13  O   UNL     1       7.604   5.406  18.268  0.00  0.00    +0.000 OA
ATOM     14  C   UNL     1       7.208   5.713  16.993  0.00  0.00    +0.000 A 
ATOM     15  N   UNL     1       7.267   7.008  16.708  0.00  0.00    +0.000 NA
BRANCH  14  16
ATOM     16  C   UNL     1       6.816   4.598  16.035  0.00  0.00    +0.000 C 
ATOM     17  C   UNL     1       7.072   4.940  14.536  0.00  0.00    +0.000 C 
ATOM     18  C   UNL     1       5.830   4.083  14.223  0.00  0.00    +0.000 C 
ATOM     19  C   UNL     1       5.322   4.502  15.622  0.00  0.00    +0.000 C 
ENDBRANCH  14  16
ENDBRANCH   8  11
ENDBRANCH   1   9
BRANCH   4  20
ATOM     20  O   UNL     1      11.090  14.203  20.335  0.00  0.00    +0.000 OA
BRANCH  20  21
ATOM     21  C   UNL     1      10.565  15.282  19.660  0.00  0.00    +0.000 A 
ATOM     22  C   UNL     1      11.453  16.072  18.925  0.00  0.00    +0.000 A 
ATOM     23  C   UNL     1      10.976  17.188  18.234  0.00  0.00    +0.000 A 
ATOM     24  C   UNL     1       9.619  17.494  18.275  0.00  0.00    +0.000 A 
ATOM     25  F   UNL     1       9.167  18.580  17.636  0.00  0.00    +0.000 F 
ATOM     26  C   UNL     1       8.723  16.690  18.968  0.00  0.00    +0.000 A 
ATOM     27  C   UNL     1       9.194  15.567  19.643  0.00  0.00    +0.000 A 
ENDBRANCH  20  21
ENDBRANCH   4  20
TORSDOF 5
ENDMDL
MODEL 6
REMARK VINA RESULT:      -7.6      7.724      9.824
REMARK  Name = 
REMARK  5 active torsions:
REMARK  status: ('A' for Active; 'I' for Inactive)
REMARK    1  A    between atoms: C_2  and  C_18
REMARK    2  A    between atoms: N_3  and  C_4
REMARK    3  A    between atoms: C_7  and  O_8
REMARK    4  A    between atoms: O_8  and  C_9
REMARK    5  A    between atoms: C_21  and  C_22
REMARK                            x       y       z     vdW  Elec       q    Type
REMARK                         _______ _______ _______ _____ _____    ______ ____
ROOT
ATOM      1  C   UNL     1       0.760   9.162  19.923  0.00  0.00    +0.000 A 
ATOM      2  C   UNL     1       1.038   9.447  18.584  0.00  0.00    +0.000 A 
ATOM      3  C   UNL     1       1.965   8.678  17.878  0.00  0.00    +0.000 A 
ATOM      4  C   UNL     1       2.606   7.649  18.543  0.00  0.00    +0.000 A 
ATOM      5  N   UNL     1       2.368   7.340  19.839  0.00  0.00    +0.000 NA
ATOM      6  C   UNL     1       1.469   8.111  20.497  0.00  0.00    +0.000 A 
ENDROOT
BRANCH   1   9
ATOM      7  O   UNL     1       1.010  11.786  21.188  0.00  0.00    +0.000 OA
ATOM      8  C   UNL     1      -0.010  11.106  21.268  0.00  0.00    +0.000 C 
ATOM      9  N   UNL     1      -0.190   9.860  20.700  0.00  0.00    +0.000 N 
ATOM     10  H   UNL     1      -1.132   9.485  20.773  0.00  0.00    +0.000 HD
BRANCH   8  11
ATOM     11  C   UNL     1      -1.183  11.616  21.966  0.00  0.00    +0.000 A 
ATOM     12  C   UNL     1      -1.533  11.245  23.242  0.00  0.00    +0.000 A 
ATOM     13  O   UNL     1      -2.675  11.887  23.576  0.00  0.00    +0.000 OA
ATOM     14  C   UNL     1      -2.997  12.625  22.467  0.00  0.00    +0.000 A 
ATOM     15  N   UNL     1      -2.117  12.523  21.479  0.00  0.00    +0.000 NA
BRANCH  14  16
ATOM     16  C   UNL     1      -4.300  13.410  22.436  0.00  0.00    +0.000 C 
ATOM     17  C   UNL     1      -5.255  13.085  23.624  0.00  0.00    +0.000 C 
ATOM     18  C   UNL     1      -6.415  13.341  22.641  0.00  0.00    +0.000 C 
ATOM     19  C   UNL     1      -5.443  12.862  21.538  0.00  0.00    +0.000 C 
ENDBRANCH  14  16
ENDBRANCH   8  11
ENDBRANCH   1   9
BRANCH   4  20
ATOM     20  O   UNL     1       3.532   6.913  17.815  0.00  0.00    +0.000 OA
BRANCH  20  21
ATOM     21  C   UNL     1       3.417   5.542  17.858  0.00  0.00    +0.000 A 
ATOM     22  C   UNL     1       4.573   4.810  18.142  0.00  0.00    +0.000 A 
ATOM     23  C   UNL     1       4.516   3.415  18.183  0.00  0.00    +0.000 A 
ATOM     24  C   UNL     1       3.304   2.769  17.952  0.00  0.00    +0.000 A 
ATOM     25  F   UNL     1       3.256   1.431  17.963  0.00  0.00    +0.000 F 
ATOM     26  C   UNL     1       2.142   3.490  17.711  0.00  0.00    +0.000 A 
ATOM     27  C   UNL     1       2.194   4.882  17.687  0.00  0.00    +0.000 A 
ENDBRANCH  20  21
ENDBRANCH   4  20
TORSDOF 5
ENDMDL
MODEL 7
REMARK VINA RESULT:      -7.5      6.526      8.543
REMARK  Name = 
REMARK  5 active torsions:
REMARK  status: ('A' for Active; 'I' for Inactive)
REMARK    1  A    between atoms: C_2  and  C_18
REMARK    2  A    between atoms: N_3  and  C_4
REMARK    3  A    between atoms: C_7  and  O_8
REMARK    4  A    between atoms: O_8  and  C_9
REMARK    5  A    between atoms: C_21  and  C_22
REMARK                            x       y       z     vdW  Elec       q    Type
REMARK                         _______ _______ _______ _____ _____    ______ ____
ROOT
ATOM      1  C   UNL     1       2.155   6.717  20.300  0.00  0.00    +0.000 A 
ATOM      2  C   UNL     1       1.994   5.376  20.654  0.00  0.00    +0.000 A 
ATOM      3  C   UNL     1       2.691   4.378  19.969  0.00  0.00    +0.000 A 
ATOM      4  C   UNL     1       3.521   4.755  18.930  0.00  0.00    +0.000 A 
ATOM      5  N   UNL     1       3.705   6.042  18.553  0.00  0.00    +0.000 NA
ATOM      6  C   UNL     1       3.007   6.984  19.233  0.00  0.00    +0.000 A 
ENDROOT
BRANCH   1   9
ATOM      7  O   UNL     1       1.141   9.217  19.170  0.00  0.00    +0.000 OA
ATOM      8  C   UNL     1       1.060   8.948  20.366  0.00  0.00    +0.000 C 
ATOM      9  N   UNL     1       1.522   7.792  20.963  0.00  0.00    +0.000 N 
ATOM     10  H   UNL     1       1.276   7.684  21.944  0.00  0.00    +0.000 HD
BRANCH   8  11
ATOM     11  C   UNL     1       0.389   9.863  21.282  0.00  0.00    +0.000 A 
ATOM     12  C   UNL     1       0.399   9.717  22.649  0.00  0.00    +0.000 A 
ATOM     13  O   UNL     1      -0.329  10.719  23.191  0.00  0.00    +0.000 OA
ATOM     14  C   UNL     1      -0.780  11.443  22.117  0.00  0.00    +0.000 A 
ATOM     15  N   UNL     1      -0.353  10.988  20.946  0.00  0.00    +0.000 NA
BRANCH  14  16
ATOM     16  C   UNL     1      -1.735  12.606  22.339  0.00  0.00    +0.000 C 
ATOM     17  C   UNL     1      -1.269  13.595  23.450  0.00  0.00    +0.000 C 
ATOM     18  C   UNL     1      -2.764  13.808  23.759  0.00  0.00    +0.000 C 
ATOM     19  C   UNL     1      -2.962  12.358  23.258  0.00  0.00    +0.000 C 
ENDBRANCH  14  16
ENDBRANCH   8  11
ENDBRANCH   1   9
BRANCH   4  20
ATOM     20  O   UNL     1       4.189   3.736  18.260  0.00  0.00    +0.000 OA
BRANCH  20  21
ATOM     21  C   UNL     1       5.056   4.107  17.258  0.00  0.00    +0.000 A 
ATOM     22  C   UNL     1       6.379   4.376  17.622  0.00  0.00    +0.000 A 
ATOM     23  C   UNL     1       7.297   4.772  16.646  0.00  0.00    +0.000 A 
ATOM     24  C   UNL     1       6.888   4.883  15.320  0.00  0.00    +0.000 A 
ATOM     25  F   UNL     1       7.761   5.290  14.391  0.00  0.00    +0.000 F 
ATOM     26  C   UNL     1       5.586   4.577  14.944  0.00  0.00    +0.000 A 
ATOM     27  C   UNL     1       4.674   4.165  15.912  0.00  0.00    +0.000 A 
ENDBRANCH  20  21
ENDBRANCH   4  20
TORSDOF 5
ENDMDL
MODEL 8
REMARK VINA RESULT:      -7.5      7.971      9.308
REMARK  Name = 
REMARK  5 active torsions:
REMARK  status: ('A' for Active; 'I' for Inactive)
REMARK    1  A    between atoms: C_2  and  C_18
REMARK    2  A    between atoms: N_3  and  C_4
REMARK    3  A    between atoms: C_7  and  O_8
REMARK    4  A    between atoms: O_8  and  C_9
REMARK    5  A    between atoms: C_21  and  C_22
REMARK                            x       y       z     vdW  Elec       q    Type
REMARK                         _______ _______ _______ _____ _____    ______ ____
ROOT
ATOM      1  C   UNL     1       0.775   9.404  19.804  0.00  0.00    +0.000 A 
ATOM      2  C   UNL     1       1.099   9.559  18.455  0.00  0.00    +0.000 A 
ATOM      3  C   UNL     1       1.950   8.649  17.825  0.00  0.00    +0.000 A 
ATOM      4  C   UNL     1       2.470   7.611  18.576  0.00  0.00    +0.000 A 
ATOM      5  N   UNL     1       2.183   7.424  19.885  0.00  0.00    +0.000 NA
ATOM      6  C   UNL     1       1.361   8.330  20.467  0.00  0.00    +0.000 A 
ENDROOT
BRANCH   1   9
ATOM      7  O   UNL     1       1.384  11.860  21.268  0.00  0.00    +0.000 OA
ATOM      8  C   UNL     1       0.246  11.407  21.179  0.00  0.00    +0.000 C 
ATOM      9  N   UNL     1      -0.107  10.251  20.509  0.00  0.00    +0.000 N 
ATOM     10  H   UNL     1      -1.108  10.080  20.443  0.00  0.00    +0.000 HD
BRANCH   8  11
ATOM     11  C   UNL     1      -0.881  12.121  21.766  0.00  0.00    +0.000 A 
ATOM     12  C   UNL     1      -1.993  12.508  21.057  0.00  0.00    +0.000 A 
ATOM     13  O   UNL     1      -2.829  13.160  21.895  0.00  0.00    +0.000 OA
ATOM     14  C   UNL     1      -2.180  13.165  23.102  0.00  0.00    +0.000 A 
ATOM     15  N   UNL     1      -1.016  12.527  23.089  0.00  0.00    +0.000 NA
BRANCH  14  16
ATOM     16  C   UNL     1      -2.782  13.915  24.280  0.00  0.00    +0.000 C 
ATOM     17  C   UNL     1      -3.875  14.949  23.871  0.00  0.00    +0.000 C 
ATOM     18  C   UNL     1      -3.385  15.799  25.060  0.00  0.00    +0.000 C 
ATOM     19  C   UNL     1      -2.004  15.147  24.816  0.00  0.00    +0.000 C 
ENDBRANCH  14  16
ENDBRANCH   8  11
ENDBRANCH   1   9
BRANCH   4  20
ATOM     20  O   UNL     1       3.324   6.730  17.922  0.00  0.00    +0.000 OA
BRANCH  20  21
ATOM     21  C   UNL     1       3.159   5.389  18.180  0.00  0.00    +0.000 A 
ATOM     22  C   UNL     1       1.933   4.815  17.832  0.00  0.00    +0.000 A 
ATOM     23  C   UNL     1       1.707   3.460  18.087  0.00  0.00    +0.000 A 
ATOM     24  C   UNL     1       2.710   2.693  18.672  0.00  0.00    +0.000 A 
ATOM     25  F   UNL     1       2.482   1.402  18.942  0.00  0.00    +0.000 F 
ATOM     26  C   UNL     1       3.946   3.245  18.982  0.00  0.00    +0.000 A 
ATOM     27  C   UNL     1       4.179   4.592  18.714  0.00  0.00    +0.000 A 
ENDBRANCH  20  21
ENDBRANCH   4  20
TORSDOF 5
ENDMDL
MODEL 9
REMARK VINA RESULT:      -7.5      6.452      8.531
REMARK  Name = 
REMARK  5 active torsions:
REMARK  status: ('A' for Active; 'I' for Inactive)
REMARK    1  A    between atoms: C_2  and  C_18
REMARK    2  A    between atoms: N_3  and  C_4
REMARK    3  A    between atoms: C_7  and  O_8
REMARK    4  A    between atoms: O_8  and  C_9
REMARK    5  A    between atoms: C_21  and  C_22
REMARK                            x       y       z     vdW  Elec       q    Type
REMARK                         _______ _______ _______ _____ _____    ______ ____
ROOT
ATOM      1  C   UNL     1       2.063   6.572  20.376  0.00  0.00    +0.000 A 
ATOM      2  C   UNL     1       2.019   5.227  20.750  0.00  0.00    +0.000 A 
ATOM      3  C   UNL     1       2.666   4.260  19.978  0.00  0.00    +0.000 A 
ATOM      4  C   UNL     1       3.327   4.669  18.835  0.00  0.00    +0.000 A 
ATOM      5  N   UNL     1       3.394   5.960  18.436  0.00  0.00    +0.000 NA
ATOM      6  C   UNL     1       2.749   6.872  19.203  0.00  0.00    +0.000 A 
ENDROOT
BRANCH   1   9
ATOM      7  O   UNL     1       1.083   9.157  19.422  0.00  0.00    +0.000 OA
ATOM      8  C   UNL     1       1.025   8.820  20.602  0.00  0.00    +0.000 C 
ATOM      9  N   UNL     1       1.474   7.620  21.117  0.00  0.00    +0.000 N 
ATOM     10  H   UNL     1       1.249   7.460  22.096  0.00  0.00    +0.000 HD
BRANCH   8  11
ATOM     11  C   UNL     1       0.399   9.693  21.587  0.00  0.00    +0.000 A 
ATOM     12  C   UNL     1       0.327   9.402  22.928  0.00  0.00    +0.000 A 
ATOM     13  O   UNL     1      -0.329  10.408  23.550  0.00  0.00    +0.000 OA
ATOM     14  C   UNL     1      -0.654  11.284  22.547  0.00  0.00    +0.000 A 
ATOM     15  N   UNL     1      -0.215  10.917  21.349  0.00  0.00    +0.000 NA
BRANCH  14  16
ATOM     16  C   UNL     1      -1.503  12.506  22.860  0.00  0.00    +0.000 C 
ATOM     17  C   UNL     1      -2.964  12.407  22.326  0.00  0.00    +0.000 C 
ATOM     18  C   UNL     1      -2.896  13.933  22.120  0.00  0.00    +0.000 C 
ATOM     19  C   UNL     1      -1.378  13.726  21.907  0.00  0.00    +0.000 C 
ENDBRANCH  14  16
ENDBRANCH   8  11
ENDBRANCH   1   9
BRANCH   4  20
ATOM     20  O   UNL     1       3.948   3.678  18.083  0.00  0.00    +0.000 OA
BRANCH  20  21
ATOM     21  C   UNL     1       4.938   4.079  17.215  0.00  0.00    +0.000 A 
ATOM     22  C   UNL     1       4.608   4.161  15.859  0.00  0.00    +0.000 A 
ATOM     23  C   UNL     1       5.579   4.548  14.933  0.00  0.00    +0.000 A 
ATOM     24  C   UNL     1       6.863   4.859  15.371  0.00  0.00    +0.000 A 
ATOM     25  F   UNL     1       7.801   5.202  14.480  0.00  0.00    +0.000 F 
ATOM     26  C   UNL     1       7.188   4.821  16.721  0.00  0.00    +0.000 A 
ATOM     27  C   UNL     1       6.216   4.453  17.648  0.00  0.00    +0.000 A 
ENDBRANCH  20  21
ENDBRANCH   4  20
TORSDOF 5
ENDMDL
