MODEL 1
REMARK VINA RESULT:      -9.3      0.000      0.000
REMARK  Name = 
REMARK  4 active torsions:
REMARK  status: ('A' for Active; 'I' for Inactive)
REMARK    1  A    between atoms: C_1  and  C_2
REMARK    2  A    between atoms: C_7  and  C_8
REMARK    3  A    between atoms: C_12  and  N_13
REMARK    4  A    between atoms: C_14  and  C_16
REMARK                            x       y       z     vdW  Elec       q    Type
REMARK                         _______ _______ _______ _____ _____    ______ ____
ROOT
ATOM      1  C   UNL     1       5.323   4.657  17.730  0.00  0.00    +0.000 A 
ATOM      2  C   UNL     1       5.460   4.053  16.476  0.00  0.00    +0.000 A 
ATOM      3  C   UNL     1       6.178   4.688  15.471  0.00  0.00    +0.000 A 
ATOM      4  C   UNL     1       6.746   5.937  15.711  0.00  0.00    +0.000 A 
ATOM      5  C   UNL     1       6.606   6.572  16.951  0.00  0.00    +0.000 A 
ATOM      6  C   UNL     1       5.919   5.908  17.978  0.00  0.00    +0.000 A 
ENDROOT
BRANCH   1  13
ATOM      7  C   UNL     1       1.141   4.026  20.074  0.00  0.00    +0.000 C 
ATOM      8  C   UNL     1       2.572   3.592  19.916  0.00  0.00    +0.000 A 
ATOM      9  C   UNL     1       3.107   2.651  20.704  0.00  0.00    +0.000 A 
ATOM     10  C   UNL     1       4.518   2.302  20.498  0.00  0.00    +0.000 A 
ATOM     11  O   UNL     1       5.089   1.483  21.207  0.00  0.00    +0.000 OA
ATOM     12  N   UNL     1       5.143   2.962  19.483  0.00  0.00    +0.000 N 
ATOM     13  C   UNL     1       4.511   3.931  18.744  0.00  0.00    +0.000 A 
ATOM     14  N   UNL     1       3.270   4.251  18.932  0.00  0.00    +0.000 NA
ATOM     15  H   UNL     1       6.127   2.768  19.386  0.00  0.00    +0.000 HD
ENDBRANCH   1  13
BRANCH   5  16
ATOM     16  N   UNL     1       7.119   7.870  17.206  0.00  0.00    +0.000 N 
ATOM     17  C   UNL     1       8.062   8.171  18.180  0.00  0.00    +0.000 C 
ATOM     18  O   UNL     1       8.605   7.365  18.928  0.00  0.00    +0.000 OA
ATOM     19  H   UNL     1       6.901   8.589  16.529  0.00  0.00    +0.000 HD
BRANCH  17  20
ATOM     20  C   UNL     1       8.511   9.589  18.279  0.00  0.00    +0.000 A 
ATOM     21  C   UNL     1       8.035  10.608  17.432  0.00  0.00    +0.000 A 
ATOM     22  C   UNL     1       8.460  11.932  17.614  0.00  0.00    +0.000 A 
ATOM     23  C   UNL     1       9.334  12.214  18.653  0.00  0.00    +0.000 A 
ATOM     24  C   UNL     1       9.783  11.217  19.501  0.00  0.00    +0.000 A 
ATOM     25  C   UNL     1       9.397   9.902  19.324  0.00  0.00    +0.000 A 
ATOM     26  C   UNL     1      10.655  11.802  20.548  0.00  0.00    +0.000 C 
ATOM     27  O   UNL     1      10.590  13.229  20.328  0.00  0.00    +0.000 OA
ATOM     28  C   UNL     1       9.938  13.506  19.065  0.00  0.00    +0.000 C 
ENDBRANCH  17  20
ENDBRANCH   5  16
TORSDOF 3
ENDMDL
MODEL 2
REMARK VINA RESULT:      -8.9      5.022      7.398
REMARK  Name = 
REMARK  4 active torsions:
REMARK  status: ('A' for Active; 'I' for Inactive)
REMARK    1  A    between atoms: C_1  and  C_2
REMARK    2  A    between atoms: C_7  and  C_8
REMARK    3  A    between atoms: C_12  and  N_13
REMARK    4  A    between atoms: C_14  and  C_16
REMARK                            x       y       z     vdW  Elec       q    Type
REMARK                         _______ _______ _______ _____ _____    ______ ____
ROOT
ATOM      1  C   UNL     1       3.978   4.277  19.017  0.00  0.00    +0.000 A 
ATOM      2  C   UNL     1       3.727   3.019  19.576  0.00  0.00    +0.000 A 
ATOM      3  C   UNL     1       2.766   2.876  20.567  0.00  0.00    +0.000 A 
ATOM      4  C   UNL     1       2.064   3.992  21.016  0.00  0.00    +0.000 A 
ATOM      5  C   UNL     1       2.310   5.265  20.488  0.00  0.00    +0.000 A 
ATOM      6  C   UNL     1       3.250   5.399  19.455  0.00  0.00    +0.000 A 
ENDROOT
BRANCH   1  13
ATOM      7  C   UNL     1       5.308   4.486  14.373  0.00  0.00    +0.000 C 
ATOM      8  C   UNL     1       5.754   4.427  15.807  0.00  0.00    +0.000 A 
ATOM      9  C   UNL     1       7.051   4.370  16.133  0.00  0.00    +0.000 A 
ATOM     10  C   UNL     1       7.401   4.292  17.556  0.00  0.00    +0.000 A 
ATOM     11  O   UNL     1       8.563   4.194  17.930  0.00  0.00    +0.000 OA
ATOM     12  N   UNL     1       6.348   4.320  18.421  0.00  0.00    +0.000 N 
ATOM     13  C   UNL     1       5.047   4.356  17.985  0.00  0.00    +0.000 A 
ATOM     14  N   UNL     1       4.735   4.412  16.729  0.00  0.00    +0.000 NA
ATOM     15  H   UNL     1       6.587   4.200  19.392  0.00  0.00    +0.000 HD
ENDBRANCH   1  13
BRANCH   5  16
ATOM     16  N   UNL     1       1.658   6.430  20.968  0.00  0.00    +0.000 N 
ATOM     17  C   UNL     1       1.641   7.655  20.312  0.00  0.00    +0.000 C 
ATOM     18  O   UNL     1       2.153   7.893  19.224  0.00  0.00    +0.000 OA
ATOM     19  H   UNL     1       1.034   6.313  21.755  0.00  0.00    +0.000 HD
BRANCH  17  20
ATOM     20  C   UNL     1       0.871   8.759  20.951  0.00  0.00    +0.000 A 
ATOM     21  C   UNL     1       0.675   8.857  22.342  0.00  0.00    +0.000 A 
ATOM     22  C   UNL     1      -0.016   9.951  22.882  0.00  0.00    +0.000 A 
ATOM     23  C   UNL     1      -0.475  10.938  22.022  0.00  0.00    +0.000 A 
ATOM     24  C   UNL     1      -0.261  10.855  20.658  0.00  0.00    +0.000 A 
ATOM     25  C   UNL     1       0.395   9.773  20.102  0.00  0.00    +0.000 A 
ATOM     26  C   UNL     1      -0.803  12.063  19.989  0.00  0.00    +0.000 C 
ATOM     27  O   UNL     1      -1.245  12.916  21.070  0.00  0.00    +0.000 OA
ATOM     28  C   UNL     1      -1.228  12.184  22.319  0.00  0.00    +0.000 C 
ENDBRANCH  17  20
ENDBRANCH   5  16
TORSDOF 3
ENDMDL
MODEL 3
REMARK VINA RESULT:      -8.9      6.503      8.971
REMARK  Name = 
REMARK  4 active torsions:
REMARK  status: ('A' for Active; 'I' for Inactive)
REMARK    1  A    between atoms: C_1  and  C_2
REMARK    2  A    between atoms: C_7  and  C_8
REMARK    3  A    between atoms: C_12  and  N_13
REMARK    4  A    between atoms: C_14  and  C_16
REMARK                            x       y       z     vdW  Elec       q    Type
REMARK                         _______ _______ _______ _____ _____    ______ ____
ROOT
ATOM      1  C   UNL     1      -0.830  10.332  18.503  0.00  0.00    +0.000 A 
ATOM      2  C   UNL     1      -0.750  10.790  19.822  0.00  0.00    +0.000 A 
ATOM      3  C   UNL     1       0.337  10.446  20.615  0.00  0.00    +0.000 A 
ATOM      4  C   UNL     1       1.339   9.629  20.097  0.00  0.00    +0.000 A 
ATOM      5  C   UNL     1       1.272   9.141  18.787  0.00  0.00    +0.000 A 
ATOM      6  C   UNL     1       0.196   9.527  17.974  0.00  0.00    +0.000 A 
ENDROOT
BRANCH   1  13
ATOM      7  C   UNL     1      -5.324  12.113  18.367  0.00  0.00    +0.000 C 
ATOM      8  C   UNL     1      -4.182  11.520  17.589  0.00  0.00    +0.000 A 
ATOM      9  C   UNL     1      -4.284  11.277  16.276  0.00  0.00    +0.000 A 
ATOM     10  C   UNL     1      -3.131  10.675  15.597  0.00  0.00    +0.000 A 
ATOM     11  O   UNL     1      -3.163  10.384  14.407  0.00  0.00    +0.000 OA
ATOM     12  N   UNL     1      -2.039  10.451  16.381  0.00  0.00    +0.000 N 
ATOM     13  C   UNL     1      -2.042  10.715  17.728  0.00  0.00    +0.000 A 
ATOM     14  N   UNL     1      -3.063  11.233  18.334  0.00  0.00    +0.000 NA
ATOM     15  H   UNL     1      -1.273   9.979  15.927  0.00  0.00    +0.000 HD
ENDBRANCH   1  13
BRANCH   5  16
ATOM     16  N   UNL     1       2.244   8.257  18.251  0.00  0.00    +0.000 N 
ATOM     17  C   UNL     1       2.549   7.005  18.772  0.00  0.00    +0.000 C 
ATOM     18  O   UNL     1       2.007   6.479  19.738  0.00  0.00    +0.000 OA
ATOM     19  H   UNL     1       2.620   8.488  17.341  0.00  0.00    +0.000 HD
BRANCH  17  20
ATOM     20  C   UNL     1       3.575   6.199  18.053  0.00  0.00    +0.000 A 
ATOM     21  C   UNL     1       3.334   4.897  17.574  0.00  0.00    +0.000 A 
ATOM     22  C   UNL     1       4.328   4.213  16.859  0.00  0.00    +0.000 A 
ATOM     23  C   UNL     1       5.533   4.855  16.616  0.00  0.00    +0.000 A 
ATOM     24  C   UNL     1       5.761   6.144  17.064  0.00  0.00    +0.000 A 
ATOM     25  C   UNL     1       4.806   6.826  17.793  0.00  0.00    +0.000 A 
ATOM     26  C   UNL     1       7.100   6.602  16.619  0.00  0.00    +0.000 C 
ATOM     27  O   UNL     1       7.593   5.535  15.776  0.00  0.00    +0.000 OA
ATOM     28  C   UNL     1       6.741   4.372  15.899  0.00  0.00    +0.000 C 
ENDBRANCH  17  20
ENDBRANCH   5  16
TORSDOF 3
ENDMDL
MODEL 4
REMARK VINA RESULT:      -8.8      5.325      7.458
REMARK  Name = 
REMARK  4 active torsions:
REMARK  status: ('A' for Active; 'I' for Inactive)
REMARK    1  A    between atoms: C_1  and  C_2
REMARK    2  A    between atoms: C_7  and  C_8
REMARK    3  A    between atoms: C_12  and  N_13
REMARK    4  A    between atoms: C_14  and  C_16
REMARK                            x       y       z     vdW  Elec       q    Type
REMARK                         _______ _______ _______ _____ _____    ______ ____
ROOT
ATOM      1  C   UNL     1       5.737   5.052  16.174  0.00  0.00    +0.000 A 
ATOM      2  C   UNL     1       6.269   4.247  17.187  0.00  0.00    +0.000 A 
ATOM      3  C   UNL     1       5.851   4.411  18.500  0.00  0.00    +0.000 A 
ATOM      4  C   UNL     1       4.911   5.393  18.809  0.00  0.00    +0.000 A 
ATOM      5  C   UNL     1       4.379   6.225  17.817  0.00  0.00    +0.000 A 
ATOM      6  C   UNL     1       4.770   6.026  16.485  0.00  0.00    +0.000 A 
ENDROOT
BRANCH   1  13
ATOM      7  C   UNL     1       5.505   2.786  11.908  0.00  0.00    +0.000 C 
ATOM      8  C   UNL     1       6.232   3.786  12.763  0.00  0.00    +0.000 A 
ATOM      9  C   UNL     1       7.343   4.396  12.331  0.00  0.00    +0.000 A 
ATOM     10  C   UNL     1       8.004   5.343  13.237  0.00  0.00    +0.000 A 
ATOM     11  O   UNL     1       9.048   5.907  12.930  0.00  0.00    +0.000 OA
ATOM     12  N   UNL     1       7.389   5.533  14.438  0.00  0.00    +0.000 N 
ATOM     13  C   UNL     1       6.261   4.839  14.798  0.00  0.00    +0.000 A 
ATOM     14  N   UNL     1       5.682   3.993  14.006  0.00  0.00    +0.000 NA
ATOM     15  H   UNL     1       7.880   6.133  15.082  0.00  0.00    +0.000 HD
ENDBRANCH   1  13
BRANCH   5  16
ATOM     16  N   UNL     1       3.469   7.274  18.108  0.00  0.00    +0.000 N 
ATOM     17  C   UNL     1       2.483   7.219  19.086  0.00  0.00    +0.000 C 
ATOM     18  O   UNL     1       2.281   6.280  19.849  0.00  0.00    +0.000 OA
ATOM     19  H   UNL     1       3.658   8.173  17.686  0.00  0.00    +0.000 HD
BRANCH  17  20
ATOM     20  C   UNL     1       1.642   8.434  19.275  0.00  0.00    +0.000 A 
ATOM     21  C   UNL     1       1.245   9.268  18.212  0.00  0.00    +0.000 A 
ATOM     22  C   UNL     1       0.409  10.368  18.454  0.00  0.00    +0.000 A 
ATOM     23  C   UNL     1      -0.033  10.597  19.748  0.00  0.00    +0.000 A 
ATOM     24  C   UNL     1       0.336   9.763  20.788  0.00  0.00    +0.000 A 
ATOM     25  C   UNL     1       1.180   8.689  20.577  0.00  0.00    +0.000 A 
ATOM     26  C   UNL     1      -0.319  10.203  22.044  0.00  0.00    +0.000 C 
ATOM     27  O   UNL     1      -1.194  11.283  21.644  0.00  0.00    +0.000 OA
ATOM     28  C   UNL     1      -0.909  11.672  20.279  0.00  0.00    +0.000 C 
ENDBRANCH  17  20
ENDBRANCH   5  16
TORSDOF 3
ENDMDL
MODEL 5
REMARK VINA RESULT:      -8.7      5.092      7.318
REMARK  Name = 
REMARK  4 active torsions:
REMARK  status: ('A' for Active; 'I' for Inactive)
REMARK    1  A    between atoms: C_1  and  C_2
REMARK    2  A    between atoms: C_7  and  C_8
REMARK    3  A    between atoms: C_12  and  N_13
REMARK    4  A    between atoms: C_14  and  C_16
REMARK                            x       y       z     vdW  Elec       q    Type
REMARK                         _______ _______ _______ _____ _____    ______ ____
ROOT
ATOM      1  C   UNL     1       3.990   4.641  18.864  0.00  0.00    +0.000 A 
ATOM      2  C   UNL     1       3.652   3.457  19.528  0.00  0.00    +0.000 A 
ATOM      3  C   UNL     1       2.662   3.462  20.501  0.00  0.00    +0.000 A 
ATOM      4  C   UNL     1       2.018   4.653  20.826  0.00  0.00    +0.000 A 
ATOM      5  C   UNL     1       2.352   5.855  20.191  0.00  0.00    +0.000 A 
ATOM      6  C   UNL     1       3.321   5.839  19.177  0.00  0.00    +0.000 A 
ENDROOT
BRANCH   1  13
ATOM      7  C   UNL     1       5.436   4.396  14.256  0.00  0.00    +0.000 C 
ATOM      8  C   UNL     1       5.844   4.414  15.703  0.00  0.00    +0.000 A 
ATOM      9  C   UNL     1       7.126   4.286  16.068  0.00  0.00    +0.000 A 
ATOM     10  C   UNL     1       7.437   4.292  17.502  0.00  0.00    +0.000 A 
ATOM     11  O   UNL     1       8.580   4.137  17.915  0.00  0.00    +0.000 OA
ATOM     12  N   UNL     1       6.370   4.463  18.333  0.00  0.00    +0.000 N 
ATOM     13  C   UNL     1       5.085   4.562  17.859  0.00  0.00    +0.000 A 
ATOM     14  N   UNL     1       4.806   4.544  16.595  0.00  0.00    +0.000 NA
ATOM     15  H   UNL     1       6.577   4.401  19.317  0.00  0.00    +0.000 HD
ENDBRANCH   1  13
BRANCH   5  16
ATOM     16  N   UNL     1       1.760   7.095  20.544  0.00  0.00    +0.000 N 
ATOM     17  C   UNL     1       1.678   8.201  19.706  0.00  0.00    +0.000 C 
ATOM     18  O   UNL     1       2.072   8.252  18.545  0.00  0.00    +0.000 OA
ATOM     19  H   UNL     1       1.224   7.119  21.401  0.00  0.00    +0.000 HD
BRANCH  17  20
ATOM     20  C   UNL     1       0.986   9.409  20.237  0.00  0.00    +0.000 A 
ATOM     21  C   UNL     1       0.853  10.604  19.504  0.00  0.00    +0.000 A 
ATOM     22  C   UNL     1       0.143  11.686  20.044  0.00  0.00    +0.000 A 
ATOM     23  C   UNL     1      -0.438  11.544  21.295  0.00  0.00    +0.000 A 
ATOM     24  C   UNL     1      -0.328  10.361  22.005  0.00  0.00    +0.000 A 
ATOM     25  C   UNL     1       0.388   9.291  21.503  0.00  0.00    +0.000 A 
ATOM     26  C   UNL     1      -1.086  10.465  23.275  0.00  0.00    +0.000 C 
ATOM     27  O   UNL     1      -1.748  11.748  23.207  0.00  0.00    +0.000 OA
ATOM     28  C   UNL     1      -1.229  12.515  22.093  0.00  0.00    +0.000 C 
ENDBRANCH  17  20
ENDBRANCH   5  16
TORSDOF 3
ENDMDL
MODEL 6
REMARK VINA RESULT:      -8.7      5.257      7.547
REMARK  Name = 
REMARK  4 active torsions:
REMARK  status: ('A' for Active; 'I' for Inactive)
REMARK    1  A    between atoms: C_1  and  C_2
REMARK    2  A    between atoms: C_7  and  C_8
REMARK    3  A    between atoms: C_12  and  N_13
REMARK    4  A    between atoms: C_14  and  C_16
REMARK                            x       y       z     vdW  Elec       q    Type
REMARK                         _______ _______ _______ _____ _____    ______ ____
ROOT
ATOM      1  C   UNL     1       3.849   4.942  19.011  0.00  0.00    +0.000 A 
ATOM      2  C   UNL     1       3.520   3.634  19.385  0.00  0.00    +0.000 A 
ATOM      3  C   UNL     1       2.486   3.404  20.281  0.00  0.00    +0.000 A 
ATOM      4  C   UNL     1       1.787   4.482  20.821  0.00  0.00    +0.000 A 
ATOM      5  C   UNL     1       2.110   5.800  20.480  0.00  0.00    +0.000 A 
ATOM      6  C   UNL     1       3.126   6.027  19.539  0.00  0.00    +0.000 A 
ENDROOT
BRANCH   1  13
ATOM      7  C   UNL     1       7.694   7.454  17.498  0.00  0.00    +0.000 C 
ATOM      8  C   UNL     1       6.807   6.260  17.281  0.00  0.00    +0.000 A 
ATOM      9  C   UNL     1       6.994   5.431  16.245  0.00  0.00    +0.000 A 
ATOM     10  C   UNL     1       6.069   4.302  16.093  0.00  0.00    +0.000 A 
ATOM     11  O   UNL     1       6.149   3.526  15.148  0.00  0.00    +0.000 OA
ATOM     12  N   UNL     1       5.116   4.189  17.059  0.00  0.00    +0.000 N 
ATOM     13  C   UNL     1       4.992   5.108  18.073  0.00  0.00    +0.000 A 
ATOM     14  N   UNL     1       5.798   6.114  18.202  0.00  0.00    +0.000 NA
ATOM     15  H   UNL     1       4.443   3.453  16.917  0.00  0.00    +0.000 HD
ENDBRANCH   1  13
BRANCH   5  16
ATOM     16  N   UNL     1       1.460   6.920  21.060  0.00  0.00    +0.000 N 
ATOM     17  C   UNL     1       1.357   8.172  20.465  0.00  0.00    +0.000 C 
ATOM     18  O   UNL     1       1.779   8.476  19.355  0.00  0.00    +0.000 OA
ATOM     19  H   UNL     1       0.901   6.747  21.885  0.00  0.00    +0.000 HD
BRANCH  17  20
ATOM     20  C   UNL     1       0.604   9.220  21.210  0.00  0.00    +0.000 A 
ATOM     21  C   UNL     1      -0.113   8.959  22.393  0.00  0.00    +0.000 A 
ATOM     22  C   UNL     1      -0.757  10.003  23.072  0.00  0.00    +0.000 A 
ATOM     23  C   UNL     1      -0.650  11.291  22.569  0.00  0.00    +0.000 A 
ATOM     24  C   UNL     1       0.076  11.552  21.420  0.00  0.00    +0.000 A 
ATOM     25  C   UNL     1       0.696  10.535  20.721  0.00  0.00    +0.000 A 
ATOM     26  C   UNL     1       0.071  13.009  21.142  0.00  0.00    +0.000 C 
ATOM     27  O   UNL     1      -0.609  13.598  22.274  0.00  0.00    +0.000 OA
ATOM     28  C   UNL     1      -1.225  12.563  23.077  0.00  0.00    +0.000 C 
ENDBRANCH  17  20
ENDBRANCH   5  16
TORSDOF 3
ENDMDL
MODEL 7
REMARK VINA RESULT:      -8.7      0.807      1.502
REMARK  Name = 
REMARK  4 active torsions:
REMARK  status: ('A' for Active; 'I' for Inactive)
REMARK    1  A    between atoms: C_1  and  C_2
REMARK    2  A    between atoms: C_7  and  C_8
REMARK    3  A    between atoms: C_12  and  N_13
REMARK    4  A    between atoms: C_14  and  C_16
REMARK                            x       y       z     vdW  Elec       q    Type
REMARK                         _______ _______ _______ _____ _____    ______ ____
ROOT
ATOM      1  C   UNL     1       5.045   4.684  17.700  0.00  0.00    +0.000 A 
ATOM      2  C   UNL     1       5.027   4.221  16.380  0.00  0.00    +0.000 A 
ATOM      3  C   UNL     1       5.658   4.946  15.378  0.00  0.00    +0.000 A 
ATOM      4  C   UNL     1       6.295   6.145  15.689  0.00  0.00    +0.000 A 
ATOM      5  C   UNL     1       6.309   6.640  16.998  0.00  0.00    +0.000 A 
ATOM      6  C   UNL     1       5.710   5.883  18.016  0.00  0.00    +0.000 A 
ENDROOT
BRANCH   1  13
ATOM      7  C   UNL     1       0.953   3.576  20.026  0.00  0.00    +0.000 C 
ATOM      8  C   UNL     1       2.424   3.310  19.875  0.00  0.00    +0.000 A 
ATOM      9  C   UNL     1       3.061   2.438  20.667  0.00  0.00    +0.000 A 
ATOM     10  C   UNL     1       4.504   2.254  20.468  0.00  0.00    +0.000 A 
ATOM     11  O   UNL     1       5.163   1.507  21.181  0.00  0.00    +0.000 OA
ATOM     12  N   UNL     1       5.054   2.980  19.454  0.00  0.00    +0.000 N 
ATOM     13  C   UNL     1       4.317   3.869  18.711  0.00  0.00    +0.000 A 
ATOM     14  N   UNL     1       3.047   4.044  18.893  0.00  0.00    +0.000 NA
ATOM     15  H   UNL     1       6.054   2.902  19.362  0.00  0.00    +0.000 HD
ENDBRANCH   1  13
BRANCH   5  16
ATOM     16  N   UNL     1       6.894   7.888  17.336  0.00  0.00    +0.000 N 
ATOM     17  C   UNL     1       7.968   8.051  18.203  0.00  0.00    +0.000 C 
ATOM     18  O   UNL     1       8.577   7.149  18.768  0.00  0.00    +0.000 OA
ATOM     19  H   UNL     1       6.613   8.688  16.785  0.00  0.00    +0.000 HD
BRANCH  17  20
ATOM     20  C   UNL     1       8.473   9.437  18.409  0.00  0.00    +0.000 A 
ATOM     21  C   UNL     1       9.581   9.740  19.224  0.00  0.00    +0.000 A 
ATOM     22  C   UNL     1      10.036  11.062  19.333  0.00  0.00    +0.000 A 
ATOM     23  C   UNL     1       9.389  12.051  18.607  0.00  0.00    +0.000 A 
ATOM     24  C   UNL     1       8.316  11.750  17.787  0.00  0.00    +0.000 A 
ATOM     25  C   UNL     1       7.835  10.459  17.685  0.00  0.00    +0.000 A 
ATOM     26  C   UNL     1       7.855  12.976  17.092  0.00  0.00    +0.000 C 
ATOM     27  O   UNL     1       8.809  13.995  17.469  0.00  0.00    +0.000 OA
ATOM     28  C   UNL     1       9.655  13.510  18.540  0.00  0.00    +0.000 C 
ENDBRANCH  17  20
ENDBRANCH   5  16
TORSDOF 3
ENDMDL
MODEL 8
REMARK VINA RESULT:      -8.7      1.578      1.780
REMARK  Name = 
REMARK  4 active torsions:
REMARK  status: ('A' for Active; 'I' for Inactive)
REMARK    1  A    between atoms: C_1  and  C_2
REMARK    2  A    between atoms: C_7  and  C_8
REMARK    3  A    between atoms: C_12  and  N_13
REMARK    4  A    between atoms: C_14  and  C_16
REMARK                            x       y       z     vdW  Elec       q    Type
REMARK                         _______ _______ _______ _____ _____    ______ ____
ROOT
ATOM      1  C   UNL     1       4.766   5.198  17.698  0.00  0.00    +0.000 A 
ATOM      2  C   UNL     1       5.200   4.336  16.685  0.00  0.00    +0.000 A 
ATOM      3  C   UNL     1       6.283   4.685  15.889  0.00  0.00    +0.000 A 
ATOM      4  C   UNL     1       6.925   5.905  16.092  0.00  0.00    +0.000 A 
ATOM      5  C   UNL     1       6.498   6.794  17.085  0.00  0.00    +0.000 A 
ATOM      6  C   UNL     1       5.432   6.418  17.917  0.00  0.00    +0.000 A 
ENDROOT
BRANCH   1  13
ATOM      7  C   UNL     1       1.267   1.980  18.582  0.00  0.00    +0.000 C 
ATOM      8  C   UNL     1       1.876   3.306  18.942  0.00  0.00    +0.000 A 
ATOM      9  C   UNL     1       1.327   4.096  19.874  0.00  0.00    +0.000 A 
ATOM     10  C   UNL     1       1.972   5.385  20.150  0.00  0.00    +0.000 A 
ATOM     11  O   UNL     1       1.505   6.180  20.956  0.00  0.00    +0.000 OA
ATOM     12  N   UNL     1       3.107   5.638  19.439  0.00  0.00    +0.000 N 
ATOM     13  C   UNL     1       3.578   4.770  18.485  0.00  0.00    +0.000 A 
ATOM     14  N   UNL     1       3.004   3.637  18.230  0.00  0.00    +0.000 NA
ATOM     15  H   UNL     1       3.510   6.549  19.582  0.00  0.00    +0.000 HD
ENDBRANCH   1  13
BRANCH   5  16
ATOM     16  N   UNL     1       7.090   8.069  17.275  0.00  0.00    +0.000 N 
ATOM     17  C   UNL     1       8.079   8.351  18.210  0.00  0.00    +0.000 C 
ATOM     18  O   UNL     1       8.598   7.543  18.972  0.00  0.00    +0.000 OA
ATOM     19  H   UNL     1       6.892   8.773  16.577  0.00  0.00    +0.000 HD
BRANCH  17  20
ATOM     20  C   UNL     1       8.610   9.743  18.241  0.00  0.00    +0.000 A 
ATOM     21  C   UNL     1       8.063  10.793  17.478  0.00  0.00    +0.000 A 
ATOM     22  C   UNL     1       8.578  12.092  17.594  0.00  0.00    +0.000 A 
ATOM     23  C   UNL     1       9.614  12.320  18.488  0.00  0.00    +0.000 A 
ATOM     24  C   UNL     1      10.135  11.294  19.256  0.00  0.00    +0.000 A 
ATOM     25  C   UNL     1       9.659  10.002  19.139  0.00  0.00    +0.000 A 
ATOM     26  C   UNL     1      11.184  11.825  20.159  0.00  0.00    +0.000 C 
ATOM     27  O   UNL     1      11.160  13.255  19.953  0.00  0.00    +0.000 OA
ATOM     28  C   UNL     1      10.339  13.576  18.804  0.00  0.00    +0.000 C 
ENDBRANCH  17  20
ENDBRANCH   5  16
TORSDOF 3
ENDMDL
MODEL 9
REMARK VINA RESULT:      -8.7      6.579      9.011
REMARK  Name = 
REMARK  4 active torsions:
REMARK  status: ('A' for Active; 'I' for Inactive)
REMARK    1  A    between atoms: C_1  and  C_2
REMARK    2  A    between atoms: C_7  and  C_8
REMARK    3  A    between atoms: C_12  and  N_13
REMARK    4  A    between atoms: C_14  and  C_16
REMARK                            x       y       z     vdW  Elec       q    Type
REMARK                         _______ _______ _______ _____ _____    ______ ____
ROOT
ATOM      1  C   UNL     1      -0.827  10.292  18.492  0.00  0.00    +0.000 A 
ATOM      2  C   UNL     1      -0.692  10.848  19.768  0.00  0.00    +0.000 A 
ATOM      3  C   UNL     1       0.444  10.593  20.523  0.00  0.00    +0.000 A 
ATOM      4  C   UNL     1       1.443   9.766  20.012  0.00  0.00    +0.000 A 
ATOM      5  C   UNL     1       1.322   9.181  18.747  0.00  0.00    +0.000 A 
ATOM      6  C   UNL     1       0.194   9.477  17.968  0.00  0.00    +0.000 A 
ENDROOT
BRANCH   1  13
ATOM      7  C   UNL     1      -3.421  10.184  14.412  0.00  0.00    +0.000 C 
ATOM      8  C   UNL     1      -3.367  10.593  15.857  0.00  0.00    +0.000 A 
ATOM      9  C   UNL     1      -4.377  11.258  16.433  0.00  0.00    +0.000 A 
ATOM     10  C   UNL     1      -4.235  11.640  17.842  0.00  0.00    +0.000 A 
ATOM     11  O   UNL     1      -5.097  12.286  18.425  0.00  0.00    +0.000 OA
ATOM     12  N   UNL     1      -3.079  11.243  18.444  0.00  0.00    +0.000 N 
ATOM     13  C   UNL     1      -2.089  10.583  17.759  0.00  0.00    +0.000 A 
ATOM     14  N   UNL     1      -2.206  10.256  16.511  0.00  0.00    +0.000 NA
ATOM     15  H   UNL     1      -2.955  11.562  19.392  0.00  0.00    +0.000 HD
ENDBRANCH   1  13
BRANCH   5  16
ATOM     16  N   UNL     1       2.291   8.285  18.225  0.00  0.00    +0.000 N 
ATOM     17  C   UNL     1       2.557   7.020  18.736  0.00  0.00    +0.000 C 
ATOM     18  O   UNL     1       1.978   6.491  19.678  0.00  0.00    +0.000 OA
ATOM     19  H   UNL     1       2.697   8.522  17.329  0.00  0.00    +0.000 HD
BRANCH  17  20
ATOM     20  C   UNL     1       3.587   6.204  18.033  0.00  0.00    +0.000 A 
ATOM     21  C   UNL     1       3.351   4.892  17.580  0.00  0.00    +0.000 A 
ATOM     22  C   UNL     1       4.348   4.198  16.878  0.00  0.00    +0.000 A 
ATOM     23  C   UNL     1       5.551   4.840  16.623  0.00  0.00    +0.000 A 
ATOM     24  C   UNL     1       5.774   6.138  17.046  0.00  0.00    +0.000 A 
ATOM     25  C   UNL     1       4.815   6.830  17.761  0.00  0.00    +0.000 A 
ATOM     26  C   UNL     1       7.110   6.593  16.593  0.00  0.00    +0.000 C 
ATOM     27  O   UNL     1       7.609   5.512  15.772  0.00  0.00    +0.000 OA
ATOM     28  C   UNL     1       6.761   4.348  15.916  0.00  0.00    +0.000 C 
ENDBRANCH  17  20
ENDBRANCH   5  16
TORSDOF 3
ENDMDL
