MODEL 1
REMARK VINA RESULT:      -8.8      0.000      0.000
REMARK  Name = 
REMARK  4 active torsions:
REMARK  status: ('A' for Active; 'I' for Inactive)
REMARK    1  A    between atoms: C_1  and  C_2
REMARK    2  A    between atoms: N_5  and  C_6
REMARK    3  A    between atoms: C_10  and  N_11
REMARK    4  A    between atoms: C_12  and  C_14
REMARK                            x       y       z     vdW  Elec       q    Type
REMARK                         _______ _______ _______ _____ _____    ______ ____
ROOT
ATOM      1  N   UNL     1       4.083   6.952  17.970  0.00  0.00    +0.000 N 
ATOM      2  C   UNL     1       3.094   6.661  18.891  0.00  0.00    +0.000 C 
ATOM      3  O   UNL     1       2.930   5.575  19.448  0.00  0.00    +0.000 OA
ATOM      4  H   UNL     1       4.079   7.897  17.583  0.00  0.00    +0.000 HD
ENDROOT
BRANCH   2   5
ATOM      5  C   UNL     1       2.179   7.797  19.224  0.00  0.00    +0.000 A 
ATOM      6  C   UNL     1       1.624   7.828  20.452  0.00  0.00    +0.000 A 
ATOM      7  C   UNL     1       0.794   8.932  20.897  0.00  0.00    +0.000 A 
ATOM      8  C   UNL     1       0.572   9.963  20.063  0.00  0.00    +0.000 A 
ATOM      9  N   UNL     1       1.106   9.943  18.797  0.00  0.00    +0.000 N 
ATOM     10  C   UNL     1       1.882   8.923  18.296  0.00  0.00    +0.000 A 
ATOM     11  O   UNL     1       2.311   8.948  17.144  0.00  0.00    +0.000 OA
ATOM     12  C   UNL     1      -0.253  11.163  20.440  0.00  0.00    +0.000 C 
ATOM     13  C   UNL     1      -1.096  10.929  21.694  0.00  0.00    +0.000 C 
ATOM     14  C   UNL     1      -0.277  10.239  22.781  0.00  0.00    +0.000 C 
ATOM     15  C   UNL     1       0.244   8.881  22.301  0.00  0.00    +0.000 C 
ATOM     16  H   UNL     1       0.931  10.712  18.161  0.00  0.00    +0.000 HD
ENDBRANCH   2   5
BRANCH   1  21
ATOM     17  C   UNL     1       6.214   4.910  15.716  0.00  0.00    +0.000 A 
ATOM     18  C   UNL     1       7.226   4.490  16.592  0.00  0.00    +0.000 A 
ATOM     19  C   UNL     1       7.193   4.873  17.929  0.00  0.00    +0.000 A 
ATOM     20  C   UNL     1       6.158   5.679  18.401  0.00  0.00    +0.000 A 
ATOM     21  C   UNL     1       5.137   6.106  17.551  0.00  0.00    +0.000 A 
ATOM     22  C   UNL     1       5.160   5.705  16.203  0.00  0.00    +0.000 A 
BRANCH  17  27
ATOM     23  C   UNL     1       4.879   2.863  11.544  0.00  0.00    +0.000 C 
ATOM     24  C   UNL     1       5.729   3.618  12.496  0.00  0.00    +0.000 A 
ATOM     25  C   UNL     1       6.998   4.184  12.270  0.00  0.00    +0.000 A 
ATOM     26  C   UNL     1       7.334   4.784  13.460  0.00  0.00    +0.000 A 
ATOM     27  N   UNL     1       6.304   4.545  14.343  0.00  0.00    +0.000 N 
ATOM     28  N   UNL     1       5.304   3.842  13.742  0.00  0.00    +0.000 NA
ENDBRANCH  17  27
ENDBRANCH   1  21
TORSDOF 3
ENDMDL
MODEL 2
REMARK VINA RESULT:      -8.6      1.871      9.159
REMARK  Name = 
REMARK  4 active torsions:
REMARK  status: ('A' for Active; 'I' for Inactive)
REMARK    1  A    between atoms: C_1  and  C_2
REMARK    2  A    between atoms: N_5  and  C_6
REMARK    3  A    between atoms: C_10  and  N_11
REMARK    4  A    between atoms: C_12  and  C_14
REMARK                            x       y       z     vdW  Elec       q    Type
REMARK                         _______ _______ _______ _____ _____    ______ ____
ROOT
ATOM      1  N   UNL     1       4.059   5.690  17.980  0.00  0.00    +0.000 N 
ATOM      2  C   UNL     1       5.213   4.929  17.949  0.00  0.00    +0.000 C 
ATOM      3  O   UNL     1       5.675   4.288  18.892  0.00  0.00    +0.000 OA
ATOM      4  H   UNL     1       3.814   6.179  17.117  0.00  0.00    +0.000 HD
ENDROOT
BRANCH   2   5
ATOM      5  C   UNL     1       5.919   4.897  16.630  0.00  0.00    +0.000 A 
ATOM      6  C   UNL     1       5.379   4.161  15.637  0.00  0.00    +0.000 A 
ATOM      7  C   UNL     1       5.942   4.136  14.300  0.00  0.00    +0.000 A 
ATOM      8  C   UNL     1       7.035   4.873  14.035  0.00  0.00    +0.000 A 
ATOM      9  N   UNL     1       7.619   5.611  15.037  0.00  0.00    +0.000 N 
ATOM     10  C   UNL     1       7.158   5.667  16.332  0.00  0.00    +0.000 A 
ATOM     11  O   UNL     1       7.739   6.325  17.193  0.00  0.00    +0.000 OA
ATOM     12  C   UNL     1       7.678   4.932  12.676  0.00  0.00    +0.000 C 
ATOM     13  C   UNL     1       7.200   3.815  11.748  0.00  0.00    +0.000 C 
ATOM     14  C   UNL     1       5.685   3.649  11.830  0.00  0.00    +0.000 C 
ATOM     15  C   UNL     1       5.244   3.302  13.255  0.00  0.00    +0.000 C 
ATOM     16  H   UNL     1       8.451   6.158  14.844  0.00  0.00    +0.000 HD
ENDBRANCH   2   5
BRANCH   1  21
ATOM     17  C   UNL     1       1.682   7.274  20.352  0.00  0.00    +0.000 A 
ATOM     18  C   UNL     1       1.270   6.171  21.114  0.00  0.00    +0.000 A 
ATOM     19  C   UNL     1       1.790   4.908  20.849  0.00  0.00    +0.000 A 
ATOM     20  C   UNL     1       2.718   4.734  19.823  0.00  0.00    +0.000 A 
ATOM     21  C   UNL     1       3.147   5.817  19.054  0.00  0.00    +0.000 A 
ATOM     22  C   UNL     1       2.634   7.096  19.332  0.00  0.00    +0.000 A 
BRANCH  17  27
ATOM     23  C   UNL     1      -0.711  10.657  22.844  0.00  0.00    +0.000 C 
ATOM     24  C   UNL     1       0.010  10.039  21.704  0.00  0.00    +0.000 A 
ATOM     25  C   UNL     1       0.278  10.596  20.440  0.00  0.00    +0.000 A 
ATOM     26  C   UNL     1       0.985   9.627  19.769  0.00  0.00    +0.000 A 
ATOM     27  N   UNL     1       1.092   8.543  20.613  0.00  0.00    +0.000 N 
ATOM     28  N   UNL     1       0.507   8.805  21.815  0.00  0.00    +0.000 NA
ENDBRANCH  17  27
ENDBRANCH   1  21
TORSDOF 3
ENDMDL
MODEL 3
REMARK VINA RESULT:      -8.5      1.842      9.043
REMARK  Name = 
REMARK  4 active torsions:
REMARK  status: ('A' for Active; 'I' for Inactive)
REMARK    1  A    between atoms: C_1  and  C_2
REMARK    2  A    between atoms: N_5  and  C_6
REMARK    3  A    between atoms: C_10  and  N_11
REMARK    4  A    between atoms: C_12  and  C_14
REMARK                            x       y       z     vdW  Elec       q    Type
REMARK                         _______ _______ _______ _____ _____    ______ ____
ROOT
ATOM      1  N   UNL     1       4.063   5.668  17.921  0.00  0.00    +0.000 N 
ATOM      2  C   UNL     1       5.227   4.922  17.896  0.00  0.00    +0.000 C 
ATOM      3  O   UNL     1       5.702   4.301  18.847  0.00  0.00    +0.000 OA
ATOM      4  H   UNL     1       3.808   6.139  17.052  0.00  0.00    +0.000 HD
ENDROOT
BRANCH   2   5
ATOM      5  C   UNL     1       5.927   4.878  16.573  0.00  0.00    +0.000 A 
ATOM      6  C   UNL     1       5.376   4.142  15.586  0.00  0.00    +0.000 A 
ATOM      7  C   UNL     1       5.933   4.106  14.247  0.00  0.00    +0.000 A 
ATOM      8  C   UNL     1       7.030   4.833  13.974  0.00  0.00    +0.000 A 
ATOM      9  N   UNL     1       7.625   5.571  14.970  0.00  0.00    +0.000 N 
ATOM     10  C   UNL     1       7.171   5.637  16.266  0.00  0.00    +0.000 A 
ATOM     11  O   UNL     1       7.761   6.294  17.122  0.00  0.00    +0.000 OA
ATOM     12  C   UNL     1       7.667   4.881  12.612  0.00  0.00    +0.000 C 
ATOM     13  C   UNL     1       7.176   3.763  11.691  0.00  0.00    +0.000 C 
ATOM     14  C   UNL     1       5.660   3.611  11.780  0.00  0.00    +0.000 C 
ATOM     15  C   UNL     1       5.223   3.273  13.209  0.00  0.00    +0.000 C 
ATOM     16  H   UNL     1       8.460   6.110  14.771  0.00  0.00    +0.000 HD
ENDBRANCH   2   5
BRANCH   1  21
ATOM     17  C   UNL     1       1.743   7.274  20.334  0.00  0.00    +0.000 A 
ATOM     18  C   UNL     1       1.290   6.167  21.066  0.00  0.00    +0.000 A 
ATOM     19  C   UNL     1       1.764   4.894  20.767  0.00  0.00    +0.000 A 
ATOM     20  C   UNL     1       2.686   4.713  19.737  0.00  0.00    +0.000 A 
ATOM     21  C   UNL     1       3.155   5.799  18.998  0.00  0.00    +0.000 A 
ATOM     22  C   UNL     1       2.690   7.088  19.310  0.00  0.00    +0.000 A 
BRANCH  17  27
ATOM     23  C   UNL     1       0.288  11.807  19.490  0.00  0.00    +0.000 C 
ATOM     24  C   UNL     1       0.576  10.576  20.266  0.00  0.00    +0.000 A 
ATOM     25  C   UNL     1       0.412  10.360  21.647  0.00  0.00    +0.000 A 
ATOM     26  C   UNL     1       0.802   9.057  21.849  0.00  0.00    +0.000 A 
ATOM     27  N   UNL     1       1.200   8.557  20.629  0.00  0.00    +0.000 N 
ATOM     28  N   UNL     1       1.042   9.488  19.648  0.00  0.00    +0.000 NA
ENDBRANCH  17  27
ENDBRANCH   1  21
TORSDOF 3
ENDMDL
MODEL 4
REMARK VINA RESULT:      -8.2      2.325      3.792
REMARK  Name = 
REMARK  4 active torsions:
REMARK  status: ('A' for Active; 'I' for Inactive)
REMARK    1  A    between atoms: C_1  and  C_2
REMARK    2  A    between atoms: N_5  and  C_6
REMARK    3  A    between atoms: C_10  and  N_11
REMARK    4  A    between atoms: C_12  and  C_14
REMARK                            x       y       z     vdW  Elec       q    Type
REMARK                         _______ _______ _______ _____ _____    ______ ____
ROOT
ATOM      1  N   UNL     1       1.821   6.993  20.555  0.00  0.00    +0.000 N 
ATOM      2  C   UNL     1       1.739   8.113  19.749  0.00  0.00    +0.000 C 
ATOM      3  O   UNL     1       2.265   8.241  18.643  0.00  0.00    +0.000 OA
ATOM      4  H   UNL     1       1.342   7.046  21.456  0.00  0.00    +0.000 HD
ENDROOT
BRANCH   2   5
ATOM      5  C   UNL     1       0.916   9.235  20.299  0.00  0.00    +0.000 A 
ATOM      6  C   UNL     1       0.066   9.869  19.465  0.00  0.00    +0.000 A 
ATOM      7  C   UNL     1      -0.835  10.910  19.924  0.00  0.00    +0.000 A 
ATOM      8  C   UNL     1      -0.830  11.253  21.223  0.00  0.00    +0.000 A 
ATOM      9  N   UNL     1       0.044  10.640  22.089  0.00  0.00    +0.000 N 
ATOM     10  C   UNL     1       0.942   9.664  21.725  0.00  0.00    +0.000 A 
ATOM     11  O   UNL     1       1.719   9.169  22.539  0.00  0.00    +0.000 OA
ATOM     12  C   UNL     1      -1.743  12.302  21.800  0.00  0.00    +0.000 C 
ATOM     13  C   UNL     1      -2.394  13.173  20.725  0.00  0.00    +0.000 C 
ATOM     14  C   UNL     1      -2.906  12.320  19.568  0.00  0.00    +0.000 C 
ATOM     15  C   UNL     1      -1.764  11.535  18.914  0.00  0.00    +0.000 C 
ATOM     16  H   UNL     1       0.059  10.905  23.067  0.00  0.00    +0.000 HD
ENDBRANCH   2   5
BRANCH   1  21
ATOM     17  C   UNL     1       4.131   4.573  18.944  0.00  0.00    +0.000 A 
ATOM     18  C   UNL     1       3.794   3.383  19.605  0.00  0.00    +0.000 A 
ATOM     19  C   UNL     1       2.795   3.382  20.573  0.00  0.00    +0.000 A 
ATOM     20  C   UNL     1       2.129   4.564  20.893  0.00  0.00    +0.000 A 
ATOM     21  C   UNL     1       2.442   5.760  20.246  0.00  0.00    +0.000 A 
ATOM     22  C   UNL     1       3.440   5.759  19.256  0.00  0.00    +0.000 A 
BRANCH  17  27
ATOM     23  C   UNL     1       6.268   4.008  14.644  0.00  0.00    +0.000 C 
ATOM     24  C   UNL     1       6.151   4.279  16.098  0.00  0.00    +0.000 A 
ATOM     25  C   UNL     1       7.179   4.566  17.015  0.00  0.00    +0.000 A 
ATOM     26  C   UNL     1       6.539   4.753  18.217  0.00  0.00    +0.000 A 
ATOM     27  N   UNL     1       5.194   4.552  17.997  0.00  0.00    +0.000 N 
ATOM     28  N   UNL     1       4.952   4.279  16.685  0.00  0.00    +0.000 NA
ENDBRANCH  17  27
ENDBRANCH   1  21
TORSDOF 3
ENDMDL
MODEL 5
REMARK VINA RESULT:      -8.1      3.548      9.076
REMARK  Name = 
REMARK  4 active torsions:
REMARK  status: ('A' for Active; 'I' for Inactive)
REMARK    1  A    between atoms: C_1  and  C_2
REMARK    2  A    between atoms: N_5  and  C_6
REMARK    3  A    between atoms: C_10  and  N_11
REMARK    4  A    between atoms: C_12  and  C_14
REMARK                            x       y       z     vdW  Elec       q    Type
REMARK                         _______ _______ _______ _____ _____    ______ ____
ROOT
ATOM      1  N   UNL     1       1.507   8.952  18.297  0.00  0.00    +0.000 N 
ATOM      2  C   UNL     1       1.853   8.118  19.344  0.00  0.00    +0.000 C 
ATOM      3  O   UNL     1       1.721   8.377  20.540  0.00  0.00    +0.000 OA
ATOM      4  H   UNL     1       1.692   8.601  17.356  0.00  0.00    +0.000 HD
ENDROOT
BRANCH   2   5
ATOM      5  C   UNL     1       2.414   6.790  18.942  0.00  0.00    +0.000 A 
ATOM      6  C   UNL     1       1.889   5.682  19.503  0.00  0.00    +0.000 A 
ATOM      7  C   UNL     1       2.306   4.348  19.114  0.00  0.00    +0.000 A 
ATOM      8  C   UNL     1       3.242   4.206  18.160  0.00  0.00    +0.000 A 
ATOM      9  N   UNL     1       3.810   5.321  17.591  0.00  0.00    +0.000 N 
ATOM     10  C   UNL     1       3.485   6.615  17.922  0.00  0.00    +0.000 A 
ATOM     11  O   UNL     1       4.047   7.574  17.398  0.00  0.00    +0.000 OA
ATOM     12  C   UNL     1       3.723   2.866  17.671  0.00  0.00    +0.000 C 
ATOM     13  C   UNL     1       3.322   1.721  18.602  0.00  0.00    +0.000 C 
ATOM     14  C   UNL     1       1.867   1.856  19.039  0.00  0.00    +0.000 C 
ATOM     15  C   UNL     1       1.635   3.174  19.784  0.00  0.00    +0.000 C 
ATOM     16  H   UNL     1       4.526   5.218  16.880  0.00  0.00    +0.000 HD
ENDBRANCH   2   5
BRANCH   1  21
ATOM     17  C   UNL     1      -1.217  11.475  18.271  0.00  0.00    +0.000 A 
ATOM     18  C   UNL     1      -0.518  12.645  18.601  0.00  0.00    +0.000 A 
ATOM     19  C   UNL     1       0.855  12.598  18.817  0.00  0.00    +0.000 A 
ATOM     20  C   UNL     1       1.540  11.388  18.713  0.00  0.00    +0.000 A 
ATOM     21  C   UNL     1       0.868  10.211  18.382  0.00  0.00    +0.000 A 
ATOM     22  C   UNL     1      -0.518  10.261  18.146  0.00  0.00    +0.000 A 
BRANCH  17  27
ATOM     23  C   UNL     1      -5.823  12.256  19.520  0.00  0.00    +0.000 C 
ATOM     24  C   UNL     1      -4.676  11.868  18.662  0.00  0.00    +0.000 A 
ATOM     25  C   UNL     1      -4.703  11.373  17.345  0.00  0.00    +0.000 A 
ATOM     26  C   UNL     1      -3.382  11.193  17.009  0.00  0.00    +0.000 A 
ATOM     27  N   UNL     1      -2.630  11.547  18.107  0.00  0.00    +0.000 N 
ATOM     28  N   UNL     1      -3.427  11.982  19.121  0.00  0.00    +0.000 NA
ENDBRANCH  17  27
ENDBRANCH   1  21
TORSDOF 3
ENDMDL
MODEL 6
REMARK VINA RESULT:      -8.1      3.051      9.533
REMARK  Name = 
REMARK  4 active torsions:
REMARK  status: ('A' for Active; 'I' for Inactive)
REMARK    1  A    between atoms: C_1  and  C_2
REMARK    2  A    between atoms: N_5  and  C_6
REMARK    3  A    between atoms: C_10  and  N_11
REMARK    4  A    between atoms: C_12  and  C_14
REMARK                            x       y       z     vdW  Elec       q    Type
REMARK                         _______ _______ _______ _____ _____    ______ ____
ROOT
ATOM      1  N   UNL     1       0.776   9.248  19.377  0.00  0.00    +0.000 N 
ATOM      2  C   UNL     1       1.726   9.094  18.385  0.00  0.00    +0.000 C 
ATOM      3  O   UNL     1       1.931   9.880  17.460  0.00  0.00    +0.000 OA
ATOM      4  H   UNL     1       0.715   8.499  20.068  0.00  0.00    +0.000 HD
ENDROOT
BRANCH   2   5
ATOM      5  C   UNL     1       2.567   7.861  18.494  0.00  0.00    +0.000 A 
ATOM      6  C   UNL     1       3.460   7.611  17.515  0.00  0.00    +0.000 A 
ATOM      7  C   UNL     1       4.378   6.489  17.575  0.00  0.00    +0.000 A 
ATOM      8  C   UNL     1       4.345   5.672  18.642  0.00  0.00    +0.000 A 
ATOM      9  N   UNL     1       3.427   5.891  19.641  0.00  0.00    +0.000 N 
ATOM     10  C   UNL     1       2.511   6.917  19.645  0.00  0.00    +0.000 A 
ATOM     11  O   UNL     1       1.694   7.047  20.555  0.00  0.00    +0.000 OA
ATOM     12  C   UNL     1       5.272   4.498  18.808  0.00  0.00    +0.000 C 
ATOM     13  C   UNL     1       5.982   4.119  17.508  0.00  0.00    +0.000 C 
ATOM     14  C   UNL     1       6.501   5.359  16.788  0.00  0.00    +0.000 C 
ATOM     15  C   UNL     1       5.357   6.316  16.440  0.00  0.00    +0.000 C 
ATOM     16  H   UNL     1       3.391   5.270  20.441  0.00  0.00    +0.000 HD
ENDBRANCH   2   5
BRANCH   1  21
ATOM     17  C   UNL     1      -2.156  11.493  18.980  0.00  0.00    +0.000 A 
ATOM     18  C   UNL     1      -1.888  12.476  19.943  0.00  0.00    +0.000 A 
ATOM     19  C   UNL     1      -0.732  12.400  20.712  0.00  0.00    +0.000 A 
ATOM     20  C   UNL     1       0.162  11.345  20.532  0.00  0.00    +0.000 A 
ATOM     21  C   UNL     1      -0.080  10.358  19.577  0.00  0.00    +0.000 A 
ATOM     22  C   UNL     1      -1.240  10.442  18.787  0.00  0.00    +0.000 A 
BRANCH  17  27
ATOM     23  C   UNL     1      -6.895  12.113  18.244  0.00  0.00    +0.000 C 
ATOM     24  C   UNL     1      -5.478  11.819  17.917  0.00  0.00    +0.000 A 
ATOM     25  C   UNL     1      -4.930  11.455  16.673  0.00  0.00    +0.000 A 
ATOM     26  C   UNL     1      -3.582  11.318  16.907  0.00  0.00    +0.000 A 
ATOM     27  N   UNL     1      -3.374  11.569  18.245  0.00  0.00    +0.000 N 
ATOM     28  N   UNL     1      -4.540  11.897  18.865  0.00  0.00    +0.000 NA
ENDBRANCH  17  27
ENDBRANCH   1  21
TORSDOF 3
ENDMDL
MODEL 7
REMARK VINA RESULT:      -8.0      0.850      1.300
REMARK  Name = 
REMARK  4 active torsions:
REMARK  status: ('A' for Active; 'I' for Inactive)
REMARK    1  A    between atoms: C_1  and  C_2
REMARK    2  A    between atoms: N_5  and  C_6
REMARK    3  A    between atoms: C_10  and  N_11
REMARK    4  A    between atoms: C_12  and  C_14
REMARK                            x       y       z     vdW  Elec       q    Type
REMARK                         _______ _______ _______ _____ _____    ______ ____
ROOT
ATOM      1  N   UNL     1       3.919   7.042  18.532  0.00  0.00    +0.000 N 
ATOM      2  C   UNL     1       2.682   6.744  19.071  0.00  0.00    +0.000 C 
ATOM      3  O   UNL     1       2.248   5.613  19.289  0.00  0.00    +0.000 OA
ATOM      4  H   UNL     1       4.129   8.033  18.396  0.00  0.00    +0.000 HD
ENDROOT
BRANCH   2   5
ATOM      5  C   UNL     1       1.838   7.929  19.423  0.00  0.00    +0.000 A 
ATOM      6  C   UNL     1       1.272   7.966  20.647  0.00  0.00    +0.000 A 
ATOM      7  C   UNL     1       0.509   9.110  21.110  0.00  0.00    +0.000 A 
ATOM      8  C   UNL     1       0.363  10.172  20.300  0.00  0.00    +0.000 A 
ATOM      9  N   UNL     1       0.909  10.148  19.038  0.00  0.00    +0.000 N 
ATOM     10  C   UNL     1       1.624   9.093  18.520  0.00  0.00    +0.000 A 
ATOM     11  O   UNL     1       2.066   9.118  17.373  0.00  0.00    +0.000 OA
ATOM     12  C   UNL     1      -0.388  11.414  20.698  0.00  0.00    +0.000 C 
ATOM     13  C   UNL     1      -1.258  11.205  21.938  0.00  0.00    +0.000 C 
ATOM     14  C   UNL     1      -0.496  10.438  23.016  0.00  0.00    +0.000 C 
ATOM     15  C   UNL     1      -0.058   9.061  22.508  0.00  0.00    +0.000 C 
ATOM     16  H   UNL     1       0.790  10.942  18.420  0.00  0.00    +0.000 HD
ENDBRANCH   2   5
BRANCH   1  21
ATOM     17  C   UNL     1       6.213   4.989  16.456  0.00  0.00    +0.000 A 
ATOM     18  C   UNL     1       7.024   4.398  17.436  0.00  0.00    +0.000 A 
ATOM     19  C   UNL     1       6.801   4.671  18.782  0.00  0.00    +0.000 A 
ATOM     20  C   UNL     1       5.775   5.536  19.161  0.00  0.00    +0.000 A 
ATOM     21  C   UNL     1       4.952   6.132  18.205  0.00  0.00    +0.000 A 
ATOM     22  C   UNL     1       5.166   5.844  16.845  0.00  0.00    +0.000 A 
BRANCH  17  27
ATOM     23  C   UNL     1       8.256   5.645  12.123  0.00  0.00    +0.000 C 
ATOM     24  C   UNL     1       7.385   5.032  13.156  0.00  0.00    +0.000 A 
ATOM     25  C   UNL     1       6.489   3.955  13.011  0.00  0.00    +0.000 A 
ATOM     26  C   UNL     1       5.951   3.773  14.262  0.00  0.00    +0.000 A 
ATOM     27  N   UNL     1       6.501   4.731  15.086  0.00  0.00    +0.000 N 
ATOM     28  N   UNL     1       7.400   5.495  14.407  0.00  0.00    +0.000 NA
ENDBRANCH  17  27
ENDBRANCH   1  21
TORSDOF 3
ENDMDL
MODEL 8
REMARK VINA RESULT:      -8.0      2.909      9.319
REMARK  Name = 
REMARK  4 active torsions:
REMARK  status: ('A' for Active; 'I' for Inactive)
REMARK    1  A    between atoms: C_1  and  C_2
REMARK    2  A    between atoms: N_5  and  C_6
REMARK    3  A    between atoms: C_10  and  N_11
REMARK    4  A    between atoms: C_12  and  C_14
REMARK                            x       y       z     vdW  Elec       q    Type
REMARK                         _______ _______ _______ _____ _____    ______ ____
ROOT
ATOM      1  N   UNL     1       1.476   9.175  18.482  0.00  0.00    +0.000 N 
ATOM      2  C   UNL     1       1.865   8.228  19.411  0.00  0.00    +0.000 C 
ATOM      3  O   UNL     1       1.660   8.286  20.624  0.00  0.00    +0.000 OA
ATOM      4  H   UNL     1       1.735   8.992  17.511  0.00  0.00    +0.000 HD
ENDROOT
BRANCH   2   5
ATOM      5  C   UNL     1       2.576   7.038  18.848  0.00  0.00    +0.000 A 
ATOM      6  C   UNL     1       3.383   7.224  17.784  0.00  0.00    +0.000 A 
ATOM      7  C   UNL     1       4.181   6.149  17.222  0.00  0.00    +0.000 A 
ATOM      8  C   UNL     1       4.121   4.928  17.780  0.00  0.00    +0.000 A 
ATOM      9  N   UNL     1       3.286   4.707  18.850  0.00  0.00    +0.000 N 
ATOM     10  C   UNL     1       2.484   5.667  19.422  0.00  0.00    +0.000 A 
ATOM     11  O   UNL     1       1.737   5.404  20.362  0.00  0.00    +0.000 OA
ATOM     12  C   UNL     1       4.926   3.757  17.286  0.00  0.00    +0.000 C 
ATOM     13  C   UNL     1       5.521   3.994  15.897  0.00  0.00    +0.000 C 
ATOM     14  C   UNL     1       6.128   5.390  15.795  0.00  0.00    +0.000 C 
ATOM     15  C   UNL     1       5.073   6.471  16.049  0.00  0.00    +0.000 C 
ATOM     16  H   UNL     1       3.229   3.784  19.266  0.00  0.00    +0.000 HD
ENDBRANCH   2   5
BRANCH   1  21
ATOM     17  C   UNL     1      -1.440  11.473  18.474  0.00  0.00    +0.000 A 
ATOM     18  C   UNL     1      -0.937  12.566  19.194  0.00  0.00    +0.000 A 
ATOM     19  C   UNL     1       0.370  12.545  19.669  0.00  0.00    +0.000 A 
ATOM     20  C   UNL     1       1.182  11.436  19.436  0.00  0.00    +0.000 A 
ATOM     21  C   UNL     1       0.707  10.339  18.718  0.00  0.00    +0.000 A 
ATOM     22  C   UNL     1      -0.609  10.366  18.223  0.00  0.00    +0.000 A 
BRANCH  17  27
ATOM     23  C   UNL     1      -6.232  11.994  18.860  0.00  0.00    +0.000 C 
ATOM     24  C   UNL     1      -4.926  11.709  18.217  0.00  0.00    +0.000 A 
ATOM     25  C   UNL     1      -4.679  11.305  16.892  0.00  0.00    +0.000 A 
ATOM     26  C   UNL     1      -3.311  11.197  16.805  0.00  0.00    +0.000 A 
ATOM     27  N   UNL     1      -2.798  11.503  18.046  0.00  0.00    +0.000 N 
ATOM     28  N   UNL     1      -3.793  11.838  18.913  0.00  0.00    +0.000 NA
ENDBRANCH  17  27
ENDBRANCH   1  21
TORSDOF 3
ENDMDL
MODEL 9
REMARK VINA RESULT:      -8.0      3.895      9.272
REMARK  Name = 
REMARK  4 active torsions:
REMARK  status: ('A' for Active; 'I' for Inactive)
REMARK    1  A    between atoms: C_1  and  C_2
REMARK    2  A    between atoms: N_5  and  C_6
REMARK    3  A    between atoms: C_10  and  N_11
REMARK    4  A    between atoms: C_12  and  C_14
REMARK                            x       y       z     vdW  Elec       q    Type
REMARK                         _______ _______ _______ _____ _____    ______ ____
ROOT
ATOM      1  N   UNL     1       1.208   9.459  18.852  0.00  0.00    +0.000 N 
ATOM      2  C   UNL     1       1.494   8.670  19.950  0.00  0.00    +0.000 C 
ATOM      3  O   UNL     1       1.308   8.983  21.126  0.00  0.00    +0.000 OA
ATOM      4  H   UNL     1       1.435   9.065  17.938  0.00  0.00    +0.000 HD
ENDROOT
BRANCH   2   5
ATOM      5  C   UNL     1       2.060   7.321  19.635  0.00  0.00    +0.000 A 
ATOM      6  C   UNL     1       1.787   6.304  20.479  0.00  0.00    +0.000 A 
ATOM      7  C   UNL     1       2.218   4.944  20.213  0.00  0.00    +0.000 A 
ATOM      8  C   UNL     1       2.906   4.682  19.089  0.00  0.00    +0.000 A 
ATOM      9  N   UNL     1       3.219   5.706  18.226  0.00  0.00    +0.000 N 
ATOM     10  C   UNL     1       2.866   7.021  18.420  0.00  0.00    +0.000 A 
ATOM     11  O   UNL     1       3.197   7.900  17.626  0.00  0.00    +0.000 OA
ATOM     12  C   UNL     1       3.375   3.303  18.714  0.00  0.00    +0.000 C 
ATOM     13  C   UNL     1       3.315   2.320  19.884  0.00  0.00    +0.000 C 
ATOM     14  C   UNL     1       2.001   2.460  20.647  0.00  0.00    +0.000 C 
ATOM     15  C   UNL     1       1.836   3.876  21.208  0.00  0.00    +0.000 C 
ATOM     16  H   UNL     1       3.749   5.515  17.384  0.00  0.00    +0.000 HD
ENDBRANCH   2   5
BRANCH   1  21
ATOM     17  C   UNL     1      -1.499  11.995  19.025  0.00  0.00    +0.000 A 
ATOM     18  C   UNL     1      -0.769  13.190  18.935  0.00  0.00    +0.000 A 
ATOM     19  C   UNL     1       0.615  13.152  18.803  0.00  0.00    +0.000 A 
ATOM     20  C   UNL     1       1.282  11.928  18.766  0.00  0.00    +0.000 A 
ATOM     21  C   UNL     1       0.579  10.726  18.850  0.00  0.00    +0.000 A 
ATOM     22  C   UNL     1      -0.822  10.763  18.966  0.00  0.00    +0.000 A 
BRANCH  17  27
ATOM     23  C   UNL     1      -6.177  11.296  18.024  0.00  0.00    +0.000 C 
ATOM     24  C   UNL     1      -4.985  11.782  18.761  0.00  0.00    +0.000 A 
ATOM     25  C   UNL     1      -4.945  12.564  19.931  0.00  0.00    +0.000 A 
ATOM     26  C   UNL     1      -3.607  12.717  20.207  0.00  0.00    +0.000 A 
ATOM     27  N   UNL     1      -2.909  12.068  19.213  0.00  0.00    +0.000 N 
ATOM     28  N   UNL     1      -3.759  11.474  18.331  0.00  0.00    +0.000 NA
ENDBRANCH  17  27
ENDBRANCH   1  21
TORSDOF 3
ENDMDL
