MODEL 1
REMARK VINA RESULT:      -8.5      0.000      0.000
REMARK  Name = 
REMARK  3 active torsions:
REMARK  status: ('A' for Active; 'I' for Inactive)
REMARK    1  A    between atoms: C_2  and  C_13
REMARK    2  A    between atoms: N_3  and  C_4
REMARK    3  A    between atoms: C_15  and  C_16
REMARK                            x       y       z     vdW  Elec       q    Type
REMARK                         _______ _______ _______ _____ _____    ______ ____
ROOT
ATOM      1  C   UNL     1       7.163   7.430  17.733  0.00  0.00    +0.000 A 
ATOM      2  C   UNL     1       7.514   8.792  17.563  0.00  0.00    +0.000 A 
ATOM      3  C   UNL     1       8.554   9.022  18.429  0.00  0.00    +0.000 A 
ATOM      4  N   UNL     1       8.783   7.826  19.045  0.00  0.00    +0.000 N 
ATOM      5  N   UNL     1       7.942   6.840  18.666  0.00  0.00    +0.000 NA
ATOM      6  H   UNL     1       9.477   7.613  19.749  0.00  0.00    +0.000 HD
ENDROOT
BRANCH   3   7
ATOM      7  C   UNL     1       9.262  10.304  18.670  0.00  0.00    +0.000 A 
ATOM      8  C   UNL     1      10.003  10.950  17.703  0.00  0.00    +0.000 A 
ATOM      9  N   UNL     1      10.450  12.130  18.233  0.00  0.00    +0.000 N 
ATOM     10  C   UNL     1      10.046  12.246  19.542  0.00  0.00    +0.000 A 
ATOM     11  C   UNL     1      10.280  13.276  20.462  0.00  0.00    +0.000 A 
ATOM     12  C   UNL     1       9.767  13.124  21.753  0.00  0.00    +0.000 A 
ATOM     13  C   UNL     1       9.048  11.988  22.106  0.00  0.00    +0.000 A 
ATOM     14  C   UNL     1       8.811  10.975  21.171  0.00  0.00    +0.000 A 
ATOM     15  C   UNL     1       9.311  11.098  19.855  0.00  0.00    +0.000 A 
ATOM     16  H   UNL     1      11.000  12.819  17.738  0.00  0.00    +0.000 HD
ENDBRANCH   3   7
BRANCH   1  18
ATOM     17  O   UNL     1       6.076   6.610  15.793  0.00  0.00    +0.000 OA
ATOM     18  C   UNL     1       6.098   6.712  17.016  0.00  0.00    +0.000 C 
ATOM     19  N   UNL     1       5.144   6.180  17.844  0.00  0.00    +0.000 N 
ATOM     20  H   UNL     1       5.229   6.467  18.815  0.00  0.00    +0.000 HD
BRANCH  19  21
ATOM     21  C   UNL     1       3.960   5.471  17.367  0.00  0.00    +0.000 C 
ATOM     22  C   UNL     1       2.663   6.144  17.845  0.00  0.00    +0.000 C 
ATOM     23  C   UNL     1       2.428   5.948  19.349  0.00  0.00    +0.000 C 
ATOM     24  N   UNL     1       2.506   4.529  19.684  0.00  0.00    +0.000 NA
ATOM     25  C   UNL     1       2.330   4.224  21.100  0.00  0.00    +0.000 C 
ATOM     26  C   UNL     1       2.965   2.839  21.255  0.00  0.00    +0.000 C 
ATOM     27  C   UNL     1       3.674   2.559  19.928  0.00  0.00    +0.000 C 
ATOM     28  C   UNL     1       3.796   3.941  19.321  0.00  0.00    +0.000 C 
ATOM     29  C   UNL     1       3.994   4.004  17.814  0.00  0.00    +0.000 C 
ENDBRANCH  19  21
ENDBRANCH   1  18
TORSDOF 3
ENDMDL
MODEL 2
REMARK VINA RESULT:      -8.3      1.584      2.465
REMARK  Name = 
REMARK  3 active torsions:
REMARK  status: ('A' for Active; 'I' for Inactive)
REMARK    1  A    between atoms: C_2  and  C_13
REMARK    2  A    between atoms: N_3  and  C_4
REMARK    3  A    between atoms: C_15  and  C_16
REMARK                            x       y       z     vdW  Elec       q    Type
REMARK                         _______ _______ _______ _____ _____    ______ ____
ROOT
ATOM      1  C   UNL     1       7.645   7.231  17.848  0.00  0.00    +0.000 A 
ATOM      2  C   UNL     1       8.471   7.798  18.849  0.00  0.00    +0.000 A 
ATOM      3  C   UNL     1       8.481   9.150  18.606  0.00  0.00    +0.000 A 
ATOM      4  N   UNL     1       7.675   9.326  17.519  0.00  0.00    +0.000 N 
ATOM      5  N   UNL     1       7.168   8.182  17.015  0.00  0.00    +0.000 NA
ATOM      6  H   UNL     1       7.444  10.194  17.052  0.00  0.00    +0.000 HD
ENDROOT
BRANCH   3   7
ATOM      7  C   UNL     1       9.231  10.195  19.346  0.00  0.00    +0.000 A 
ATOM      8  C   UNL     1       9.098  10.402  20.703  0.00  0.00    +0.000 A 
ATOM      9  N   UNL     1       9.981  11.380  21.069  0.00  0.00    +0.000 N 
ATOM     10  C   UNL     1      10.660  11.844  19.966  0.00  0.00    +0.000 A 
ATOM     11  C   UNL     1      11.643  12.838  19.874  0.00  0.00    +0.000 A 
ATOM     12  C   UNL     1      12.154  13.131  18.608  0.00  0.00    +0.000 A 
ATOM     13  C   UNL     1      11.700  12.455  17.481  0.00  0.00    +0.000 A 
ATOM     14  C   UNL     1      10.728  11.456  17.592  0.00  0.00    +0.000 A 
ATOM     15  C   UNL     1      10.193  11.130  18.858  0.00  0.00    +0.000 A 
ATOM     16  H   UNL     1      10.117  11.718  22.011  0.00  0.00    +0.000 HD
ENDBRANCH   3   7
BRANCH   1  18
ATOM     17  O   UNL     1       8.034   5.031  17.056  0.00  0.00    +0.000 OA
ATOM     18  C   UNL     1       7.324   5.804  17.693  0.00  0.00    +0.000 C 
ATOM     19  N   UNL     1       6.164   5.433  18.322  0.00  0.00    +0.000 N 
ATOM     20  H   UNL     1       5.622   6.211  18.688  0.00  0.00    +0.000 HD
BRANCH  19  21
ATOM     21  C   UNL     1       5.607   4.084  18.266  0.00  0.00    +0.000 C 
ATOM     22  C   UNL     1       4.639   3.918  17.083  0.00  0.00    +0.000 C 
ATOM     23  C   UNL     1       3.321   4.676  17.301  0.00  0.00    +0.000 C 
ATOM     24  N   UNL     1       2.740   4.304  18.587  0.00  0.00    +0.000 NA
ATOM     25  C   UNL     1       1.495   4.990  18.918  0.00  0.00    +0.000 C 
ATOM     26  C   UNL     1       1.398   4.852  20.440  0.00  0.00    +0.000 C 
ATOM     27  C   UNL     1       2.744   4.283  20.891  0.00  0.00    +0.000 C 
ATOM     28  C   UNL     1       3.641   4.580  19.707  0.00  0.00    +0.000 C 
ATOM     29  C   UNL     1       4.902   3.738  19.584  0.00  0.00    +0.000 C 
ENDBRANCH  19  21
ENDBRANCH   1  18
TORSDOF 3
ENDMDL
MODEL 3
REMARK VINA RESULT:      -8.2      1.574      1.887
REMARK  Name = 
REMARK  3 active torsions:
REMARK  status: ('A' for Active; 'I' for Inactive)
REMARK    1  A    between atoms: C_2  and  C_13
REMARK    2  A    between atoms: N_3  and  C_4
REMARK    3  A    between atoms: C_15  and  C_16
REMARK                            x       y       z     vdW  Elec       q    Type
REMARK                         _______ _______ _______ _____ _____    ______ ____
ROOT
ATOM      1  C   UNL     1       7.877   7.568  17.860  0.00  0.00    +0.000 A 
ATOM      2  C   UNL     1       7.946   8.875  17.318  0.00  0.00    +0.000 A 
ATOM      3  C   UNL     1       8.647   9.623  18.233  0.00  0.00    +0.000 A 
ATOM      4  N   UNL     1       8.969   8.757  19.236  0.00  0.00    +0.000 N 
ATOM      5  N   UNL     1       8.498   7.504  19.058  0.00  0.00    +0.000 NA
ATOM      6  H   UNL     1       9.487   8.953  20.083  0.00  0.00    +0.000 HD
ENDROOT
BRANCH   3   7
ATOM      7  C   UNL     1       8.962  11.072  18.162  0.00  0.00    +0.000 A 
ATOM      8  C   UNL     1       8.146  11.992  17.538  0.00  0.00    +0.000 A 
ATOM      9  N   UNL     1       8.691  13.233  17.724  0.00  0.00    +0.000 N 
ATOM     10  C   UNL     1       9.871  13.134  18.423  0.00  0.00    +0.000 A 
ATOM     11  C   UNL     1      10.758  14.139  18.828  0.00  0.00    +0.000 A 
ATOM     12  C   UNL     1      11.911  13.752  19.515  0.00  0.00    +0.000 A 
ATOM     13  C   UNL     1      12.163  12.412  19.787  0.00  0.00    +0.000 A 
ATOM     14  C   UNL     1      11.260  11.422  19.389  0.00  0.00    +0.000 A 
ATOM     15  C   UNL     1      10.081  11.779  18.696  0.00  0.00    +0.000 A 
ATOM     16  H   UNL     1       8.290  14.100  17.394  0.00  0.00    +0.000 HD
ENDBRANCH   3   7
BRANCH   1  18
ATOM     17  O   UNL     1       7.430   6.072  16.076  0.00  0.00    +0.000 OA
ATOM     18  C   UNL     1       7.225   6.405  17.240  0.00  0.00    +0.000 C 
ATOM     19  N   UNL     1       6.371   5.742  18.084  0.00  0.00    +0.000 N 
ATOM     20  H   UNL     1       6.205   6.220  18.966  0.00  0.00    +0.000 HD
BRANCH  19  21
ATOM     21  C   UNL     1       5.566   4.592  17.683  0.00  0.00    +0.000 C 
ATOM     22  C   UNL     1       4.406   5.004  16.761  0.00  0.00    +0.000 C 
ATOM     23  C   UNL     1       3.310   5.770  17.514  0.00  0.00    +0.000 C 
ATOM     24  N   UNL     1       2.883   5.008  18.683  0.00  0.00    +0.000 NA
ATOM     25  C   UNL     1       1.861   5.657  19.498  0.00  0.00    +0.000 C 
ATOM     26  C   UNL     1       1.985   4.962  20.857  0.00  0.00    +0.000 C 
ATOM     27  C   UNL     1       3.253   4.111  20.773  0.00  0.00    +0.000 C 
ATOM     28  C   UNL     1       3.988   4.729  19.601  0.00  0.00    +0.000 C 
ATOM     29  C   UNL     1       5.029   3.855  18.917  0.00  0.00    +0.000 C 
ENDBRANCH  19  21
ENDBRANCH   1  18
TORSDOF 3
ENDMDL
MODEL 4
REMARK VINA RESULT:      -8.1      5.400      7.235
REMARK  Name = 
REMARK  3 active torsions:
REMARK  status: ('A' for Active; 'I' for Inactive)
REMARK    1  A    between atoms: C_2  and  C_13
REMARK    2  A    between atoms: N_3  and  C_4
REMARK    3  A    between atoms: C_15  and  C_16
REMARK                            x       y       z     vdW  Elec       q    Type
REMARK                         _______ _______ _______ _____ _____    ______ ____
ROOT
ATOM      1  C   UNL     1       1.946   8.391  18.714  0.00  0.00    +0.000 A 
ATOM      2  C   UNL     1       1.050   9.288  19.347  0.00  0.00    +0.000 A 
ATOM      3  C   UNL     1       0.996  10.396  18.538  0.00  0.00    +0.000 A 
ATOM      4  N   UNL     1       1.819  10.116  17.486  0.00  0.00    +0.000 N 
ATOM      5  N   UNL     1       2.434   8.918  17.569  0.00  0.00    +0.000 NA
ATOM      6  H   UNL     1       2.029  10.703  16.689  0.00  0.00    +0.000 HD
ENDROOT
BRANCH   3   7
ATOM      7  C   UNL     1       0.231  11.646  18.770  0.00  0.00    +0.000 A 
ATOM      8  C   UNL     1      -1.121  11.664  19.041  0.00  0.00    +0.000 A 
ATOM      9  N   UNL     1      -1.488  12.962  19.276  0.00  0.00    +0.000 N 
ATOM     10  C   UNL     1      -0.405  13.796  19.122  0.00  0.00    +0.000 A 
ATOM     11  C   UNL     1      -0.322  15.187  19.258  0.00  0.00    +0.000 A 
ATOM     12  C   UNL     1       0.915  15.792  19.018  0.00  0.00    +0.000 A 
ATOM     13  C   UNL     1       2.023  15.032  18.659  0.00  0.00    +0.000 A 
ATOM     14  C   UNL     1       1.926  13.642  18.541  0.00  0.00    +0.000 A 
ATOM     15  C   UNL     1       0.692  12.998  18.781  0.00  0.00    +0.000 A 
ATOM     16  H   UNL     1      -2.418  13.268  19.523  0.00  0.00    +0.000 HD
ENDBRANCH   3   7
BRANCH   1  18
ATOM     17  O   UNL     1       1.994   6.635  20.305  0.00  0.00    +0.000 OA
ATOM     18  C   UNL     1       2.328   7.057  19.202  0.00  0.00    +0.000 C 
ATOM     19  N   UNL     1       3.090   6.347  18.311  0.00  0.00    +0.000 N 
ATOM     20  H   UNL     1       3.396   6.884  17.505  0.00  0.00    +0.000 HD
BRANCH  19  21
ATOM     21  C   UNL     1       3.637   5.022  18.589  0.00  0.00    +0.000 C 
ATOM     22  C   UNL     1       4.968   5.106  19.355  0.00  0.00    +0.000 C 
ATOM     23  C   UNL     1       6.114   5.621  18.472  0.00  0.00    +0.000 C 
ATOM     24  N   UNL     1       6.194   4.829  17.249  0.00  0.00    +0.000 NA
ATOM     25  C   UNL     1       7.232   5.251  16.314  0.00  0.00    +0.000 C 
ATOM     26  C   UNL     1       6.774   4.664  14.974  0.00  0.00    +0.000 C 
ATOM     27  C   UNL     1       5.359   4.136  15.216  0.00  0.00    +0.000 C 
ATOM     28  C   UNL     1       4.948   4.861  16.481  0.00  0.00    +0.000 C 
ATOM     29  C   UNL     1       3.822   4.231  17.287  0.00  0.00    +0.000 C 
ENDBRANCH  19  21
ENDBRANCH   1  18
TORSDOF 3
ENDMDL
MODEL 5
REMARK VINA RESULT:      -8.1      4.969      7.502
REMARK  Name = 
REMARK  3 active torsions:
REMARK  status: ('A' for Active; 'I' for Inactive)
REMARK    1  A    between atoms: C_2  and  C_13
REMARK    2  A    between atoms: N_3  and  C_4
REMARK    3  A    between atoms: C_15  and  C_16
REMARK                            x       y       z     vdW  Elec       q    Type
REMARK                         _______ _______ _______ _____ _____    ______ ____
ROOT
ATOM      1  C   UNL     1       2.515   7.447  18.599  0.00  0.00    +0.000 A 
ATOM      2  C   UNL     1       1.730   8.139  19.554  0.00  0.00    +0.000 A 
ATOM      3  C   UNL     1       1.363   9.319  18.954  0.00  0.00    +0.000 A 
ATOM      4  N   UNL     1       1.911   9.273  17.705  0.00  0.00    +0.000 N 
ATOM      5  N   UNL     1       2.639   8.163  17.460  0.00  0.00    +0.000 NA
ATOM      6  H   UNL     1       1.851   9.971  16.975  0.00  0.00    +0.000 HD
ENDROOT
BRANCH   3   7
ATOM      7  C   UNL     1       0.568  10.423  19.545  0.00  0.00    +0.000 A 
ATOM      8  C   UNL     1       0.261  11.581  18.863  0.00  0.00    +0.000 A 
ATOM      9  N   UNL     1      -0.542  12.344  19.667  0.00  0.00    +0.000 N 
ATOM     10  C   UNL     1      -0.730  11.721  20.879  0.00  0.00    +0.000 A 
ATOM     11  C   UNL     1      -1.467  12.139  21.994  0.00  0.00    +0.000 A 
ATOM     12  C   UNL     1      -1.469  11.311  23.120  0.00  0.00    +0.000 A 
ATOM     13  C   UNL     1      -0.763  10.114  23.126  0.00  0.00    +0.000 A 
ATOM     14  C   UNL     1      -0.043   9.704  21.998  0.00  0.00    +0.000 A 
ATOM     15  C   UNL     1      -0.024  10.515  20.841  0.00  0.00    +0.000 A 
ATOM     16  H   UNL     1      -0.939  13.238  19.413  0.00  0.00    +0.000 HD
ENDBRANCH   3   7
BRANCH   1  18
ATOM     17  O   UNL     1       2.570   5.201  19.356  0.00  0.00    +0.000 OA
ATOM     18  C   UNL     1       3.136   6.126  18.780  0.00  0.00    +0.000 C 
ATOM     19  N   UNL     1       4.396   6.037  18.248  0.00  0.00    +0.000 N 
ATOM     20  H   UNL     1       4.776   6.924  17.928  0.00  0.00    +0.000 HD
BRANCH  19  21
ATOM     21  C   UNL     1       5.236   4.847  18.349  0.00  0.00    +0.000 C 
ATOM     22  C   UNL     1       6.727   5.211  18.450  0.00  0.00    +0.000 C 
ATOM     23  C   UNL     1       7.285   5.745  17.122  0.00  0.00    +0.000 C 
ATOM     24  N   UNL     1       6.985   4.808  16.044  0.00  0.00    +0.000 NA
ATOM     25  C   UNL     1       7.441   5.229  14.723  0.00  0.00    +0.000 C 
ATOM     26  C   UNL     1       6.577   4.406  13.762  0.00  0.00    +0.000 C 
ATOM     27  C   UNL     1       5.513   3.735  14.633  0.00  0.00    +0.000 C 
ATOM     28  C   UNL     1       5.548   4.569  15.897  0.00  0.00    +0.000 C 
ATOM     29  C   UNL     1       4.996   3.915  17.155  0.00  0.00    +0.000 C 
ENDBRANCH  19  21
ENDBRANCH   1  18
TORSDOF 3
ENDMDL
MODEL 6
REMARK VINA RESULT:      -8.1      5.205      8.012
REMARK  Name = 
REMARK  3 active torsions:
REMARK  status: ('A' for Active; 'I' for Inactive)
REMARK    1  A    between atoms: C_2  and  C_13
REMARK    2  A    between atoms: N_3  and  C_4
REMARK    3  A    between atoms: C_15  and  C_16
REMARK                            x       y       z     vdW  Elec       q    Type
REMARK                         _______ _______ _______ _____ _____    ______ ____
ROOT
ATOM      1  C   UNL     1       2.682   7.299  18.760  0.00  0.00    +0.000 A 
ATOM      2  C   UNL     1       1.752   7.932  19.621  0.00  0.00    +0.000 A 
ATOM      3  C   UNL     1       1.385   9.094  18.987  0.00  0.00    +0.000 A 
ATOM      4  N   UNL     1       2.074   9.096  17.810  0.00  0.00    +0.000 N 
ATOM      5  N   UNL     1       2.892   8.034  17.646  0.00  0.00    +0.000 NA
ATOM      6  H   UNL     1       2.056   9.798  17.081  0.00  0.00    +0.000 HD
ENDROOT
BRANCH   3   7
ATOM      7  C   UNL     1       0.460  10.142  19.488  0.00  0.00    +0.000 A 
ATOM      8  C   UNL     1       0.762  10.972  20.546  0.00  0.00    +0.000 A 
ATOM      9  N   UNL     1      -0.268  11.861  20.692  0.00  0.00    +0.000 N 
ATOM     10  C   UNL     1      -1.256  11.598  19.772  0.00  0.00    +0.000 A 
ATOM     11  C   UNL     1      -2.480  12.246  19.565  0.00  0.00    +0.000 A 
ATOM     12  C   UNL     1      -3.317  11.750  18.562  0.00  0.00    +0.000 A 
ATOM     13  C   UNL     1      -2.941  10.652  17.797  0.00  0.00    +0.000 A 
ATOM     14  C   UNL     1      -1.709  10.025  18.007  0.00  0.00    +0.000 A 
ATOM     15  C   UNL     1      -0.836  10.504  19.010  0.00  0.00    +0.000 A 
ATOM     16  H   UNL     1      -0.304  12.603  21.377  0.00  0.00    +0.000 HD
ENDBRANCH   3   7
BRANCH   1  18
ATOM     17  O   UNL     1       3.225   5.387  20.051  0.00  0.00    +0.000 OA
ATOM     18  C   UNL     1       3.358   6.016  19.005  0.00  0.00    +0.000 C 
ATOM     19  N   UNL     1       4.144   5.604  17.961  0.00  0.00    +0.000 N 
ATOM     20  H   UNL     1       4.258   6.298  17.227  0.00  0.00    +0.000 HD
BRANCH  19  21
ATOM     21  C   UNL     1       4.958   4.392  17.988  0.00  0.00    +0.000 C 
ATOM     22  C   UNL     1       6.443   4.710  18.229  0.00  0.00    +0.000 C 
ATOM     23  C   UNL     1       7.100   5.372  17.010  0.00  0.00    +0.000 C 
ATOM     24  N   UNL     1       6.863   4.565  15.817  0.00  0.00    +0.000 NA
ATOM     25  C   UNL     1       7.417   5.116  14.585  0.00  0.00    +0.000 C 
ATOM     26  C   UNL     1       6.611   4.422  13.482  0.00  0.00    +0.000 C 
ATOM     27  C   UNL     1       5.479   3.684  14.200  0.00  0.00    +0.000 C 
ATOM     28  C   UNL     1       5.437   4.374  15.547  0.00  0.00    +0.000 C 
ATOM     29  C   UNL     1       4.789   3.600  16.685  0.00  0.00    +0.000 C 
ENDBRANCH  19  21
ENDBRANCH   1  18
TORSDOF 3
ENDMDL
MODEL 7
REMARK VINA RESULT:      -8.0      5.398      8.295
REMARK  Name = 
REMARK  3 active torsions:
REMARK  status: ('A' for Active; 'I' for Inactive)
REMARK    1  A    between atoms: C_2  and  C_13
REMARK    2  A    between atoms: N_3  and  C_4
REMARK    3  A    between atoms: C_15  and  C_16
REMARK                            x       y       z     vdW  Elec       q    Type
REMARK                         _______ _______ _______ _____ _____    ______ ____
ROOT
ATOM      1  C   UNL     1       2.338   8.916  17.717  0.00  0.00    +0.000 A 
ATOM      2  C   UNL     1       0.947   8.882  17.979  0.00  0.00    +0.000 A 
ATOM      3  C   UNL     1       0.565  10.191  18.149  0.00  0.00    +0.000 A 
ATOM      4  N   UNL     1       1.702  10.924  17.970  0.00  0.00    +0.000 N 
ATOM      5  N   UNL     1       2.805  10.184  17.730  0.00  0.00    +0.000 NA
ATOM      6  H   UNL     1       1.806  11.929  18.020  0.00  0.00    +0.000 HD
ENDROOT
BRANCH   3   7
ATOM      7  C   UNL     1      -0.787  10.699  18.485  0.00  0.00    +0.000 A 
ATOM      8  C   UNL     1      -1.100  11.264  19.704  0.00  0.00    +0.000 A 
ATOM      9  N   UNL     1      -2.399  11.691  19.651  0.00  0.00    +0.000 N 
ATOM     10  C   UNL     1      -2.952  11.377  18.431  0.00  0.00    +0.000 A 
ATOM     11  C   UNL     1      -4.245  11.616  17.948  0.00  0.00    +0.000 A 
ATOM     12  C   UNL     1      -4.552  11.164  16.662  0.00  0.00    +0.000 A 
ATOM     13  C   UNL     1      -3.603  10.500  15.893  0.00  0.00    +0.000 A 
ATOM     14  C   UNL     1      -2.313  10.281  16.386  0.00  0.00    +0.000 A 
ATOM     15  C   UNL     1      -1.966  10.730  17.680  0.00  0.00    +0.000 A 
ATOM     16  H   UNL     1      -2.886  12.166  20.397  0.00  0.00    +0.000 HD
ENDBRANCH   3   7
BRANCH   1  18
ATOM     17  O   UNL     1       3.962   7.691  16.500  0.00  0.00    +0.000 OA
ATOM     18  C   UNL     1       3.203   7.753  17.463  0.00  0.00    +0.000 C 
ATOM     19  N   UNL     1       3.071   6.760  18.397  0.00  0.00    +0.000 N 
ATOM     20  H   UNL     1       2.306   6.902  19.051  0.00  0.00    +0.000 HD
BRANCH  19  21
ATOM     21  C   UNL     1       3.781   5.485  18.331  0.00  0.00    +0.000 C 
ATOM     22  C   UNL     1       3.091   4.500  17.373  0.00  0.00    +0.000 C 
ATOM     23  C   UNL     1       1.767   3.968  17.942  0.00  0.00    +0.000 C 
ATOM     24  N   UNL     1       1.981   3.427  19.280  0.00  0.00    +0.000 NA
ATOM     25  C   UNL     1       0.780   2.921  19.935  0.00  0.00    +0.000 C 
ATOM     26  C   UNL     1       1.147   2.926  21.422  0.00  0.00    +0.000 C 
ATOM     27  C   UNL     1       2.481   3.671  21.516  0.00  0.00    +0.000 C 
ATOM     28  C   UNL     1       2.532   4.422  20.202  0.00  0.00    +0.000 C 
ATOM     29  C   UNL     1       3.909   4.867  19.730  0.00  0.00    +0.000 C 
ENDBRANCH  19  21
ENDBRANCH   1  18
TORSDOF 3
ENDMDL
MODEL 8
REMARK VINA RESULT:      -7.9      5.371      7.949
REMARK  Name = 
REMARK  3 active torsions:
REMARK  status: ('A' for Active; 'I' for Inactive)
REMARK    1  A    between atoms: C_2  and  C_13
REMARK    2  A    between atoms: N_3  and  C_4
REMARK    3  A    between atoms: C_15  and  C_16
REMARK                            x       y       z     vdW  Elec       q    Type
REMARK                         _______ _______ _______ _____ _____    ______ ____
ROOT
ATOM      1  C   UNL     1       1.931   6.893  20.102  0.00  0.00    +0.000 A 
ATOM      2  C   UNL     1       1.066   7.434  21.085  0.00  0.00    +0.000 A 
ATOM      3  C   UNL     1       0.841   8.736  20.711  0.00  0.00    +0.000 A 
ATOM      4  N   UNL     1       1.543   8.904  19.552  0.00  0.00    +0.000 N 
ATOM      5  N   UNL     1       2.238   7.815  19.163  0.00  0.00    +0.000 NA
ATOM      6  H   UNL     1       1.614   9.740  18.986  0.00  0.00    +0.000 HD
ENDROOT
BRANCH   3   7
ATOM      7  C   UNL     1       0.033   9.754  21.427  0.00  0.00    +0.000 A 
ATOM      8  C   UNL     1      -0.097   9.786  22.799  0.00  0.00    +0.000 A 
ATOM      9  N   UNL     1      -0.841  10.887  23.127  0.00  0.00    +0.000 N 
ATOM     10  C   UNL     1      -1.232  11.552  21.988  0.00  0.00    +0.000 A 
ATOM     11  C   UNL     1      -2.003  12.713  21.851  0.00  0.00    +0.000 A 
ATOM     12  C   UNL     1      -2.275  13.165  20.557  0.00  0.00    +0.000 A 
ATOM     13  C   UNL     1      -1.793  12.481  19.447  0.00  0.00    +0.000 A 
ATOM     14  C   UNL     1      -1.013  11.330  19.602  0.00  0.00    +0.000 A 
ATOM     15  C   UNL     1      -0.714  10.849  20.896  0.00  0.00    +0.000 A 
ATOM     16  H   UNL     1      -1.073  11.173  24.067  0.00  0.00    +0.000 HD
ENDBRANCH   3   7
BRANCH   1  18
ATOM     17  O   UNL     1       2.435   4.779  21.048  0.00  0.00    +0.000 OA
ATOM     18  C   UNL     1       2.455   5.519  20.069  0.00  0.00    +0.000 C 
ATOM     19  N   UNL     1       2.965   5.158  18.849  0.00  0.00    +0.000 N 
ATOM     20  H   UNL     1       3.034   5.923  18.184  0.00  0.00    +0.000 HD
BRANCH  19  21
ATOM     21  C   UNL     1       3.591   3.866  18.582  0.00  0.00    +0.000 C 
ATOM     22  C   UNL     1       4.949   3.736  19.292  0.00  0.00    +0.000 C 
ATOM     23  C   UNL     1       6.026   4.623  18.651  0.00  0.00    +0.000 C 
ATOM     24  N   UNL     1       6.092   4.368  17.216  0.00  0.00    +0.000 NA
ATOM     25  C   UNL     1       7.063   5.183  16.493  0.00  0.00    +0.000 C 
ATOM     26  C   UNL     1       6.576   5.126  15.042  0.00  0.00    +0.000 C 
ATOM     27  C   UNL     1       5.202   4.455  15.092  0.00  0.00    +0.000 C 
ATOM     28  C   UNL     1       4.812   4.611  16.547  0.00  0.00    +0.000 C 
ATOM     29  C   UNL     1       3.757   3.649  17.073  0.00  0.00    +0.000 C 
ENDBRANCH  19  21
ENDBRANCH   1  18
TORSDOF 3
ENDMDL
MODEL 9
REMARK VINA RESULT:      -7.7      5.694      9.400
REMARK  Name = 
REMARK  3 active torsions:
REMARK  status: ('A' for Active; 'I' for Inactive)
REMARK    1  A    between atoms: C_2  and  C_13
REMARK    2  A    between atoms: N_3  and  C_4
REMARK    3  A    between atoms: C_15  and  C_16
REMARK                            x       y       z     vdW  Elec       q    Type
REMARK                         _______ _______ _______ _____ _____    ______ ____
ROOT
ATOM      1  C   UNL     1       1.607   9.037  19.263  0.00  0.00    +0.000 A 
ATOM      2  C   UNL     1       2.325   8.002  18.616  0.00  0.00    +0.000 A 
ATOM      3  C   UNL     1       2.377   6.963  19.513  0.00  0.00    +0.000 A 
ATOM      4  N   UNL     1       1.696   7.402  20.612  0.00  0.00    +0.000 N 
ATOM      5  N   UNL     1       1.234   8.666  20.508  0.00  0.00    +0.000 NA
ATOM      6  H   UNL     1       1.528   6.905  21.477  0.00  0.00    +0.000 HD
ENDROOT
BRANCH   3   7
ATOM      7  C   UNL     1       3.053   5.654  19.341  0.00  0.00    +0.000 A 
ATOM      8  C   UNL     1       4.423   5.500  19.386  0.00  0.00    +0.000 A 
ATOM      9  N   UNL     1       4.702   4.165  19.267  0.00  0.00    +0.000 N 
ATOM     10  C   UNL     1       3.539   3.450  19.104  0.00  0.00    +0.000 A 
ATOM     11  C   UNL     1       3.353   2.072  18.939  0.00  0.00    +0.000 A 
ATOM     12  C   UNL     1       2.046   1.608  18.767  0.00  0.00    +0.000 A 
ATOM     13  C   UNL     1       0.971   2.489  18.762  0.00  0.00    +0.000 A 
ATOM     14  C   UNL     1       1.173   3.861  18.942  0.00  0.00    +0.000 A 
ATOM     15  C   UNL     1       2.480   4.364  19.124  0.00  0.00    +0.000 A 
ATOM     16  H   UNL     1       5.627   3.760  19.292  0.00  0.00    +0.000 HD
ENDBRANCH   3   7
BRANCH   1  18
ATOM     17  O   UNL     1       2.023  10.929  17.898  0.00  0.00    +0.000 OA
ATOM     18  C   UNL     1       1.288  10.357  18.698  0.00  0.00    +0.000 C 
ATOM     19  N   UNL     1       0.105  10.876  19.154  0.00  0.00    +0.000 N 
ATOM     20  H   UNL     1      -0.316  10.347  19.913  0.00  0.00    +0.000 HD
BRANCH  19  21
ATOM     21  C   UNL     1      -0.399  12.195  18.782  0.00  0.00    +0.000 C 
ATOM     22  C   UNL     1      -1.137  12.871  19.950  0.00  0.00    +0.000 C 
ATOM     23  C   UNL     1      -2.491  12.209  20.242  0.00  0.00    +0.000 C 
ATOM     24  N   UNL     1      -3.282  12.133  19.018  0.00  0.00    +0.000 NA
ATOM     25  C   UNL     1      -4.583  11.489  19.169  0.00  0.00    +0.000 C 
ATOM     26  C   UNL     1      -4.946  11.065  17.743  0.00  0.00    +0.000 C 
ATOM     27  C   UNL     1      -3.688  11.304  16.907  0.00  0.00    +0.000 C 
ATOM     28  C   UNL     1      -2.602  11.384  17.960  0.00  0.00    +0.000 C 
ATOM     29  C   UNL     1      -1.319  12.095  17.558  0.00  0.00    +0.000 C 
ENDBRANCH  19  21
ENDBRANCH   1  18
TORSDOF 3
ENDMDL
