MODEL 1
REMARK VINA RESULT:      -8.8      0.000      0.000
REMARK  Name = 
REMARK  5 active torsions:
REMARK  status: ('A' for Active; 'I' for Inactive)
REMARK    1  A    between atoms: C_2  and  O_3
REMARK    2  A    between atoms: C_2  and  C_4
REMARK    3  A    between atoms: C_8  and  C_9
REMARK    4  A    between atoms: C_9  and  N_10
REMARK    5  A    between atoms: C_13  and  C_14
REMARK                            x       y       z     vdW  Elec       q    Type
REMARK                         _______ _______ _______ _____ _____    ______ ____
ROOT
ATOM      1  C   UNL     1       1.843   7.146  19.950  0.00  0.00    +0.000 C 
ENDROOT
BRANCH   1   6
ATOM      2  C   UNL     1       5.951   5.245  15.880  0.00  0.00    +0.000 A 
ATOM      3  C   UNL     1       5.087   6.325  15.969  0.00  0.00    +0.000 A 
ATOM      4  C   UNL     1       4.411   6.216  17.214  0.00  0.00    +0.000 A 
ATOM      5  C   UNL     1       3.406   6.934  17.911  0.00  0.00    +0.000 A 
ATOM      6  C   UNL     1       2.941   6.444  19.155  0.00  0.00    +0.000 A 
ATOM      7  C   UNL     1       3.491   5.257  19.679  0.00  0.00    +0.000 A 
ATOM      8  C   UNL     1       4.519   4.568  19.038  0.00  0.00    +0.000 A 
ATOM      9  C   UNL     1       4.925   5.075  17.812  0.00  0.00    +0.000 A 
ATOM     10  O   UNL     1       5.871   4.501  17.028  0.00  0.00    +0.000 OA
BRANCH   2  12
ATOM     11  O   UNL     1       7.835   5.372  14.435  0.00  0.00    +0.000 OA
ATOM     12  C   UNL     1       6.850   4.783  14.851  0.00  0.00    +0.000 C 
BRANCH  12  13
ATOM     13  O   UNL     1       6.444   3.576  14.363  0.00  0.00    +0.000 OA
ATOM     14  H   UNL     1       5.929   3.093  15.042  0.00  0.00    +0.000 HD
ENDBRANCH  12  13
ENDBRANCH   2  12
ENDBRANCH   1   6
BRANCH   1  15
ATOM     15  N   UNL     1       1.742   8.614  19.810  0.00  0.00    +0.000 NA
ATOM     16  C   UNL     1       1.717   9.087  18.426  0.00  0.00    +0.000 C 
ATOM     17  C   UNL     1       1.479  10.588  18.253  0.00  0.00    +0.000 C 
ATOM     18  C   UNL     1       0.335  11.141  19.115  0.00  0.00    +0.000 C 
ATOM     19  C   UNL     1       0.559  10.704  20.564  0.00  0.00    +0.000 C 
ATOM     20  C   UNL     1       0.767   9.198  20.728  0.00  0.00    +0.000 C 
BRANCH  18  21
ATOM     21  C   UNL     1      -1.061  10.876  18.561  0.00  0.00    +0.000 A 
ATOM     22  C   UNL     1      -1.330   9.916  17.572  0.00  0.00    +0.000 A 
ATOM     23  C   UNL     1      -2.596   9.800  16.985  0.00  0.00    +0.000 A 
ATOM     24  C   UNL     1      -3.639  10.612  17.411  0.00  0.00    +0.000 A 
ATOM     25  C   UNL     1      -3.413  11.516  18.441  0.00  0.00    +0.000 A 
ATOM     26  F   UNL     1      -4.428  12.274  18.878  0.00  0.00    +0.000 F 
ATOM     27  C   UNL     1      -2.144  11.650  19.006  0.00  0.00    +0.000 A 
ATOM     28  F   UNL     1      -1.968  12.551  19.985  0.00  0.00    +0.000 F 
ENDBRANCH  18  21
ENDBRANCH   1  15
TORSDOF 5
ENDMDL
MODEL 2
REMARK VINA RESULT:      -8.5      5.717      9.516
REMARK  Name = 
REMARK  5 active torsions:
REMARK  status: ('A' for Active; 'I' for Inactive)
REMARK    1  A    between atoms: C_2  and  O_3
REMARK    2  A    between atoms: C_2  and  C_4
REMARK    3  A    between atoms: C_8  and  C_9
REMARK    4  A    between atoms: C_9  and  N_10
REMARK    5  A    between atoms: C_13  and  C_14
REMARK                            x       y       z     vdW  Elec       q    Type
REMARK                         _______ _______ _______ _____ _____    ______ ____
ROOT
ATOM      1  C   UNL     1       3.198   5.541  18.164  0.00  0.00    +0.000 C 
ENDROOT
BRANCH   1   6
ATOM      2  C   UNL     1       0.551   9.824  21.586  0.00  0.00    +0.000 A 
ATOM      3  C   UNL     1       1.050   8.553  21.820  0.00  0.00    +0.000 A 
ATOM      4  C   UNL     1       1.588   8.083  20.591  0.00  0.00    +0.000 A 
ATOM      5  C   UNL     1       2.205   6.898  20.119  0.00  0.00    +0.000 A 
ATOM      6  C   UNL     1       2.556   6.796  18.752  0.00  0.00    +0.000 A 
ATOM      7  C   UNL     1       2.292   7.879  17.889  0.00  0.00    +0.000 A 
ATOM      8  C   UNL     1       1.739   9.074  18.344  0.00  0.00    +0.000 A 
ATOM      9  C   UNL     1       1.392   9.117  19.686  0.00  0.00    +0.000 A 
ATOM     10  O   UNL     1       0.793  10.176  20.284  0.00  0.00    +0.000 OA
BRANCH   2  12
ATOM     11  O   UNL     1      -0.805  10.521  23.410  0.00  0.00    +0.000 OA
ATOM     12  C   UNL     1      -0.152  10.776  22.411  0.00  0.00    +0.000 C 
BRANCH  12  13
ATOM     13  O   UNL     1      -0.016  12.038  21.913  0.00  0.00    +0.000 OA
ATOM     14  H   UNL     1      -0.529  12.672  22.455  0.00  0.00    +0.000 HD
ENDBRANCH  12  13
ENDBRANCH   2  12
ENDBRANCH   1   6
BRANCH   1  15
ATOM     15  N   UNL     1       4.630   5.621  17.806  0.00  0.00    +0.000 NA
ATOM     16  C   UNL     1       5.283   4.323  17.639  0.00  0.00    +0.000 C 
ATOM     17  C   UNL     1       6.727   4.377  17.139  0.00  0.00    +0.000 C 
ATOM     18  C   UNL     1       6.940   5.331  15.955  0.00  0.00    +0.000 C 
ATOM     19  C   UNL     1       6.348   6.696  16.313  0.00  0.00    +0.000 C 
ATOM     20  C   UNL     1       4.895   6.632  16.785  0.00  0.00    +0.000 C 
BRANCH  18  21
ATOM     21  C   UNL     1       6.514   4.769  14.603  0.00  0.00    +0.000 A 
ATOM     22  C   UNL     1       5.327   4.044  14.407  0.00  0.00    +0.000 A 
ATOM     23  C   UNL     1       5.038   3.420  13.187  0.00  0.00    +0.000 A 
ATOM     24  C   UNL     1       5.911   3.550  12.115  0.00  0.00    +0.000 A 
ATOM     25  C   UNL     1       7.053   4.326  12.264  0.00  0.00    +0.000 A 
ATOM     26  F   UNL     1       7.877   4.482  11.218  0.00  0.00    +0.000 F 
ATOM     27  C   UNL     1       7.354   4.924  13.489  0.00  0.00    +0.000 A 
ATOM     28  F   UNL     1       8.480   5.647  13.592  0.00  0.00    +0.000 F 
ENDBRANCH  18  21
ENDBRANCH   1  15
TORSDOF 5
ENDMDL
MODEL 3
REMARK VINA RESULT:      -8.4      1.881      2.477
REMARK  Name = 
REMARK  5 active torsions:
REMARK  status: ('A' for Active; 'I' for Inactive)
REMARK    1  A    between atoms: C_2  and  O_3
REMARK    2  A    between atoms: C_2  and  C_4
REMARK    3  A    between atoms: C_8  and  C_9
REMARK    4  A    between atoms: C_9  and  N_10
REMARK    5  A    between atoms: C_13  and  C_14
REMARK                            x       y       z     vdW  Elec       q    Type
REMARK                         _______ _______ _______ _____ _____    ______ ____
ROOT
ATOM      1  C   UNL     1       1.186   8.772  18.613  0.00  0.00    +0.000 C 
ENDROOT
BRANCH   1   6
ATOM      2  C   UNL     1       6.102   5.495  17.144  0.00  0.00    +0.000 A 
ATOM      3  C   UNL     1       5.508   6.646  16.651  0.00  0.00    +0.000 A 
ATOM      4  C   UNL     1       4.386   6.924  17.478  0.00  0.00    +0.000 A 
ATOM      5  C   UNL     1       3.353   7.893  17.528  0.00  0.00    +0.000 A 
ATOM      6  C   UNL     1       2.345   7.783  18.515  0.00  0.00    +0.000 A 
ATOM      7  C   UNL     1       2.393   6.715  19.433  0.00  0.00    +0.000 A 
ATOM      8  C   UNL     1       3.430   5.784  19.439  0.00  0.00    +0.000 A 
ATOM      9  C   UNL     1       4.382   5.922  18.439  0.00  0.00    +0.000 A 
ATOM     10  O   UNL     1       5.426   5.076  18.260  0.00  0.00    +0.000 OA
BRANCH   2  12
ATOM     11  O   UNL     1       7.636   4.598  15.565  0.00  0.00    +0.000 OA
ATOM     12  C   UNL     1       7.223   4.699  16.709  0.00  0.00    +0.000 C 
BRANCH  12  13
ATOM     13  O   UNL     1       7.774   4.029  17.761  0.00  0.00    +0.000 OA
ATOM     14  H   UNL     1       7.147   4.005  18.513  0.00  0.00    +0.000 HD
ENDBRANCH  12  13
ENDBRANCH   2  12
ENDBRANCH   1   6
BRANCH   1  15
ATOM     15  N   UNL     1       1.193   9.707  19.758  0.00  0.00    +0.000 NA
ATOM     16  C   UNL     1       1.114  11.118  19.384  0.00  0.00    +0.000 C 
ATOM     17  C   UNL     1       0.984  12.098  20.551  0.00  0.00    +0.000 C 
ATOM     18  C   UNL     1      -0.053  11.679  21.603  0.00  0.00    +0.000 C 
ATOM     19  C   UNL     1       0.231  10.236  22.023  0.00  0.00    +0.000 C 
ATOM     20  C   UNL     1       0.329   9.261  20.849  0.00  0.00    +0.000 C 
BRANCH  18  21
ATOM     21  C   UNL     1      -1.499  11.976  21.220  0.00  0.00    +0.000 A 
ATOM     22  C   UNL     1      -1.945  12.057  19.891  0.00  0.00    +0.000 A 
ATOM     23  C   UNL     1      -3.245  12.472  19.574  0.00  0.00    +0.000 A 
ATOM     24  C   UNL     1      -4.147  12.770  20.588  0.00  0.00    +0.000 A 
ATOM     25  C   UNL     1      -3.749  12.623  21.910  0.00  0.00    +0.000 A 
ATOM     26  F   UNL     1      -4.631  12.874  22.888  0.00  0.00    +0.000 F 
ATOM     27  C   UNL     1      -2.445  12.236  22.224  0.00  0.00    +0.000 A 
ATOM     28  F   UNL     1      -2.100  12.128  23.516  0.00  0.00    +0.000 F 
ENDBRANCH  18  21
ENDBRANCH   1  15
TORSDOF 5
ENDMDL
MODEL 4
REMARK VINA RESULT:      -8.3      4.175      6.260
REMARK  Name = 
REMARK  5 active torsions:
REMARK  status: ('A' for Active; 'I' for Inactive)
REMARK    1  A    between atoms: C_2  and  O_3
REMARK    2  A    between atoms: C_2  and  C_4
REMARK    3  A    between atoms: C_8  and  C_9
REMARK    4  A    between atoms: C_9  and  N_10
REMARK    5  A    between atoms: C_13  and  C_14
REMARK                            x       y       z     vdW  Elec       q    Type
REMARK                         _______ _______ _______ _____ _____    ______ ____
ROOT
ATOM      1  C   UNL     1       6.205   4.079  16.881  0.00  0.00    +0.000 C 
ENDROOT
BRANCH   1   6
ATOM      2  C   UNL     1       8.529   9.531  18.270  0.00  0.00    +0.000 A 
ATOM      3  C   UNL     1       7.652   9.056  17.307  0.00  0.00    +0.000 A 
ATOM      4  C   UNL     1       7.478   7.667  17.551  0.00  0.00    +0.000 A 
ATOM      5  C   UNL     1       6.770   6.593  16.955  0.00  0.00    +0.000 A 
ATOM      6  C   UNL     1       6.913   5.288  17.485  0.00  0.00    +0.000 A 
ATOM      7  C   UNL     1       7.750   5.085  18.601  0.00  0.00    +0.000 A 
ATOM      8  C   UNL     1       8.410   6.135  19.237  0.00  0.00    +0.000 A 
ATOM      9  C   UNL     1       8.256   7.390  18.667  0.00  0.00    +0.000 A 
ATOM     10  O   UNL     1       8.869   8.512  19.120  0.00  0.00    +0.000 OA
BRANCH   2  12
ATOM     11  O   UNL     1       8.825  11.869  17.959  0.00  0.00    +0.000 OA
ATOM     12  C   UNL     1       9.124  10.823  18.510  0.00  0.00    +0.000 C 
BRANCH  12  13
ATOM     13  O   UNL     1      10.114  10.730  19.444  0.00  0.00    +0.000 OA
ATOM     14  H   UNL     1      10.249   9.794  19.700  0.00  0.00    +0.000 HD
ENDBRANCH  12  13
ENDBRANCH   2  12
ENDBRANCH   1   6
BRANCH   1  15
ATOM     15  N   UNL     1       4.920   3.675  17.490  0.00  0.00    +0.000 NA
ATOM     16  C   UNL     1       4.847   3.886  18.936  0.00  0.00    +0.000 C 
ATOM     17  C   UNL     1       3.484   3.602  19.569  0.00  0.00    +0.000 C 
ATOM     18  C   UNL     1       2.301   4.204  18.797  0.00  0.00    +0.000 C 
ATOM     19  C   UNL     1       2.411   3.785  17.330  0.00  0.00    +0.000 C 
ATOM     20  C   UNL     1       3.768   4.100  16.699  0.00  0.00    +0.000 C 
BRANCH  18  21
ATOM     21  C   UNL     1       2.080   5.694  19.036  0.00  0.00    +0.000 A 
ATOM     22  C   UNL     1       2.268   6.672  18.046  0.00  0.00    +0.000 A 
ATOM     23  C   UNL     1       2.196   8.039  18.339  0.00  0.00    +0.000 A 
ATOM     24  C   UNL     1       1.883   8.461  19.625  0.00  0.00    +0.000 A 
ATOM     25  C   UNL     1       1.618   7.509  20.601  0.00  0.00    +0.000 A 
ATOM     26  F   UNL     1       1.280   7.916  21.833  0.00  0.00    +0.000 F 
ATOM     27  C   UNL     1       1.718   6.147  20.315  0.00  0.00    +0.000 A 
ATOM     28  F   UNL     1       1.474   5.264  21.295  0.00  0.00    +0.000 F 
ENDBRANCH  18  21
ENDBRANCH   1  15
TORSDOF 5
ENDMDL
MODEL 5
REMARK VINA RESULT:      -8.2      2.657      3.907
REMARK  Name = 
REMARK  5 active torsions:
REMARK  status: ('A' for Active; 'I' for Inactive)
REMARK    1  A    between atoms: C_2  and  O_3
REMARK    2  A    between atoms: C_2  and  C_4
REMARK    3  A    between atoms: C_8  and  C_9
REMARK    4  A    between atoms: C_9  and  N_10
REMARK    5  A    between atoms: C_13  and  C_14
REMARK                            x       y       z     vdW  Elec       q    Type
REMARK                         _______ _______ _______ _____ _____    ______ ____
ROOT
ATOM      1  C   UNL     1       0.992   9.310  20.765  0.00  0.00    +0.000 C 
ENDROOT
BRANCH   1   6
ATOM      2  C   UNL     1       3.222   3.831  19.326  0.00  0.00    +0.000 A 
ATOM      3  C   UNL     1       2.557   4.362  20.420  0.00  0.00    +0.000 A 
ATOM      4  C   UNL     1       2.265   5.718  20.112  0.00  0.00    +0.000 A 
ATOM      5  C   UNL     1       1.652   6.818  20.765  0.00  0.00    +0.000 A 
ATOM      6  C   UNL     1       1.609   8.074  20.114  0.00  0.00    +0.000 A 
ATOM      7  C   UNL     1       2.168   8.204  18.827  0.00  0.00    +0.000 A 
ATOM      8  C   UNL     1       2.722   7.123  18.144  0.00  0.00    +0.000 A 
ATOM      9  C   UNL     1       2.761   5.919  18.832  0.00  0.00    +0.000 A 
ATOM     10  O   UNL     1       3.314   4.782  18.343  0.00  0.00    +0.000 OA
BRANCH   2  12
ATOM     11  O   UNL     1       3.281   1.609  18.483  0.00  0.00    +0.000 OA
ATOM     12  C   UNL     1       3.814   2.543  19.061  0.00  0.00    +0.000 C 
BRANCH  12  13
ATOM     13  O   UNL     1       5.077   2.479  19.569  0.00  0.00    +0.000 OA
ATOM     14  H   UNL     1       5.364   3.365  19.873  0.00  0.00    +0.000 HD
ENDBRANCH  12  13
ENDBRANCH   2  12
ENDBRANCH   1   6
BRANCH   1  15
ATOM     15  N   UNL     1       0.417  10.330  19.863  0.00  0.00    +0.000 NA
ATOM     16  C   UNL     1      -0.897   9.983  19.320  0.00  0.00    +0.000 C 
ATOM     17  C   UNL     1      -1.572  11.077  18.493  0.00  0.00    +0.000 C 
ATOM     18  C   UNL     1      -1.520  12.469  19.140  0.00  0.00    +0.000 C 
ATOM     19  C   UNL     1      -0.071  12.776  19.524  0.00  0.00    +0.000 C 
ATOM     20  C   UNL     1       0.584  11.688  20.375  0.00  0.00    +0.000 C 
BRANCH  18  21
ATOM     21  C   UNL     1      -2.550  12.695  20.242  0.00  0.00    +0.000 A 
ATOM     22  C   UNL     1      -2.207  13.018  21.565  0.00  0.00    +0.000 A 
ATOM     23  C   UNL     1      -3.168  13.077  22.581  0.00  0.00    +0.000 A 
ATOM     24  C   UNL     1      -4.509  12.860  22.285  0.00  0.00    +0.000 A 
ATOM     25  C   UNL     1      -4.878  12.614  20.970  0.00  0.00    +0.000 A 
ATOM     26  F   UNL     1      -6.174  12.442  20.678  0.00  0.00    +0.000 F 
ATOM     27  C   UNL     1      -3.915  12.528  19.963  0.00  0.00    +0.000 A 
ATOM     28  F   UNL     1      -4.317  12.267  18.709  0.00  0.00    +0.000 F 
ENDBRANCH  18  21
ENDBRANCH   1  15
TORSDOF 5
ENDMDL
MODEL 6
REMARK VINA RESULT:      -8.2      2.745      4.641
REMARK  Name = 
REMARK  5 active torsions:
REMARK  status: ('A' for Active; 'I' for Inactive)
REMARK    1  A    between atoms: C_2  and  O_3
REMARK    2  A    between atoms: C_2  and  C_4
REMARK    3  A    between atoms: C_8  and  C_9
REMARK    4  A    between atoms: C_9  and  N_10
REMARK    5  A    between atoms: C_13  and  C_14
REMARK                            x       y       z     vdW  Elec       q    Type
REMARK                         _______ _______ _______ _____ _____    ______ ____
ROOT
ATOM      1  C   UNL     1       3.105   9.032  17.438  0.00  0.00    +0.000 C 
ENDROOT
BRANCH   1   6
ATOM      2  C   UNL     1       2.295   4.017  20.793  0.00  0.00    +0.000 A 
ATOM      3  C   UNL     1       1.925   5.347  20.913  0.00  0.00    +0.000 A 
ATOM      4  C   UNL     1       2.392   6.017  19.751  0.00  0.00    +0.000 A 
ATOM      5  C   UNL     1       2.389   7.343  19.250  0.00  0.00    +0.000 A 
ATOM      6  C   UNL     1       3.041   7.624  18.026  0.00  0.00    +0.000 A 
ATOM      7  C   UNL     1       3.673   6.577  17.325  0.00  0.00    +0.000 A 
ATOM      8  C   UNL     1       3.638   5.257  17.769  0.00  0.00    +0.000 A 
ATOM      9  C   UNL     1       3.007   5.036  18.985  0.00  0.00    +0.000 A 
ATOM     10  O   UNL     1       2.928   3.827  19.593  0.00  0.00    +0.000 OA
BRANCH   2  12
ATOM     11  O   UNL     1       1.158   2.557  22.287  0.00  0.00    +0.000 OA
ATOM     12  C   UNL     1       2.157   2.872  21.659  0.00  0.00    +0.000 C 
BRANCH  12  13
ATOM     13  O   UNL     1       3.323   2.167  21.715  0.00  0.00    +0.000 OA
ATOM     14  H   UNL     1       3.872   2.483  22.462  0.00  0.00    +0.000 HD
ENDBRANCH  12  13
ENDBRANCH   2  12
ENDBRANCH   1   6
BRANCH   1  15
ATOM     15  N   UNL     1       1.904   9.880  17.588  0.00  0.00    +0.000 NA
ATOM     16  C   UNL     1       0.671   9.138  17.851  0.00  0.00    +0.000 C 
ATOM     17  C   UNL     1      -0.559   9.998  18.143  0.00  0.00    +0.000 C 
ATOM     18  C   UNL     1      -0.300  11.137  19.139  0.00  0.00    +0.000 C 
ATOM     19  C   UNL     1       0.922  11.929  18.670  0.00  0.00    +0.000 C 
ATOM     20  C   UNL     1       2.154  11.062  18.409  0.00  0.00    +0.000 C 
BRANCH  18  21
ATOM     21  C   UNL     1      -0.278  10.708  20.602  0.00  0.00    +0.000 A 
ATOM     22  C   UNL     1       0.508   9.649  21.085  0.00  0.00    +0.000 A 
ATOM     23  C   UNL     1       0.396   9.189  22.403  0.00  0.00    +0.000 A 
ATOM     24  C   UNL     1      -0.475   9.814  23.287  0.00  0.00    +0.000 A 
ATOM     25  C   UNL     1      -1.206  10.912  22.851  0.00  0.00    +0.000 A 
ATOM     26  F   UNL     1      -2.018  11.538  23.714  0.00  0.00    +0.000 F 
ATOM     27  C   UNL     1      -1.113  11.351  21.529  0.00  0.00    +0.000 A 
ATOM     28  F   UNL     1      -1.854  12.403  21.148  0.00  0.00    +0.000 F 
ENDBRANCH  18  21
ENDBRANCH   1  15
TORSDOF 5
ENDMDL
MODEL 7
REMARK VINA RESULT:      -8.2      5.402      7.428
REMARK  Name = 
REMARK  5 active torsions:
REMARK  status: ('A' for Active; 'I' for Inactive)
REMARK    1  A    between atoms: C_2  and  O_3
REMARK    2  A    between atoms: C_2  and  C_4
REMARK    3  A    between atoms: C_8  and  C_9
REMARK    4  A    between atoms: C_9  and  N_10
REMARK    5  A    between atoms: C_13  and  C_14
REMARK                            x       y       z     vdW  Elec       q    Type
REMARK                         _______ _______ _______ _____ _____    ______ ____
ROOT
ATOM      1  C   UNL     1       5.928   5.026  16.205  0.00  0.00    +0.000 C 
ENDROOT
BRANCH   1   6
ATOM      2  C   UNL     1       8.928   9.692  18.713  0.00  0.00    +0.000 A 
ATOM      3  C   UNL     1       8.098   9.538  17.614  0.00  0.00    +0.000 A 
ATOM      4  C   UNL     1       7.678   8.180  17.596  0.00  0.00    +0.000 A 
ATOM      5  C   UNL     1       6.877   7.357  16.765  0.00  0.00    +0.000 A 
ATOM      6  C   UNL     1       6.750   5.980  17.068  0.00  0.00    +0.000 A 
ATOM      7  C   UNL     1       7.417   5.458  18.194  0.00  0.00    +0.000 A 
ATOM      8  C   UNL     1       8.163   6.260  19.056  0.00  0.00    +0.000 A 
ATOM      9  C   UNL     1       8.275   7.597  18.704  0.00  0.00    +0.000 A 
ATOM     10  O   UNL     1       9.006   8.506  19.395  0.00  0.00    +0.000 OA
BRANCH   2  12
ATOM     11  O   UNL     1      10.649  11.332  18.680  0.00  0.00    +0.000 OA
ATOM     12  C   UNL     1       9.693  10.803  19.224  0.00  0.00    +0.000 C 
BRANCH  12  13
ATOM     13  O   UNL     1       9.222  11.192  20.442  0.00  0.00    +0.000 OA
ATOM     14  H   UNL     1       8.758  12.051  20.366  0.00  0.00    +0.000 HD
ENDBRANCH  12  13
ENDBRANCH   2  12
ENDBRANCH   1   6
BRANCH   1  15
ATOM     15  N   UNL     1       4.472   4.975  16.455  0.00  0.00    +0.000 NA
ATOM     16  C   UNL     1       3.900   3.630  16.416  0.00  0.00    +0.000 C 
ATOM     17  C   UNL     1       2.424   3.535  16.804  0.00  0.00    +0.000 C 
ATOM     18  C   UNL     1       2.061   4.323  18.071  0.00  0.00    +0.000 C 
ATOM     19  C   UNL     1       2.581   5.754  17.923  0.00  0.00    +0.000 C 
ATOM     20  C   UNL     1       4.065   5.836  17.563  0.00  0.00    +0.000 C 
BRANCH  18  21
ATOM     21  C   UNL     1       2.428   3.626  19.377  0.00  0.00    +0.000 A 
ATOM     22  C   UNL     1       3.696   3.078  19.631  0.00  0.00    +0.000 A 
ATOM     23  C   UNL     1       3.954   2.321  20.780  0.00  0.00    +0.000 A 
ATOM     24  C   UNL     1       2.957   2.136  21.731  0.00  0.00    +0.000 A 
ATOM     25  C   UNL     1       1.719   2.734  21.535  0.00  0.00    +0.000 A 
ATOM     26  F   UNL     1       0.770   2.586  22.469  0.00  0.00    +0.000 F 
ATOM     27  C   UNL     1       1.455   3.464  20.376  0.00  0.00    +0.000 A 
ATOM     28  F   UNL     1       0.237   4.006  20.221  0.00  0.00    +0.000 F 
ENDBRANCH  18  21
ENDBRANCH   1  15
TORSDOF 5
ENDMDL
MODEL 8
REMARK VINA RESULT:      -8.1      5.916      9.846
REMARK  Name = 
REMARK  5 active torsions:
REMARK  status: ('A' for Active; 'I' for Inactive)
REMARK    1  A    between atoms: C_2  and  O_3
REMARK    2  A    between atoms: C_2  and  C_4
REMARK    3  A    between atoms: C_8  and  C_9
REMARK    4  A    between atoms: C_9  and  N_10
REMARK    5  A    between atoms: C_13  and  C_14
REMARK                            x       y       z     vdW  Elec       q    Type
REMARK                         _______ _______ _______ _____ _____    ______ ____
ROOT
ATOM      1  C   UNL     1       1.898   7.927  21.093  0.00  0.00    +0.000 C 
ENDROOT
BRANCH   1   6
ATOM      2  C   UNL     1      -2.279  12.099  22.580  0.00  0.00    +0.000 A 
ATOM      3  C   UNL     1      -1.533  11.165  23.282  0.00  0.00    +0.000 A 
ATOM      4  C   UNL     1      -0.688  10.515  22.343  0.00  0.00    +0.000 A 
ATOM      5  C   UNL     1       0.274   9.474  22.365  0.00  0.00    +0.000 A 
ATOM      6  C   UNL     1       0.876   9.059  21.153  0.00  0.00    +0.000 A 
ATOM      7  C   UNL     1       0.511   9.695  19.949  0.00  0.00    +0.000 A 
ATOM      8  C   UNL     1      -0.389  10.759  19.912  0.00  0.00    +0.000 A 
ATOM      9  C   UNL     1      -0.968  11.113  21.122  0.00  0.00    +0.000 A 
ATOM     10  O   UNL     1      -1.903  12.084  21.262  0.00  0.00    +0.000 OA
BRANCH   2  12
ATOM     11  O   UNL     1      -3.177  14.110  23.474  0.00  0.00    +0.000 OA
ATOM     12  C   UNL     1      -3.327  13.013  22.961  0.00  0.00    +0.000 C 
BRANCH  12  13
ATOM     13  O   UNL     1      -4.553  12.479  22.692  0.00  0.00    +0.000 OA
ATOM     14  H   UNL     1      -4.983  12.972  21.962  0.00  0.00    +0.000 HD
ENDBRANCH  12  13
ENDBRANCH   2  12
ENDBRANCH   1   6
BRANCH   1  15
ATOM     15  N   UNL     1       1.834   7.021  19.927  0.00  0.00    +0.000 NA
ATOM     16  C   UNL     1       2.450   7.557  18.713  0.00  0.00    +0.000 C 
ATOM     17  C   UNL     1       2.516   6.589  17.532  0.00  0.00    +0.000 C 
ATOM     18  C   UNL     1       3.008   5.183  17.905  0.00  0.00    +0.000 C 
ATOM     19  C   UNL     1       2.184   4.674  19.089  0.00  0.00    +0.000 C 
ATOM     20  C   UNL     1       2.150   5.639  20.275  0.00  0.00    +0.000 C 
BRANCH  18  21
ATOM     21  C   UNL     1       4.521   5.063  18.062  0.00  0.00    +0.000 A 
ATOM     22  C   UNL     1       5.199   5.353  19.257  0.00  0.00    +0.000 A 
ATOM     23  C   UNL     1       6.597   5.371  19.324  0.00  0.00    +0.000 A 
ATOM     24  C   UNL     1       7.353   5.048  18.204  0.00  0.00    +0.000 A 
ATOM     25  C   UNL     1       6.701   4.683  17.033  0.00  0.00    +0.000 A 
ATOM     26  F   UNL     1       7.429   4.336  15.963  0.00  0.00    +0.000 F 
ATOM     27  C   UNL     1       5.307   4.694  16.960  0.00  0.00    +0.000 A 
ATOM     28  F   UNL     1       4.722   4.355  15.801  0.00  0.00    +0.000 F 
ENDBRANCH  18  21
ENDBRANCH   1  15
TORSDOF 5
ENDMDL
MODEL 9
REMARK VINA RESULT:      -8.1      5.753      9.502
REMARK  Name = 
REMARK  5 active torsions:
REMARK  status: ('A' for Active; 'I' for Inactive)
REMARK    1  A    between atoms: C_2  and  O_3
REMARK    2  A    between atoms: C_2  and  C_4
REMARK    3  A    between atoms: C_8  and  C_9
REMARK    4  A    between atoms: C_9  and  N_10
REMARK    5  A    between atoms: C_13  and  C_14
REMARK                            x       y       z     vdW  Elec       q    Type
REMARK                         _______ _______ _______ _____ _____    ______ ____
ROOT
ATOM      1  C   UNL     1       1.847   7.756  21.304  0.00  0.00    +0.000 C 
ENDROOT
BRANCH   1   6
ATOM      2  C   UNL     1      -2.035  12.409  20.717  0.00  0.00    +0.000 A 
ATOM      3  C   UNL     1      -1.300  11.629  19.838  0.00  0.00    +0.000 A 
ATOM      4  C   UNL     1      -0.610  10.661  20.617  0.00  0.00    +0.000 A 
ATOM      5  C   UNL     1       0.308   9.608  20.380  0.00  0.00    +0.000 A 
ATOM      6  C   UNL     1       0.833   8.884  21.478  0.00  0.00    +0.000 A 
ATOM      7  C   UNL     1       0.425   9.222  22.784  0.00  0.00    +0.000 A 
ATOM      8  C   UNL     1      -0.520  10.215  23.036  0.00  0.00    +0.000 A 
ATOM      9  C   UNL     1      -0.987  10.909  21.929  0.00  0.00    +0.000 A 
ATOM     10  O   UNL     1      -1.864  11.941  21.994  0.00  0.00    +0.000 OA
BRANCH   2  12
ATOM     11  O   UNL     1      -4.085  13.613  20.725  0.00  0.00    +0.000 OA
ATOM     12  C   UNL     1      -2.880  13.565  20.541  0.00  0.00    +0.000 C 
BRANCH  12  13
ATOM     13  O   UNL     1      -2.151  14.633  20.107  0.00  0.00    +0.000 OA
ATOM     14  H   UNL     1      -1.603  14.377  19.337  0.00  0.00    +0.000 HD
ENDBRANCH  12  13
ENDBRANCH   2  12
ENDBRANCH   1   6
BRANCH   1  15
ATOM     15  N   UNL     1       1.781   6.978  20.049  0.00  0.00    +0.000 NA
ATOM     16  C   UNL     1       2.437   7.617  18.909  0.00  0.00    +0.000 C 
ATOM     17  C   UNL     1       2.499   6.774  17.635  0.00  0.00    +0.000 C 
ATOM     18  C   UNL     1       2.944   5.323  17.869  0.00  0.00    +0.000 C 
ATOM     19  C   UNL     1       2.081   4.720  18.979  0.00  0.00    +0.000 C 
ATOM     20  C   UNL     1       2.049   5.558  20.258  0.00  0.00    +0.000 C 
BRANCH  18  21
ATOM     21  C   UNL     1       4.448   5.140  18.039  0.00  0.00    +0.000 A 
ATOM     22  C   UNL     1       5.126   5.398  19.242  0.00  0.00    +0.000 A 
ATOM     23  C   UNL     1       6.524   5.359  19.322  0.00  0.00    +0.000 A 
ATOM     24  C   UNL     1       7.276   5.009  18.207  0.00  0.00    +0.000 A 
ATOM     25  C   UNL     1       6.621   4.676  17.028  0.00  0.00    +0.000 A 
ATOM     26  F   UNL     1       7.344   4.303  15.964  0.00  0.00    +0.000 F 
ATOM     27  C   UNL     1       5.229   4.743  16.943  0.00  0.00    +0.000 A 
ATOM     28  F   UNL     1       4.641   4.433  15.777  0.00  0.00    +0.000 F 
ENDBRANCH  18  21
ENDBRANCH   1  15
TORSDOF 5
ENDMDL
