MODEL 1
REMARK VINA RESULT:      -9.9      0.000      0.000
REMARK  Name = 
REMARK  7 active torsions:
REMARK  status: ('A' for Active; 'I' for Inactive)
REMARK    1  A    between atoms: C_2  and  C_3
REMARK    2  A    between atoms: C_3  and  C_4
REMARK    3  A    between atoms: C_4  and  C_5
REMARK    4  A    between atoms: N_13  and  C_14
REMARK    5  A    between atoms: N_20  and  C_21
REMARK    6  A    between atoms: N_24  and  C_25
REMARK    7  A    between atoms: C_25  and  C_26
REMARK                            x       y       z     vdW  Elec       q    Type
REMARK                         _______ _______ _______ _____ _____    ______ ____
ROOT
ATOM      1  O   UNL     1       8.577   7.271  18.940  0.00  0.00    +0.000 OA
ATOM      2  C   UNL     1       8.109   7.926  18.020  0.00  0.00    +0.000 C 
ATOM      3  N   UNL     1       7.439   7.372  16.948  0.00  0.00    +0.000 N 
ATOM      4  H   UNL     1       6.963   8.000  16.314  0.00  0.00    +0.000 HD
ENDROOT
BRANCH   3   5
ATOM      5  C   UNL     1       7.153   5.940  16.833  0.00  0.00    +0.000 C 
ATOM      6  C   UNL     1       6.075   5.683  15.781  0.00  0.00    +0.000 C 
ATOM      7  C   UNL     1       4.695   6.144  16.252  0.00  0.00    +0.000 C 
ATOM      8  N   UNL     1       4.310   5.523  17.529  0.00  0.00    +0.000 NA
ATOM      9  C   UNL     1       5.312   5.779  18.578  0.00  0.00    +0.000 C 
ATOM     10  C   UNL     1       6.719   5.333  18.169  0.00  0.00    +0.000 C 
BRANCH   8  11
ATOM     11  C   UNL     1       2.980   5.997  17.978  0.00  0.00    +0.000 C 
BRANCH  11  12
ATOM     12  C   UNL     1       2.166   4.925  18.677  0.00  0.00    +0.000 A 
ATOM     13  C   UNL     1       1.927   5.001  20.057  0.00  0.00    +0.000 A 
ATOM     14  C   UNL     1       1.290   3.954  20.723  0.00  0.00    +0.000 A 
ATOM     15  C   UNL     1       0.867   2.830  20.016  0.00  0.00    +0.000 A 
ATOM     16  C   UNL     1       1.056   2.764  18.637  0.00  0.00    +0.000 A 
ATOM     17  C   UNL     1       1.698   3.808  17.969  0.00  0.00    +0.000 A 
ENDBRANCH  11  12
ENDBRANCH   8  11
ENDBRANCH   3   5
BRANCH   2  18
ATOM     18  C   UNL     1       8.227   9.437  17.948  0.00  0.00    +0.000 C 
BRANCH  18  19
ATOM     19  C   UNL     1       9.039   9.973  19.131  0.00  0.00    +0.000 C 
BRANCH  19  20
ATOM     20  C   UNL     1       9.735  11.268  18.798  0.00  0.00    +0.000 A 
ATOM     21  N   UNL     1      10.458  11.429  17.703  0.00  0.00    +0.000 NA
ATOM     22  C   UNL     1      10.790  12.751  17.652  0.00  0.00    +0.000 A 
ATOM     23  C   UNL     1      11.539  13.429  16.677  0.00  0.00    +0.000 A 
ATOM     24  C   UNL     1      11.787  14.795  16.833  0.00  0.00    +0.000 A 
ATOM     25  C   UNL     1      11.319  15.472  17.954  0.00  0.00    +0.000 A 
ATOM     26  C   UNL     1      10.582  14.806  18.941  0.00  0.00    +0.000 A 
ATOM     27  C   UNL     1      10.292  13.438  18.753  0.00  0.00    +0.000 A 
ATOM     28  N   UNL     1       9.606  12.475  19.501  0.00  0.00    +0.000 N 
BRANCH  28  29
ATOM     29  C   UNL     1       8.927  12.713  20.738  0.00  0.00    +0.000 A 
ATOM     30  C   UNL     1       9.079  11.824  21.812  0.00  0.00    +0.000 A 
ATOM     31  C   UNL     1       8.368  12.008  23.000  0.00  0.00    +0.000 A 
ATOM     32  C   UNL     1       7.523  13.103  23.142  0.00  0.00    +0.000 A 
ATOM     33  C   UNL     1       7.379  14.007  22.092  0.00  0.00    +0.000 A 
ATOM     34  C   UNL     1       8.067  13.807  20.889  0.00  0.00    +0.000 A 
ENDBRANCH  28  29
ENDBRANCH  19  20
ENDBRANCH  18  19
ENDBRANCH   2  18
TORSDOF 7
ENDMDL
MODEL 2
REMARK VINA RESULT:      -9.5      6.263     10.838
REMARK  Name = 
REMARK  7 active torsions:
REMARK  status: ('A' for Active; 'I' for Inactive)
REMARK    1  A    between atoms: C_2  and  C_3
REMARK    2  A    between atoms: C_3  and  C_4
REMARK    3  A    between atoms: C_4  and  C_5
REMARK    4  A    between atoms: N_13  and  C_14
REMARK    5  A    between atoms: N_20  and  C_21
REMARK    6  A    between atoms: N_24  and  C_25
REMARK    7  A    between atoms: C_25  and  C_26
REMARK                            x       y       z     vdW  Elec       q    Type
REMARK                         _______ _______ _______ _____ _____    ______ ____
ROOT
ATOM      1  O   UNL     1      -0.201   9.347  17.607  0.00  0.00    +0.000 OA
ATOM      2  C   UNL     1       0.805   9.744  18.176  0.00  0.00    +0.000 C 
ATOM      3  N   UNL     1       0.805  10.751  19.120  0.00  0.00    +0.000 N 
ATOM      4  H   UNL     1       1.658  10.911  19.640  0.00  0.00    +0.000 HD
ENDROOT
BRANCH   3   5
ATOM      5  C   UNL     1      -0.417  11.406  19.595  0.00  0.00    +0.000 C 
ATOM      6  C   UNL     1      -0.942  12.396  18.558  0.00  0.00    +0.000 C 
ATOM      7  C   UNL     1      -0.057  13.637  18.451  0.00  0.00    +0.000 C 
ATOM      8  N   UNL     1       0.110  14.311  19.749  0.00  0.00    +0.000 NA
ATOM      9  C   UNL     1       0.649  13.393  20.768  0.00  0.00    +0.000 C 
ATOM     10  C   UNL     1      -0.199  12.127  20.927  0.00  0.00    +0.000 C 
BRANCH   8  11
ATOM     11  C   UNL     1       0.987  15.499  19.630  0.00  0.00    +0.000 C 
BRANCH  11  12
ATOM     12  C   UNL     1       0.335  16.655  18.895  0.00  0.00    +0.000 A 
ATOM     13  C   UNL     1      -0.983  17.032  19.191  0.00  0.00    +0.000 A 
ATOM     14  C   UNL     1      -1.627  18.007  18.430  0.00  0.00    +0.000 A 
ATOM     15  C   UNL     1      -0.956  18.631  17.380  0.00  0.00    +0.000 A 
ATOM     16  C   UNL     1       0.370  18.299  17.106  0.00  0.00    +0.000 A 
ATOM     17  C   UNL     1       1.015  17.319  17.863  0.00  0.00    +0.000 A 
ENDBRANCH  11  12
ENDBRANCH   8  11
ENDBRANCH   3   5
BRANCH   2  18
ATOM     18  C   UNL     1       2.184   9.177  17.893  0.00  0.00    +0.000 C 
BRANCH  18  19
ATOM     19  C   UNL     1       2.382   7.846  18.624  0.00  0.00    +0.000 C 
BRANCH  19  20
ATOM     20  C   UNL     1       3.211   6.878  17.821  0.00  0.00    +0.000 A 
ATOM     21  N   UNL     1       4.050   7.268  16.876  0.00  0.00    +0.000 NA
ATOM     22  C   UNL     1       4.735   6.156  16.487  0.00  0.00    +0.000 A 
ATOM     23  C   UNL     1       5.749   6.044  15.521  0.00  0.00    +0.000 A 
ATOM     24  C   UNL     1       6.305   4.791  15.255  0.00  0.00    +0.000 A 
ATOM     25  C   UNL     1       5.845   3.661  15.921  0.00  0.00    +0.000 A 
ATOM     26  C   UNL     1       4.826   3.754  16.878  0.00  0.00    +0.000 A 
ATOM     27  C   UNL     1       4.303   5.029  17.177  0.00  0.00    +0.000 A 
ATOM     28  N   UNL     1       3.310   5.497  18.046  0.00  0.00    +0.000 N 
BRANCH  28  29
ATOM     29  C   UNL     1       2.561   4.690  18.960  0.00  0.00    +0.000 A 
ATOM     30  C   UNL     1       1.552   3.837  18.490  0.00  0.00    +0.000 A 
ATOM     31  C   UNL     1       0.767   3.098  19.378  0.00  0.00    +0.000 A 
ATOM     32  C   UNL     1       1.005   3.176  20.746  0.00  0.00    +0.000 A 
ATOM     33  C   UNL     1       2.018   4.001  21.226  0.00  0.00    +0.000 A 
ATOM     34  C   UNL     1       2.785   4.766  20.340  0.00  0.00    +0.000 A 
ENDBRANCH  28  29
ENDBRANCH  19  20
ENDBRANCH  18  19
ENDBRANCH   2  18
TORSDOF 7
ENDMDL
MODEL 3
REMARK VINA RESULT:      -9.5      6.119     10.547
REMARK  Name = 
REMARK  7 active torsions:
REMARK  status: ('A' for Active; 'I' for Inactive)
REMARK    1  A    between atoms: C_2  and  C_3
REMARK    2  A    between atoms: C_3  and  C_4
REMARK    3  A    between atoms: C_4  and  C_5
REMARK    4  A    between atoms: N_13  and  C_14
REMARK    5  A    between atoms: N_20  and  C_21
REMARK    6  A    between atoms: N_24  and  C_25
REMARK    7  A    between atoms: C_25  and  C_26
REMARK                            x       y       z     vdW  Elec       q    Type
REMARK                         _______ _______ _______ _____ _____    ______ ____
ROOT
ATOM      1  O   UNL     1       2.737  10.551  17.498  0.00  0.00    +0.000 OA
ATOM      2  C   UNL     1       1.781   9.873  17.842  0.00  0.00    +0.000 C 
ATOM      3  N   UNL     1       0.640  10.393  18.419  0.00  0.00    +0.000 N 
ATOM      4  H   UNL     1      -0.153   9.777  18.536  0.00  0.00    +0.000 HD
ENDROOT
BRANCH   3   5
ATOM      5  C   UNL     1       0.423  11.829  18.615  0.00  0.00    +0.000 C 
ATOM      6  C   UNL     1       1.250  12.348  19.789  0.00  0.00    +0.000 C 
ATOM      7  C   UNL     1       0.706  11.860  21.132  0.00  0.00    +0.000 C 
ATOM      8  N   UNL     1      -0.710  12.215  21.319  0.00  0.00    +0.000 NA
ATOM      9  C   UNL     1      -1.544  11.699  20.220  0.00  0.00    +0.000 C 
ATOM     10  C   UNL     1      -1.054  12.159  18.843  0.00  0.00    +0.000 C 
BRANCH   8  11
ATOM     11  C   UNL     1      -1.223  11.716  22.616  0.00  0.00    +0.000 C 
BRANCH  11  12
ATOM     12  C   UNL     1      -2.079  12.729  23.352  0.00  0.00    +0.000 A 
ATOM     13  C   UNL     1      -3.400  12.419  23.707  0.00  0.00    +0.000 A 
ATOM     14  C   UNL     1      -4.228  13.391  24.268  0.00  0.00    +0.000 A 
ATOM     15  C   UNL     1      -3.740  14.676  24.499  0.00  0.00    +0.000 A 
ATOM     16  C   UNL     1      -2.415  14.983  24.195  0.00  0.00    +0.000 A 
ATOM     17  C   UNL     1      -1.586  14.013  23.628  0.00  0.00    +0.000 A 
ENDBRANCH  11  12
ENDBRANCH   8  11
ENDBRANCH   3   5
BRANCH   2  18
ATOM     18  C   UNL     1       1.749   8.364  17.685  0.00  0.00    +0.000 C 
BRANCH  18  19
ATOM     19  C   UNL     1       3.156   7.776  17.816  0.00  0.00    +0.000 C 
BRANCH  19  20
ATOM     20  C   UNL     1       3.173   6.537  18.673  0.00  0.00    +0.000 A 
ATOM     21  N   UNL     1       2.352   6.363  19.694  0.00  0.00    +0.000 NA
ATOM     22  C   UNL     1       2.538   5.083  20.125  0.00  0.00    +0.000 A 
ATOM     23  C   UNL     1       1.893   4.408  21.174  0.00  0.00    +0.000 A 
ATOM     24  C   UNL     1       2.257   3.092  21.467  0.00  0.00    +0.000 A 
ATOM     25  C   UNL     1       3.264   2.462  20.744  0.00  0.00    +0.000 A 
ATOM     26  C   UNL     1       3.926   3.126  19.704  0.00  0.00    +0.000 A 
ATOM     27  C   UNL     1       3.519   4.438  19.380  0.00  0.00    +0.000 A 
ATOM     28  N   UNL     1       3.935   5.383  18.435  0.00  0.00    +0.000 N 
BRANCH  28  29
ATOM     29  C   UNL     1       4.947   5.176  17.445  0.00  0.00    +0.000 A 
ATOM     30  C   UNL     1       4.669   4.424  16.294  0.00  0.00    +0.000 A 
ATOM     31  C   UNL     1       5.669   4.158  15.354  0.00  0.00    +0.000 A 
ATOM     32  C   UNL     1       6.949   4.669  15.537  0.00  0.00    +0.000 A 
ATOM     33  C   UNL     1       7.233   5.436  16.663  0.00  0.00    +0.000 A 
ATOM     34  C   UNL     1       6.242   5.679  17.621  0.00  0.00    +0.000 A 
ENDBRANCH  28  29
ENDBRANCH  19  20
ENDBRANCH  18  19
ENDBRANCH   2  18
TORSDOF 7
ENDMDL
MODEL 4
REMARK VINA RESULT:      -9.2      6.166     10.385
REMARK  Name = 
REMARK  7 active torsions:
REMARK  status: ('A' for Active; 'I' for Inactive)
REMARK    1  A    between atoms: C_2  and  C_3
REMARK    2  A    between atoms: C_3  and  C_4
REMARK    3  A    between atoms: C_4  and  C_5
REMARK    4  A    between atoms: N_13  and  C_14
REMARK    5  A    between atoms: N_20  and  C_21
REMARK    6  A    between atoms: N_24  and  C_25
REMARK    7  A    between atoms: C_25  and  C_26
REMARK                            x       y       z     vdW  Elec       q    Type
REMARK                         _______ _______ _______ _____ _____    ______ ____
ROOT
ATOM      1  O   UNL     1       2.272  10.299  17.459  0.00  0.00    +0.000 OA
ATOM      2  C   UNL     1       1.363   9.696  18.011  0.00  0.00    +0.000 C 
ATOM      3  N   UNL     1       0.290  10.315  18.619  0.00  0.00    +0.000 N 
ATOM      4  H   UNL     1      -0.481   9.735  18.920  0.00  0.00    +0.000 HD
ENDROOT
BRANCH   3   5
ATOM      5  C   UNL     1       0.088  11.766  18.606  0.00  0.00    +0.000 C 
ATOM      6  C   UNL     1       1.073  12.461  19.544  0.00  0.00    +0.000 C 
ATOM      7  C   UNL     1       0.740  12.207  21.014  0.00  0.00    +0.000 C 
ATOM      8  N   UNL     1      -0.636  12.607  21.347  0.00  0.00    +0.000 NA
ATOM      9  C   UNL     1      -1.618  11.928  20.483  0.00  0.00    +0.000 C 
ATOM     10  C   UNL     1      -1.342  12.149  18.992  0.00  0.00    +0.000 C 
BRANCH   8  11
ATOM     11  C   UNL     1      -0.946  12.334  22.770  0.00  0.00    +0.000 C 
BRANCH  11  12
ATOM     12  C   UNL     1      -1.816  13.401  23.409  0.00  0.00    +0.000 A 
ATOM     13  C   UNL     1      -1.246  14.591  23.884  0.00  0.00    +0.000 A 
ATOM     14  C   UNL     1      -2.020  15.515  24.586  0.00  0.00    +0.000 A 
ATOM     15  C   UNL     1      -3.375  15.271  24.801  0.00  0.00    +0.000 A 
ATOM     16  C   UNL     1      -3.963  14.114  24.292  0.00  0.00    +0.000 A 
ATOM     17  C   UNL     1      -3.189  13.185  23.595  0.00  0.00    +0.000 A 
ENDBRANCH  11  12
ENDBRANCH   8  11
ENDBRANCH   3   5
BRANCH   2  18
ATOM     18  C   UNL     1       1.323   8.182  18.101  0.00  0.00    +0.000 C 
BRANCH  18  19
ATOM     19  C   UNL     1       2.574   7.648  18.803  0.00  0.00    +0.000 C 
BRANCH  19  20
ATOM     20  C   UNL     1       3.363   6.716  17.921  0.00  0.00    +0.000 A 
ATOM     21  N   UNL     1       4.227   7.148  17.018  0.00  0.00    +0.000 NA
ATOM     22  C   UNL     1       4.862   6.043  16.533  0.00  0.00    +0.000 A 
ATOM     23  C   UNL     1       5.878   5.970  15.566  0.00  0.00    +0.000 A 
ATOM     24  C   UNL     1       6.377   4.720  15.191  0.00  0.00    +0.000 A 
ATOM     25  C   UNL     1       5.858   3.558  15.752  0.00  0.00    +0.000 A 
ATOM     26  C   UNL     1       4.837   3.614  16.709  0.00  0.00    +0.000 A 
ATOM     27  C   UNL     1       4.372   4.882  17.119  0.00  0.00    +0.000 A 
ATOM     28  N   UNL     1       3.395   5.317  18.022  0.00  0.00    +0.000 N 
BRANCH  28  29
ATOM     29  C   UNL     1       2.601   4.469  18.857  0.00  0.00    +0.000 A 
ATOM     30  C   UNL     1       2.894   4.347  20.224  0.00  0.00    +0.000 A 
ATOM     31  C   UNL     1       2.169   3.470  21.035  0.00  0.00    +0.000 A 
ATOM     32  C   UNL     1       1.121   2.731  20.498  0.00  0.00    +0.000 A 
ATOM     33  C   UNL     1       0.804   2.860  19.148  0.00  0.00    +0.000 A 
ATOM     34  C   UNL     1       1.548   3.714  18.327  0.00  0.00    +0.000 A 
ENDBRANCH  28  29
ENDBRANCH  19  20
ENDBRANCH  18  19
ENDBRANCH   2  18
TORSDOF 7
ENDMDL
MODEL 5
REMARK VINA RESULT:      -9.1      6.168     10.330
REMARK  Name = 
REMARK  7 active torsions:
REMARK  status: ('A' for Active; 'I' for Inactive)
REMARK    1  A    between atoms: C_2  and  C_3
REMARK    2  A    between atoms: C_3  and  C_4
REMARK    3  A    between atoms: C_4  and  C_5
REMARK    4  A    between atoms: N_13  and  C_14
REMARK    5  A    between atoms: N_20  and  C_21
REMARK    6  A    between atoms: N_24  and  C_25
REMARK    7  A    between atoms: C_25  and  C_26
REMARK                            x       y       z     vdW  Elec       q    Type
REMARK                         _______ _______ _______ _____ _____    ______ ____
ROOT
ATOM      1  O   UNL     1       2.198   9.975  17.435  0.00  0.00    +0.000 OA
ATOM      2  C   UNL     1       1.361   9.457  18.161  0.00  0.00    +0.000 C 
ATOM      3  N   UNL     1       0.382  10.165  18.827  0.00  0.00    +0.000 N 
ATOM      4  H   UNL     1      -0.351   9.640  19.285  0.00  0.00    +0.000 HD
ENDROOT
BRANCH   3   5
ATOM      5  C   UNL     1       0.195  11.611  18.679  0.00  0.00    +0.000 C 
ATOM      6  C   UNL     1       1.124  12.378  19.617  0.00  0.00    +0.000 C 
ATOM      7  C   UNL     1       0.695  12.250  21.079  0.00  0.00    +0.000 C 
ATOM      8  N   UNL     1      -0.696  12.682  21.287  0.00  0.00    +0.000 NA
ATOM      9  C   UNL     1      -1.627  11.937  20.422  0.00  0.00    +0.000 C 
ATOM     10  C   UNL     1      -1.254  12.030  18.939  0.00  0.00    +0.000 C 
BRANCH   8  11
ATOM     11  C   UNL     1      -1.100  12.532  22.705  0.00  0.00    +0.000 C 
BRANCH  11  12
ATOM     12  C   UNL     1      -2.465  13.122  23.005  0.00  0.00    +0.000 A 
ATOM     13  C   UNL     1      -2.775  14.431  22.612  0.00  0.00    +0.000 A 
ATOM     14  C   UNL     1      -3.980  15.019  22.999  0.00  0.00    +0.000 A 
ATOM     15  C   UNL     1      -4.895  14.299  23.763  0.00  0.00    +0.000 A 
ATOM     16  C   UNL     1      -4.619  12.980  24.120  0.00  0.00    +0.000 A 
ATOM     17  C   UNL     1      -3.412  12.391  23.739  0.00  0.00    +0.000 A 
ENDBRANCH  11  12
ENDBRANCH   8  11
ENDBRANCH   3   5
BRANCH   2  18
ATOM     18  C   UNL     1       1.316   7.963  18.422  0.00  0.00    +0.000 C 
BRANCH  18  19
ATOM     19  C   UNL     1       2.646   7.475  19.003  0.00  0.00    +0.000 C 
BRANCH  19  20
ATOM     20  C   UNL     1       3.403   6.608  18.031  0.00  0.00    +0.000 A 
ATOM     21  N   UNL     1       4.210   7.105  17.109  0.00  0.00    +0.000 NA
ATOM     22  C   UNL     1       4.838   6.040  16.532  0.00  0.00    +0.000 A 
ATOM     23  C   UNL     1       5.801   6.039  15.510  0.00  0.00    +0.000 A 
ATOM     24  C   UNL     1       6.301   4.821  15.043  0.00  0.00    +0.000 A 
ATOM     25  C   UNL     1       5.834   3.621  15.567  0.00  0.00    +0.000 A 
ATOM     26  C   UNL     1       4.864   3.606  16.577  0.00  0.00    +0.000 A 
ATOM     27  C   UNL     1       4.400   4.840  17.079  0.00  0.00    +0.000 A 
ATOM     28  N   UNL     1       3.465   5.206  18.054  0.00  0.00    +0.000 N 
BRANCH  28  29
ATOM     29  C   UNL     1       2.732   4.300  18.883  0.00  0.00    +0.000 A 
ATOM     30  C   UNL     1       1.578   3.670  18.396  0.00  0.00    +0.000 A 
ATOM     31  C   UNL     1       0.815   2.836  19.218  0.00  0.00    +0.000 A 
ATOM     32  C   UNL     1       1.216   2.596  20.528  0.00  0.00    +0.000 A 
ATOM     33  C   UNL     1       2.372   3.196  21.018  0.00  0.00    +0.000 A 
ATOM     34  C   UNL     1       3.121   4.056  20.206  0.00  0.00    +0.000 A 
ENDBRANCH  28  29
ENDBRANCH  19  20
ENDBRANCH  18  19
ENDBRANCH   2  18
TORSDOF 7
ENDMDL
MODEL 6
REMARK VINA RESULT:      -9.1      5.112     10.361
REMARK  Name = 
REMARK  7 active torsions:
REMARK  status: ('A' for Active; 'I' for Inactive)
REMARK    1  A    between atoms: C_2  and  C_3
REMARK    2  A    between atoms: C_3  and  C_4
REMARK    3  A    between atoms: C_4  and  C_5
REMARK    4  A    between atoms: N_13  and  C_14
REMARK    5  A    between atoms: N_20  and  C_21
REMARK    6  A    between atoms: N_24  and  C_25
REMARK    7  A    between atoms: C_25  and  C_26
REMARK                            x       y       z     vdW  Elec       q    Type
REMARK                         _______ _______ _______ _____ _____    ______ ____
ROOT
ATOM      1  O   UNL     1      -0.169   9.498  17.557  0.00  0.00    +0.000 OA
ATOM      2  C   UNL     1       0.782   9.794  18.265  0.00  0.00    +0.000 C 
ATOM      3  N   UNL     1       0.707  10.682  19.318  0.00  0.00    +0.000 N 
ATOM      4  H   UNL     1       1.506  10.753  19.934  0.00  0.00    +0.000 HD
ENDROOT
BRANCH   3   5
ATOM      5  C   UNL     1      -0.543  11.314  19.747  0.00  0.00    +0.000 C 
ATOM      6  C   UNL     1      -0.941  12.436  18.790  0.00  0.00    +0.000 C 
ATOM      7  C   UNL     1      -0.025  13.653  18.921  0.00  0.00    +0.000 C 
ATOM      8  N   UNL     1       0.024  14.163  20.301  0.00  0.00    +0.000 NA
ATOM      9  C   UNL     1       0.438  13.115  21.249  0.00  0.00    +0.000 C 
ATOM     10  C   UNL     1      -0.447  11.866  21.171  0.00  0.00    +0.000 C 
BRANCH   8  11
ATOM     11  C   UNL     1       0.932  15.328  20.412  0.00  0.00    +0.000 C 
BRANCH  11  12
ATOM     12  C   UNL     1       2.012  15.351  19.347  0.00  0.00    +0.000 A 
ATOM     13  C   UNL     1       3.054  14.413  19.371  0.00  0.00    +0.000 A 
ATOM     14  C   UNL     1       4.115  14.511  18.471  0.00  0.00    +0.000 A 
ATOM     15  C   UNL     1       4.135  15.533  17.523  0.00  0.00    +0.000 A 
ATOM     16  C   UNL     1       3.080  16.442  17.457  0.00  0.00    +0.000 A 
ATOM     17  C   UNL     1       2.021  16.350  18.362  0.00  0.00    +0.000 A 
ENDBRANCH  11  12
ENDBRANCH   8  11
ENDBRANCH   3   5
BRANCH   2  18
ATOM     18  C   UNL     1       2.171   9.220  18.052  0.00  0.00    +0.000 C 
BRANCH  18  19
ATOM     19  C   UNL     1       2.294   7.842  18.709  0.00  0.00    +0.000 C 
BRANCH  19  20
ATOM     20  C   UNL     1       3.136   6.899  17.890  0.00  0.00    +0.000 A 
ATOM     21  N   UNL     1       3.954   7.315  16.937  0.00  0.00    +0.000 NA
ATOM     22  C   UNL     1       4.661   6.221  16.533  0.00  0.00    +0.000 A 
ATOM     23  C   UNL     1       5.665   6.140  15.555  0.00  0.00    +0.000 A 
ATOM     24  C   UNL     1       6.249   4.902  15.275  0.00  0.00    +0.000 A 
ATOM     25  C   UNL     1       5.825   3.758  15.940  0.00  0.00    +0.000 A 
ATOM     26  C   UNL     1       4.816   3.820  16.909  0.00  0.00    +0.000 A 
ATOM     27  C   UNL     1       4.266   5.081  17.222  0.00  0.00    +0.000 A 
ATOM     28  N   UNL     1       3.272   5.519  18.106  0.00  0.00    +0.000 N 
BRANCH  28  29
ATOM     29  C   UNL     1       2.554   4.690  19.025  0.00  0.00    +0.000 A 
ATOM     30  C   UNL     1       1.540   3.836  18.565  0.00  0.00    +0.000 A 
ATOM     31  C   UNL     1       0.786   3.074  19.460  0.00  0.00    +0.000 A 
ATOM     32  C   UNL     1       1.059   3.129  20.822  0.00  0.00    +0.000 A 
ATOM     33  C   UNL     1       2.077   3.954  21.291  0.00  0.00    +0.000 A 
ATOM     34  C   UNL     1       2.814   4.743  20.399  0.00  0.00    +0.000 A 
ENDBRANCH  28  29
ENDBRANCH  19  20
ENDBRANCH  18  19
ENDBRANCH   2  18
TORSDOF 7
ENDMDL
MODEL 7
REMARK VINA RESULT:      -9.1      5.187     10.413
REMARK  Name = 
REMARK  7 active torsions:
REMARK  status: ('A' for Active; 'I' for Inactive)
REMARK    1  A    between atoms: C_2  and  C_3
REMARK    2  A    between atoms: C_3  and  C_4
REMARK    3  A    between atoms: C_4  and  C_5
REMARK    4  A    between atoms: N_13  and  C_14
REMARK    5  A    between atoms: N_20  and  C_21
REMARK    6  A    between atoms: N_24  and  C_25
REMARK    7  A    between atoms: C_25  and  C_26
REMARK                            x       y       z     vdW  Elec       q    Type
REMARK                         _______ _______ _______ _____ _____    ______ ____
ROOT
ATOM      1  O   UNL     1      -0.134   9.392  17.484  0.00  0.00    +0.000 OA
ATOM      2  C   UNL     1       0.764   9.805  18.203  0.00  0.00    +0.000 C 
ATOM      3  N   UNL     1       0.602  10.817  19.126  0.00  0.00    +0.000 N 
ATOM      4  H   UNL     1       1.359  10.991  19.774  0.00  0.00    +0.000 HD
ENDROOT
BRANCH   3   5
ATOM      5  C   UNL     1      -0.687  11.461  19.395  0.00  0.00    +0.000 C 
ATOM      6  C   UNL     1      -0.929  12.618  18.429  0.00  0.00    +0.000 C 
ATOM      7  C   UNL     1      -0.022  13.813  18.728  0.00  0.00    +0.000 C 
ATOM      8  N   UNL     1      -0.162  14.279  20.117  0.00  0.00    +0.000 NA
ATOM      9  C   UNL     1       0.099  13.195  21.079  0.00  0.00    +0.000 C 
ATOM     10  C   UNL     1      -0.785  11.967  20.835  0.00  0.00    +0.000 C 
BRANCH   8  11
ATOM     11  C   UNL     1       0.739  15.423  20.394  0.00  0.00    +0.000 C 
BRANCH  11  12
ATOM     12  C   UNL     1       1.914  15.505  19.438  0.00  0.00    +0.000 A 
ATOM     13  C   UNL     1       1.975  16.520  18.472  0.00  0.00    +0.000 A 
ATOM     14  C   UNL     1       2.987  16.522  17.512  0.00  0.00    +0.000 A 
ATOM     15  C   UNL     1       3.960  15.525  17.519  0.00  0.00    +0.000 A 
ATOM     16  C   UNL     1       3.938  14.538  18.504  0.00  0.00    +0.000 A 
ATOM     17  C   UNL     1       2.923  14.530  19.462  0.00  0.00    +0.000 A 
ENDBRANCH  11  12
ENDBRANCH   8  11
ENDBRANCH   3   5
BRANCH   2  18
ATOM     18  C   UNL     1       2.175   9.251  18.148  0.00  0.00    +0.000 C 
BRANCH  18  19
ATOM     19  C   UNL     1       2.234   7.855  18.773  0.00  0.00    +0.000 C 
BRANCH  19  20
ATOM     20  C   UNL     1       3.074   6.906  17.959  0.00  0.00    +0.000 A 
ATOM     21  N   UNL     1       3.904   7.317  17.015  0.00  0.00    +0.000 NA
ATOM     22  C   UNL     1       4.604   6.217  16.612  0.00  0.00    +0.000 A 
ATOM     23  C   UNL     1       5.616   6.129  15.642  0.00  0.00    +0.000 A 
ATOM     24  C   UNL     1       6.189   4.886  15.363  0.00  0.00    +0.000 A 
ATOM     25  C   UNL     1       5.747   3.744  16.020  0.00  0.00    +0.000 A 
ATOM     26  C   UNL     1       4.730   3.813  16.981  0.00  0.00    +0.000 A 
ATOM     27  C   UNL     1       4.190   5.079  17.294  0.00  0.00    +0.000 A 
ATOM     28  N   UNL     1       3.194   5.524  18.170  0.00  0.00    +0.000 N 
BRANCH  28  29
ATOM     29  C   UNL     1       2.459   4.699  19.079  0.00  0.00    +0.000 A 
ATOM     30  C   UNL     1       2.754   4.719  20.451  0.00  0.00    +0.000 A 
ATOM     31  C   UNL     1       2.091   3.868  21.338  0.00  0.00    +0.000 A 
ATOM     32  C   UNL     1       1.100   3.011  20.871  0.00  0.00    +0.000 A 
ATOM     33  C   UNL     1       0.781   2.997  19.516  0.00  0.00    +0.000 A 
ATOM     34  C   UNL     1       1.466   3.826  18.620  0.00  0.00    +0.000 A 
ENDBRANCH  28  29
ENDBRANCH  19  20
ENDBRANCH  18  19
ENDBRANCH   2  18
TORSDOF 7
ENDMDL
MODEL 8
REMARK VINA RESULT:      -9.1      6.483     10.478
REMARK  Name = 
REMARK  7 active torsions:
REMARK  status: ('A' for Active; 'I' for Inactive)
REMARK    1  A    between atoms: C_2  and  C_3
REMARK    2  A    between atoms: C_3  and  C_4
REMARK    3  A    between atoms: C_4  and  C_5
REMARK    4  A    between atoms: N_13  and  C_14
REMARK    5  A    between atoms: N_20  and  C_21
REMARK    6  A    between atoms: N_24  and  C_25
REMARK    7  A    between atoms: C_25  and  C_26
REMARK                            x       y       z     vdW  Elec       q    Type
REMARK                         _______ _______ _______ _____ _____    ______ ____
ROOT
ATOM      1  O   UNL     1       2.469  10.644  17.758  0.00  0.00    +0.000 OA
ATOM      2  C   UNL     1       1.624  10.041  18.403  0.00  0.00    +0.000 C 
ATOM      3  N   UNL     1       0.847  10.624  19.383  0.00  0.00    +0.000 N 
ATOM      4  H   UNL     1       0.078  10.085  19.759  0.00  0.00    +0.000 HD
ENDROOT
BRANCH   3   5
ATOM      5  C   UNL     1       0.902  12.052  19.708  0.00  0.00    +0.000 C 
ATOM      6  C   UNL     1       0.395  12.307  21.125  0.00  0.00    +0.000 C 
ATOM      7  C   UNL     1      -1.119  12.117  21.234  0.00  0.00    +0.000 C 
ATOM      8  N   UNL     1      -1.853  12.961  20.279  0.00  0.00    +0.000 NA
ATOM      9  C   UNL     1      -1.413  12.716  18.894  0.00  0.00    +0.000 C 
ATOM     10  C   UNL     1       0.098  12.896  18.717  0.00  0.00    +0.000 C 
BRANCH   8  11
ATOM     11  C   UNL     1      -3.315  12.747  20.385  0.00  0.00    +0.000 C 
BRANCH  11  12
ATOM     12  C   UNL     1      -3.951  13.512  21.531  0.00  0.00    +0.000 A 
ATOM     13  C   UNL     1      -3.680  14.876  21.712  0.00  0.00    +0.000 A 
ATOM     14  C   UNL     1      -4.159  15.549  22.836  0.00  0.00    +0.000 A 
ATOM     15  C   UNL     1      -4.931  14.873  23.780  0.00  0.00    +0.000 A 
ATOM     16  C   UNL     1      -5.247  13.529  23.586  0.00  0.00    +0.000 A 
ATOM     17  C   UNL     1      -4.764  12.852  22.465  0.00  0.00    +0.000 A 
ENDBRANCH  11  12
ENDBRANCH   8  11
ENDBRANCH   3   5
BRANCH   2  18
ATOM     18  C   UNL     1       1.343   8.564  18.203  0.00  0.00    +0.000 C 
BRANCH  18  19
ATOM     19  C   UNL     1       2.347   7.711  18.985  0.00  0.00    +0.000 C 
BRANCH  19  20
ATOM     20  C   UNL     1       3.152   6.815  18.080  0.00  0.00    +0.000 A 
ATOM     21  N   UNL     1       3.967   7.284  17.151  0.00  0.00    +0.000 NA
ATOM     22  C   UNL     1       4.639   6.208  16.650  0.00  0.00    +0.000 A 
ATOM     23  C   UNL     1       5.627   6.179  15.652  0.00  0.00    +0.000 A 
ATOM     24  C   UNL     1       6.173   4.953  15.265  0.00  0.00    +0.000 A 
ATOM     25  C   UNL     1       5.726   3.770  15.843  0.00  0.00    +0.000 A 
ATOM     26  C   UNL     1       4.732   3.781  16.830  0.00  0.00    +0.000 A 
ATOM     27  C   UNL     1       4.221   5.027  17.252  0.00  0.00    +0.000 A 
ATOM     28  N   UNL     1       3.252   5.419  18.182  0.00  0.00    +0.000 N 
BRANCH  28  29
ATOM     29  C   UNL     1       2.524   4.538  19.043  0.00  0.00    +0.000 A 
ATOM     30  C   UNL     1       1.504   3.726  18.526  0.00  0.00    +0.000 A 
ATOM     31  C   UNL     1       0.739   2.913  19.367  0.00  0.00    +0.000 A 
ATOM     32  C   UNL     1       1.009   2.876  20.731  0.00  0.00    +0.000 A 
ATOM     33  C   UNL     1       2.034   3.659  21.255  0.00  0.00    +0.000 A 
ATOM     34  C   UNL     1       2.780   4.498  20.419  0.00  0.00    +0.000 A 
ENDBRANCH  28  29
ENDBRANCH  19  20
ENDBRANCH  18  19
ENDBRANCH   2  18
TORSDOF 7
ENDMDL
MODEL 9
REMARK VINA RESULT:      -9.0      6.385     10.627
REMARK  Name = 
REMARK  7 active torsions:
REMARK  status: ('A' for Active; 'I' for Inactive)
REMARK    1  A    between atoms: C_2  and  C_3
REMARK    2  A    between atoms: C_3  and  C_4
REMARK    3  A    between atoms: C_4  and  C_5
REMARK    4  A    between atoms: N_13  and  C_14
REMARK    5  A    between atoms: N_20  and  C_21
REMARK    6  A    between atoms: N_24  and  C_25
REMARK    7  A    between atoms: C_25  and  C_26
REMARK                            x       y       z     vdW  Elec       q    Type
REMARK                         _______ _______ _______ _____ _____    ______ ____
ROOT
ATOM      1  O   UNL     1       2.687  10.705  17.538  0.00  0.00    +0.000 OA
ATOM      2  C   UNL     1       1.888   9.981  18.112  0.00  0.00    +0.000 C 
ATOM      3  N   UNL     1       1.072  10.404  19.142  0.00  0.00    +0.000 N 
ATOM      4  H   UNL     1       0.344   9.776  19.456  0.00  0.00    +0.000 HD
ENDROOT
BRANCH   3   5
ATOM      5  C   UNL     1       1.025  11.791  19.611  0.00  0.00    +0.000 C 
ATOM      6  C   UNL     1       0.355  11.879  20.981  0.00  0.00    +0.000 C 
ATOM      7  C   UNL     1      -1.151  11.626  20.898  0.00  0.00    +0.000 C 
ATOM      8  N   UNL     1      -1.815  12.539  19.953  0.00  0.00    +0.000 NA
ATOM      9  C   UNL     1      -1.214  12.455  18.611  0.00  0.00    +0.000 C 
ATOM     10  C   UNL     1       0.297  12.705  18.625  0.00  0.00    +0.000 C 
BRANCH   8  11
ATOM     11  C   UNL     1      -3.268  12.265  19.872  0.00  0.00    +0.000 C 
BRANCH  11  12
ATOM     12  C   UNL     1      -4.091  13.098  20.836  0.00  0.00    +0.000 A 
ATOM     13  C   UNL     1      -3.501  14.158  21.541  0.00  0.00    +0.000 A 
ATOM     14  C   UNL     1      -4.220  14.842  22.521  0.00  0.00    +0.000 A 
ATOM     15  C   UNL     1      -5.541  14.490  22.793  0.00  0.00    +0.000 A 
ATOM     16  C   UNL     1      -6.153  13.470  22.066  0.00  0.00    +0.000 A 
ATOM     17  C   UNL     1      -5.433  12.780  21.089  0.00  0.00    +0.000 A 
ENDBRANCH  11  12
ENDBRANCH   8  11
ENDBRANCH   3   5
BRANCH   2  18
ATOM     18  C   UNL     1       1.713   8.515  17.761  0.00  0.00    +0.000 C 
BRANCH  18  19
ATOM     19  C   UNL     1       3.068   7.804  17.715  0.00  0.00    +0.000 C 
BRANCH  19  20
ATOM     20  C   UNL     1       3.093   6.577  18.589  0.00  0.00    +0.000 A 
ATOM     21  N   UNL     1       2.265   6.407  19.606  0.00  0.00    +0.000 NA
ATOM     22  C   UNL     1       2.462   5.135  20.055  0.00  0.00    +0.000 A 
ATOM     23  C   UNL     1       1.816   4.467  21.108  0.00  0.00    +0.000 A 
ATOM     24  C   UNL     1       2.193   3.159  21.421  0.00  0.00    +0.000 A 
ATOM     25  C   UNL     1       3.213   2.532  20.715  0.00  0.00    +0.000 A 
ATOM     26  C   UNL     1       3.876   3.189  19.671  0.00  0.00    +0.000 A 
ATOM     27  C   UNL     1       3.456   4.492  19.327  0.00  0.00    +0.000 A 
ATOM     28  N   UNL     1       3.869   5.428  18.373  0.00  0.00    +0.000 N 
BRANCH  28  29
ATOM     29  C   UNL     1       4.892   5.220  17.393  0.00  0.00    +0.000 A 
ATOM     30  C   UNL     1       6.135   5.858  17.521  0.00  0.00    +0.000 A 
ATOM     31  C   UNL     1       7.116   5.717  16.536  0.00  0.00    +0.000 A 
ATOM     32  C   UNL     1       6.879   4.910  15.429  0.00  0.00    +0.000 A 
ATOM     33  C   UNL     1       5.659   4.253  15.301  0.00  0.00    +0.000 A 
ATOM     34  C   UNL     1       4.663   4.417  16.270  0.00  0.00    +0.000 A 
ENDBRANCH  28  29
ENDBRANCH  19  20
ENDBRANCH  18  19
ENDBRANCH   2  18
TORSDOF 7
ENDMDL
