MODEL 1
REMARK VINA RESULT:      -9.2      0.000      0.000
REMARK  Name = 
REMARK  2 active torsions:
REMARK  status: ('A' for Active; 'I' for Inactive)
REMARK    1  A    between atoms: C_2  and  C_3
REMARK    2  A    between atoms: N_11  and  C_12
REMARK                            x       y       z     vdW  Elec       q    Type
REMARK                         _______ _______ _______ _____ _____    ______ ____
ROOT
ATOM      1  C   UNL     1       1.932   8.164  18.971  0.00  0.00    +0.000 A 
ATOM      2  C   UNL     1       1.370   8.844  17.861  0.00  0.00    +0.000 A 
ATOM      3  C   UNL     1       0.524   9.952  18.032  0.00  0.00    +0.000 A 
ATOM      4  C   UNL     1       0.285  10.370  19.326  0.00  0.00    +0.000 A 
ATOM      5  C   UNL     1       0.852   9.726  20.403  0.00  0.00    +0.000 A 
ATOM      6  C   UNL     1       1.621   8.592  20.266  0.00  0.00    +0.000 A 
ATOM      7  C   UNL     1       0.434  10.405  21.623  0.00  0.00    +0.000 C 
ATOM      8  O   UNL     1       0.755  10.019  22.729  0.00  0.00    +0.000 OA
ATOM      9  N   UNL     1      -0.386  11.430  21.220  0.00  0.00    +0.000 N 
ATOM     10  C   UNL     1      -0.579  11.427  19.861  0.00  0.00    +0.000 C 
ATOM     11  O   UNL     1      -1.301  12.114  19.163  0.00  0.00    +0.000 OA
ENDROOT
BRANCH   1  13
ATOM     12  O   UNL     1       3.712   7.048  18.016  0.00  0.00    +0.000 OA
ATOM     13  C   UNL     1       2.718   6.916  18.730  0.00  0.00    +0.000 C 
ATOM     14  N   UNL     1       2.299   5.716  19.296  0.00  0.00    +0.000 N 
ATOM     15  C   UNL     1       1.254   5.501  20.322  0.00  0.00    +0.000 C 
ATOM     16  C   UNL     1       1.293   4.032  20.746  0.00  0.00    +0.000 C 
ATOM     17  C   UNL     1       2.178   3.448  19.698  0.00  0.00    +0.000 A 
ATOM     18  C   UNL     1       2.427   2.103  19.473  0.00  0.00    +0.000 A 
ATOM     19  C   UNL     1       3.337   1.757  18.475  0.00  0.00    +0.000 A 
ATOM     20  C   UNL     1       3.989   2.753  17.733  0.00  0.00    +0.000 A 
ATOM     21  C   UNL     1       3.719   4.107  17.960  0.00  0.00    +0.000 A 
ATOM     22  C   UNL     1       2.797   4.444  18.937  0.00  0.00    +0.000 A 
ENDBRANCH   1  13
BRANCH   9  23
ATOM     23  C   UNL     1      -1.053  12.278  22.125  0.00  0.00    +0.000 A 
ATOM     24  C   UNL     1      -2.285  11.870  22.658  0.00  0.00    +0.000 A 
ATOM     25  C   UNL     1      -2.943  12.664  23.599  0.00  0.00    +0.000 A 
ATOM     26  C   UNL     1      -2.396  13.885  23.991  0.00  0.00    +0.000 A 
ATOM     27  C   UNL     1      -1.185  14.313  23.444  0.00  0.00    +0.000 A 
ATOM     28  C   UNL     1      -0.508  13.510  22.522  0.00  0.00    +0.000 A 
ATOM     29 CL   UNL     1       0.927  14.156  21.802  0.00  0.00    +0.000 Cl
ENDBRANCH   9  23
TORSDOF 2
ENDMDL
MODEL 2
REMARK VINA RESULT:      -8.8      3.275      9.113
REMARK  Name = 
REMARK  2 active torsions:
REMARK  status: ('A' for Active; 'I' for Inactive)
REMARK    1  A    between atoms: C_2  and  C_3
REMARK    2  A    between atoms: N_11  and  C_12
REMARK                            x       y       z     vdW  Elec       q    Type
REMARK                         _______ _______ _______ _____ _____    ______ ____
ROOT
ATOM      1  C   UNL     1       0.321   9.689  19.917  0.00  0.00    +0.000 A 
ATOM      2  C   UNL     1       0.395   8.829  21.042  0.00  0.00    +0.000 A 
ATOM      3  C   UNL     1       1.244   7.710  21.055  0.00  0.00    +0.000 A 
ATOM      4  C   UNL     1       2.024   7.497  19.937  0.00  0.00    +0.000 A 
ATOM      5  C   UNL     1       1.973   8.347  18.855  0.00  0.00    +0.000 A 
ATOM      6  C   UNL     1       1.095   9.404  18.786  0.00  0.00    +0.000 A 
ATOM      7  C   UNL     1       2.918   7.877  17.850  0.00  0.00    +0.000 C 
ATOM      8  O   UNL     1       3.049   8.419  16.770  0.00  0.00    +0.000 OA
ATOM      9  N   UNL     1       3.492   6.745  18.374  0.00  0.00    +0.000 N 
ATOM     10  C   UNL     1       2.953   6.415  19.593  0.00  0.00    +0.000 C 
ATOM     11  O   UNL     1       3.141   5.448  20.306  0.00  0.00    +0.000 OA
ENDROOT
BRANCH   1  13
ATOM     12  O   UNL     1      -0.522  11.666  20.756  0.00  0.00    +0.000 OA
ATOM     13  C   UNL     1      -0.693  10.786  19.912  0.00  0.00    +0.000 C 
ATOM     14  N   UNL     1      -1.740  10.755  18.997  0.00  0.00    +0.000 N 
ATOM     15  C   UNL     1      -1.910   9.864  17.827  0.00  0.00    +0.000 C 
ATOM     16  C   UNL     1      -3.128  10.341  17.034  0.00  0.00    +0.000 C 
ATOM     17  C   UNL     1      -3.741  11.306  17.990  0.00  0.00    +0.000 A 
ATOM     18  C   UNL     1      -4.980  11.918  17.876  0.00  0.00    +0.000 A 
ATOM     19  C   UNL     1      -5.353  12.841  18.852  0.00  0.00    +0.000 A 
ATOM     20  C   UNL     1      -4.484  13.146  19.910  0.00  0.00    +0.000 A 
ATOM     21  C   UNL     1      -3.242  12.512  20.022  0.00  0.00    +0.000 A 
ATOM     22  C   UNL     1      -2.886  11.578  19.062  0.00  0.00    +0.000 A 
ENDBRANCH   1  13
BRANCH   9  23
ATOM     23  C   UNL     1       4.414   5.954  17.663  0.00  0.00    +0.000 A 
ATOM     24  C   UNL     1       5.723   6.426  17.486  0.00  0.00    +0.000 A 
ATOM     25  C   UNL     1       6.675   5.639  16.834  0.00  0.00    +0.000 A 
ATOM     26  C   UNL     1       6.320   4.391  16.324  0.00  0.00    +0.000 A 
ATOM     27  C   UNL     1       5.013   3.924  16.470  0.00  0.00    +0.000 A 
ATOM     28  C   UNL     1       4.063   4.696  17.145  0.00  0.00    +0.000 A 
ATOM     29 CL   UNL     1       2.437   4.106  17.187  0.00  0.00    +0.000 Cl
ENDBRANCH   9  23
TORSDOF 2
ENDMDL
MODEL 3
REMARK VINA RESULT:      -8.4      1.540      2.266
REMARK  Name = 
REMARK  2 active torsions:
REMARK  status: ('A' for Active; 'I' for Inactive)
REMARK    1  A    between atoms: C_2  and  C_3
REMARK    2  A    between atoms: N_11  and  C_12
REMARK                            x       y       z     vdW  Elec       q    Type
REMARK                         _______ _______ _______ _____ _____    ______ ____
ROOT
ATOM      1  C   UNL     1       1.468   8.277  20.097  0.00  0.00    +0.000 A 
ATOM      2  C   UNL     1       1.544   8.305  21.513  0.00  0.00    +0.000 A 
ATOM      3  C   UNL     1       0.869   9.280  22.265  0.00  0.00    +0.000 A 
ATOM      4  C   UNL     1       0.106  10.196  21.571  0.00  0.00    +0.000 A 
ATOM      5  C   UNL     1       0.009  10.154  20.197  0.00  0.00    +0.000 A 
ATOM      6  C   UNL     1       0.721   9.257  19.433  0.00  0.00    +0.000 A 
ATOM      7  C   UNL     1      -0.878  11.225  19.761  0.00  0.00    +0.000 C 
ATOM      8  O   UNL     1      -1.108  11.446  18.589  0.00  0.00    +0.000 OA
ATOM      9  N   UNL     1      -1.268  11.878  20.904  0.00  0.00    +0.000 N 
ATOM     10  C   UNL     1      -0.661  11.361  22.022  0.00  0.00    +0.000 C 
ATOM     11  O   UNL     1      -0.691  11.731  23.180  0.00  0.00    +0.000 OA
ENDROOT
BRANCH   1  13
ATOM     12  O   UNL     1       3.003   7.775  18.450  0.00  0.00    +0.000 OA
ATOM     13  C   UNL     1       2.309   7.297  19.347  0.00  0.00    +0.000 C 
ATOM     14  N   UNL     1       2.263   5.948  19.684  0.00  0.00    +0.000 N 
ATOM     15  C   UNL     1       1.629   5.318  20.864  0.00  0.00    +0.000 C 
ATOM     16  C   UNL     1       2.007   3.836  20.877  0.00  0.00    +0.000 C 
ATOM     17  C   UNL     1       2.598   3.671  19.518  0.00  0.00    +0.000 A 
ATOM     18  C   UNL     1       2.955   2.481  18.903  0.00  0.00    +0.000 A 
ATOM     19  C   UNL     1       3.550   2.540  17.644  0.00  0.00    +0.000 A 
ATOM     20  C   UNL     1       3.790   3.778  17.030  0.00  0.00    +0.000 A 
ATOM     21  C   UNL     1       3.413   4.972  17.655  0.00  0.00    +0.000 A 
ATOM     22  C   UNL     1       2.801   4.906  18.896  0.00  0.00    +0.000 A 
ENDBRANCH   1  13
BRANCH   9  23
ATOM     23  C   UNL     1      -2.079  13.029  20.889  0.00  0.00    +0.000 A 
ATOM     24  C   UNL     1      -3.472  12.882  20.950  0.00  0.00    +0.000 A 
ATOM     25  C   UNL     1      -4.299  14.006  20.994  0.00  0.00    +0.000 A 
ATOM     26  C   UNL     1      -3.745  15.285  20.943  0.00  0.00    +0.000 A 
ATOM     27  C   UNL     1      -2.361  15.442  20.854  0.00  0.00    +0.000 A 
ATOM     28  C   UNL     1      -1.527  14.321  20.837  0.00  0.00    +0.000 A 
ATOM     29 CL   UNL     1       0.167  14.588  20.609  0.00  0.00    +0.000 Cl
ENDBRANCH   9  23
TORSDOF 2
ENDMDL
MODEL 4
REMARK VINA RESULT:      -8.4      2.562      9.078
REMARK  Name = 
REMARK  2 active torsions:
REMARK  status: ('A' for Active; 'I' for Inactive)
REMARK    1  A    between atoms: C_2  and  C_3
REMARK    2  A    between atoms: N_11  and  C_12
REMARK                            x       y       z     vdW  Elec       q    Type
REMARK                         _______ _______ _______ _____ _____    ______ ____
ROOT
ATOM      1  C   UNL     1       0.194  10.267  20.617  0.00  0.00    +0.000 A 
ATOM      2  C   UNL     1       0.557  10.866  19.382  0.00  0.00    +0.000 A 
ATOM      3  C   UNL     1       1.371  10.196  18.455  0.00  0.00    +0.000 A 
ATOM      4  C   UNL     1       1.783   8.921  18.781  0.00  0.00    +0.000 A 
ATOM      5  C   UNL     1       1.410   8.328  19.967  0.00  0.00    +0.000 A 
ATOM      6  C   UNL     1       0.677   8.992  20.926  0.00  0.00    +0.000 A 
ATOM      7  C   UNL     1       1.977   6.987  20.016  0.00  0.00    +0.000 C 
ATOM      8  O   UNL     1       1.840   6.253  20.974  0.00  0.00    +0.000 OA
ATOM      9  N   UNL     1       2.684   6.835  18.849  0.00  0.00    +0.000 N 
ATOM     10  C   UNL     1       2.673   7.981  18.091  0.00  0.00    +0.000 C 
ATOM     11  O   UNL     1       3.253   8.251  17.057  0.00  0.00    +0.000 OA
ENDROOT
BRANCH   1  13
ATOM     12  O   UNL     1      -0.077  11.117  22.744  0.00  0.00    +0.000 OA
ATOM     13  C   UNL     1      -0.566  11.078  21.615  0.00  0.00    +0.000 C 
ATOM     14  N   UNL     1      -1.744  11.714  21.236  0.00  0.00    +0.000 N 
ATOM     15  C   UNL     1      -2.291  11.894  19.872  0.00  0.00    +0.000 C 
ATOM     16  C   UNL     1      -3.510  12.813  19.963  0.00  0.00    +0.000 C 
ATOM     17  C   UNL     1      -3.740  12.851  21.436  0.00  0.00    +0.000 A 
ATOM     18  C   UNL     1      -4.833  13.394  22.094  0.00  0.00    +0.000 A 
ATOM     19  C   UNL     1      -4.837  13.384  23.487  0.00  0.00    +0.000 A 
ATOM     20  C   UNL     1      -3.752  12.847  24.196  0.00  0.00    +0.000 A 
ATOM     21  C   UNL     1      -2.661  12.290  23.520  0.00  0.00    +0.000 A 
ATOM     22  C   UNL     1      -2.673  12.282  22.135  0.00  0.00    +0.000 A 
ENDBRANCH   1  13
BRANCH   9  23
ATOM     23  C   UNL     1       3.443   5.686  18.556  0.00  0.00    +0.000 A 
ATOM     24  C   UNL     1       4.815   5.684  18.848  0.00  0.00    +0.000 A 
ATOM     25  C   UNL     1       5.582   4.539  18.621  0.00  0.00    +0.000 A 
ATOM     26  C   UNL     1       4.995   3.401  18.070  0.00  0.00    +0.000 A 
ATOM     27  C   UNL     1       3.637   3.403  17.750  0.00  0.00    +0.000 A 
ATOM     28  C   UNL     1       2.858   4.536  18.000  0.00  0.00    +0.000 A 
ATOM     29 CL   UNL     1       1.211   4.507  17.471  0.00  0.00    +0.000 Cl
ENDBRANCH   9  23
TORSDOF 2
ENDMDL
MODEL 5
REMARK VINA RESULT:      -8.4      3.034      9.054
REMARK  Name = 
REMARK  2 active torsions:
REMARK  status: ('A' for Active; 'I' for Inactive)
REMARK    1  A    between atoms: C_2  and  C_3
REMARK    2  A    between atoms: N_11  and  C_12
REMARK                            x       y       z     vdW  Elec       q    Type
REMARK                         _______ _______ _______ _____ _____    ______ ____
ROOT
ATOM      1  C   UNL     1       0.651   9.477  19.784  0.00  0.00    +0.000 A 
ATOM      2  C   UNL     1       0.751   8.598  20.893  0.00  0.00    +0.000 A 
ATOM      3  C   UNL     1       1.590   7.472  20.862  0.00  0.00    +0.000 A 
ATOM      4  C   UNL     1       2.334   7.270  19.718  0.00  0.00    +0.000 A 
ATOM      5  C   UNL     1       2.258   8.137  18.650  0.00  0.00    +0.000 A 
ATOM      6  C   UNL     1       1.387   9.203  18.626  0.00  0.00    +0.000 A 
ATOM      7  C   UNL     1       3.167   7.676  17.610  0.00  0.00    +0.000 C 
ATOM      8  O   UNL     1       3.270   8.234  16.536  0.00  0.00    +0.000 OA
ATOM      9  N   UNL     1       3.747   6.531  18.098  0.00  0.00    +0.000 N 
ATOM     10  C   UNL     1       3.242   6.186  19.328  0.00  0.00    +0.000 C 
ATOM     11  O   UNL     1       3.443   5.206  20.019  0.00  0.00    +0.000 OA
ENDROOT
BRANCH   1  13
ATOM     12  O   UNL     1      -0.141  11.454  20.670  0.00  0.00    +0.000 OA
ATOM     13  C   UNL     1      -0.353  10.582  19.828  0.00  0.00    +0.000 C 
ATOM     14  N   UNL     1      -1.436  10.566  18.955  0.00  0.00    +0.000 N 
ATOM     15  C   UNL     1      -1.660   9.686  17.786  0.00  0.00    +0.000 C 
ATOM     16  C   UNL     1      -2.904  10.180  17.046  0.00  0.00    +0.000 C 
ATOM     17  C   UNL     1      -3.471  11.143  18.033  0.00  0.00    +0.000 A 
ATOM     18  C   UNL     1      -4.707  11.766  17.973  0.00  0.00    +0.000 A 
ATOM     19  C   UNL     1      -5.033  12.685  18.969  0.00  0.00    +0.000 A 
ATOM     20  C   UNL     1      -4.121  12.974  19.994  0.00  0.00    +0.000 A 
ATOM     21  C   UNL     1      -2.881  12.328  20.052  0.00  0.00    +0.000 A 
ATOM     22  C   UNL     1      -2.571  11.399  19.071  0.00  0.00    +0.000 A 
ENDBRANCH   1  13
BRANCH   9  23
ATOM     23  C   UNL     1       4.639   5.743  17.347  0.00  0.00    +0.000 A 
ATOM     24  C   UNL     1       4.225   4.477  16.907  0.00  0.00    +0.000 A 
ATOM     25  C   UNL     1       5.068   3.697  16.113  0.00  0.00    +0.000 A 
ATOM     26  C   UNL     1       6.341   4.157  15.780  0.00  0.00    +0.000 A 
ATOM     27  C   UNL     1       6.773   5.403  16.237  0.00  0.00    +0.000 A 
ATOM     28  C   UNL     1       5.925   6.200  17.010  0.00  0.00    +0.000 A 
ATOM     29 CL   UNL     1       6.568   7.679  17.636  0.00  0.00    +0.000 Cl
ENDBRANCH   9  23
TORSDOF 2
ENDMDL
MODEL 6
REMARK VINA RESULT:      -8.4      2.356      8.980
REMARK  Name = 
REMARK  2 active torsions:
REMARK  status: ('A' for Active; 'I' for Inactive)
REMARK    1  A    between atoms: C_2  and  C_3
REMARK    2  A    between atoms: N_11  and  C_12
REMARK                            x       y       z     vdW  Elec       q    Type
REMARK                         _______ _______ _______ _____ _____    ______ ____
ROOT
ATOM      1  C   UNL     1       1.071  10.193  19.888  0.00  0.00    +0.000 A 
ATOM      2  C   UNL     1       1.622  10.464  18.609  0.00  0.00    +0.000 A 
ATOM      3  C   UNL     1       2.231   9.455  17.845  0.00  0.00    +0.000 A 
ATOM      4  C   UNL     1       2.248   8.183  18.378  0.00  0.00    +0.000 A 
ATOM      5  C   UNL     1       1.690   7.913  19.608  0.00  0.00    +0.000 A 
ATOM      6  C   UNL     1       1.157   8.898  20.409  0.00  0.00    +0.000 A 
ATOM      7  C   UNL     1       1.844   6.491  19.886  0.00  0.00    +0.000 C 
ATOM      8  O   UNL     1       1.477   5.985  20.928  0.00  0.00    +0.000 OA
ATOM      9  N   UNL     1       2.506   5.966  18.805  0.00  0.00    +0.000 N 
ATOM     10  C   UNL     1       2.845   6.934  17.892  0.00  0.00    +0.000 C 
ATOM     11  O   UNL     1       3.504   6.864  16.872  0.00  0.00    +0.000 OA
ENDROOT
BRANCH   1  13
ATOM     12  O   UNL     1       1.355  11.815  21.505  0.00  0.00    +0.000 OA
ATOM     13  C   UNL     1       0.553  11.331  20.706  0.00  0.00    +0.000 C 
ATOM     14  N   UNL     1      -0.758  11.763  20.536  0.00  0.00    +0.000 N 
ATOM     15  C   UNL     1      -1.717  11.388  19.472  0.00  0.00    +0.000 C 
ATOM     16  C   UNL     1      -2.961  12.266  19.617  0.00  0.00    +0.000 C 
ATOM     17  C   UNL     1      -2.731  12.883  20.955  0.00  0.00    +0.000 A 
ATOM     18  C   UNL     1      -3.631  13.640  21.688  0.00  0.00    +0.000 A 
ATOM     19  C   UNL     1      -3.205  14.181  22.900  0.00  0.00    +0.000 A 
ATOM     20  C   UNL     1      -1.893  13.971  23.350  0.00  0.00    +0.000 A 
ATOM     21  C   UNL     1      -0.998  13.193  22.606  0.00  0.00    +0.000 A 
ATOM     22  C   UNL     1      -1.434  12.639  21.414  0.00  0.00    +0.000 A 
ENDBRANCH   1  13
BRANCH   9  23
ATOM     23  C   UNL     1       2.907   4.618  18.732  0.00  0.00    +0.000 A 
ATOM     24  C   UNL     1       1.954   3.640  18.410  0.00  0.00    +0.000 A 
ATOM     25  C   UNL     1       2.335   2.303  18.276  0.00  0.00    +0.000 A 
ATOM     26  C   UNL     1       3.659   1.926  18.495  0.00  0.00    +0.000 A 
ATOM     27  C   UNL     1       4.608   2.888  18.845  0.00  0.00    +0.000 A 
ATOM     28  C   UNL     1       4.240   4.231  18.954  0.00  0.00    +0.000 A 
ATOM     29 CL   UNL     1       5.442   5.348  19.502  0.00  0.00    +0.000 Cl
ENDBRANCH   9  23
TORSDOF 2
ENDMDL
MODEL 7
REMARK VINA RESULT:      -8.4      1.463      1.772
REMARK  Name = 
REMARK  2 active torsions:
REMARK  status: ('A' for Active; 'I' for Inactive)
REMARK    1  A    between atoms: C_2  and  C_3
REMARK    2  A    between atoms: N_11  and  C_12
REMARK                            x       y       z     vdW  Elec       q    Type
REMARK                         _______ _______ _______ _____ _____    ______ ____
ROOT
ATOM      1  C   UNL     1       0.978   9.425  18.746  0.00  0.00    +0.000 A 
ATOM      2  C   UNL     1      -0.047   9.674  17.797  0.00  0.00    +0.000 A 
ATOM      3  C   UNL     1      -1.161  10.469  18.112  0.00  0.00    +0.000 A 
ATOM      4  C   UNL     1      -1.206  11.020  19.377  0.00  0.00    +0.000 A 
ATOM      5  C   UNL     1      -0.199  10.801  20.290  0.00  0.00    +0.000 A 
ATOM      6  C   UNL     1       0.864   9.964  20.032  0.00  0.00    +0.000 A 
ATOM      7  C   UNL     1      -0.516  11.525  21.514  0.00  0.00    +0.000 C 
ATOM      8  O   UNL     1       0.185  11.473  22.506  0.00  0.00    +0.000 OA
ATOM      9  N   UNL     1      -1.719  12.144  21.284  0.00  0.00    +0.000 N 
ATOM     10  C   UNL     1      -2.228  11.828  20.048  0.00  0.00    +0.000 C 
ATOM     11  O   UNL     1      -3.296  12.109  19.537  0.00  0.00    +0.000 OA
ENDROOT
BRANCH   1  13
ATOM     12  O   UNL     1       2.816   8.831  17.485  0.00  0.00    +0.000 OA
ATOM     13  C   UNL     1       2.070   8.469  18.395  0.00  0.00    +0.000 C 
ATOM     14  N   UNL     1       2.180   7.263  19.080  0.00  0.00    +0.000 N 
ATOM     15  C   UNL     1       1.471   6.838  20.309  0.00  0.00    +0.000 C 
ATOM     16  C   UNL     1       2.068   5.507  20.770  0.00  0.00    +0.000 C 
ATOM     17  C   UNL     1       2.887   5.126  19.584  0.00  0.00    +0.000 A 
ATOM     18  C   UNL     1       3.517   3.911  19.363  0.00  0.00    +0.000 A 
ATOM     19  C   UNL     1       4.290   3.767  18.212  0.00  0.00    +0.000 A 
ATOM     20  C   UNL     1       4.430   4.835  17.313  0.00  0.00    +0.000 A 
ATOM     21  C   UNL     1       3.778   6.052  17.540  0.00  0.00    +0.000 A 
ATOM     22  C   UNL     1       2.993   6.181  18.674  0.00  0.00    +0.000 A 
ENDBRANCH   1  13
BRANCH   9  23
ATOM     23  C   UNL     1      -2.399  12.888  22.267  0.00  0.00    +0.000 A 
ATOM     24  C   UNL     1      -3.135  12.207  23.247  0.00  0.00    +0.000 A 
ATOM     25  C   UNL     1      -3.774  12.916  24.267  0.00  0.00    +0.000 A 
ATOM     26  C   UNL     1      -3.711  14.308  24.298  0.00  0.00    +0.000 A 
ATOM     27  C   UNL     1      -3.005  14.996  23.310  0.00  0.00    +0.000 A 
ATOM     28  C   UNL     1      -2.341  14.292  22.302  0.00  0.00    +0.000 A 
ATOM     29 CL   UNL     1      -1.583  15.213  21.049  0.00  0.00    +0.000 Cl
ENDBRANCH   9  23
TORSDOF 2
ENDMDL
MODEL 8
REMARK VINA RESULT:      -8.3      3.306      9.350
REMARK  Name = 
REMARK  2 active torsions:
REMARK  status: ('A' for Active; 'I' for Inactive)
REMARK    1  A    between atoms: C_2  and  C_3
REMARK    2  A    between atoms: N_11  and  C_12
REMARK                            x       y       z     vdW  Elec       q    Type
REMARK                         _______ _______ _______ _____ _____    ______ ____
ROOT
ATOM      1  C   UNL     1       0.820  11.012  19.989  0.00  0.00    +0.000 A 
ATOM      2  C   UNL     1       0.703  10.353  21.240  0.00  0.00    +0.000 A 
ATOM      3  C   UNL     1       1.056   9.002  21.392  0.00  0.00    +0.000 A 
ATOM      4  C   UNL     1       1.547   8.349  20.280  0.00  0.00    +0.000 A 
ATOM      5  C   UNL     1       1.686   8.996  19.072  0.00  0.00    +0.000 A 
ATOM      6  C   UNL     1       1.275  10.295  18.878  0.00  0.00    +0.000 A 
ATOM      7  C   UNL     1       2.245   8.060  18.105  0.00  0.00    +0.000 C 
ATOM      8  O   UNL     1       2.433   8.355  16.942  0.00  0.00    +0.000 OA
ATOM      9  N   UNL     1       2.407   6.875  18.779  0.00  0.00    +0.000 N 
ATOM     10  C   UNL     1       1.942   6.952  20.069  0.00  0.00    +0.000 C 
ATOM     11  O   UNL     1       1.837   6.094  20.925  0.00  0.00    +0.000 OA
ENDROOT
BRANCH   1  13
ATOM     12  O   UNL     1      -0.916  12.530  19.903  0.00  0.00    +0.000 OA
ATOM     13  C   UNL     1       0.308  12.410  19.860  0.00  0.00    +0.000 C 
ATOM     14  N   UNL     1       1.205  13.461  19.698  0.00  0.00    +0.000 N 
ATOM     15  C   UNL     1       2.678  13.441  19.842  0.00  0.00    +0.000 C 
ATOM     16  C   UNL     1       3.189  14.880  19.743  0.00  0.00    +0.000 C 
ATOM     17  C   UNL     1       1.974  15.589  19.249  0.00  0.00    +0.000 A 
ATOM     18  C   UNL     1       1.898  16.900  18.804  0.00  0.00    +0.000 A 
ATOM     19  C   UNL     1       0.652  17.401  18.435  0.00  0.00    +0.000 A 
ATOM     20  C   UNL     1      -0.494  16.597  18.529  0.00  0.00    +0.000 A 
ATOM     21  C   UNL     1      -0.402  15.271  18.967  0.00  0.00    +0.000 A 
ATOM     22  C   UNL     1       0.843  14.771  19.310  0.00  0.00    +0.000 A 
ENDBRANCH   1  13
BRANCH   9  23
ATOM     23  C   UNL     1       2.859   5.695  18.158  0.00  0.00    +0.000 A 
ATOM     24  C   UNL     1       1.976   4.613  18.028  0.00  0.00    +0.000 A 
ATOM     25  C   UNL     1       2.379   3.450  17.367  0.00  0.00    +0.000 A 
ATOM     26  C   UNL     1       3.674   3.346  16.861  0.00  0.00    +0.000 A 
ATOM     27  C   UNL     1       4.569   4.406  17.011  0.00  0.00    +0.000 A 
ATOM     28  C   UNL     1       4.163   5.582  17.647  0.00  0.00    +0.000 A 
ATOM     29 CL   UNL     1       5.358   6.808  17.899  0.00  0.00    +0.000 Cl
ENDBRANCH   9  23
TORSDOF 2
ENDMDL
MODEL 9
REMARK VINA RESULT:      -8.3      2.596      9.039
REMARK  Name = 
REMARK  2 active torsions:
REMARK  status: ('A' for Active; 'I' for Inactive)
REMARK    1  A    between atoms: C_2  and  C_3
REMARK    2  A    between atoms: N_11  and  C_12
REMARK                            x       y       z     vdW  Elec       q    Type
REMARK                         _______ _______ _______ _____ _____    ______ ____
ROOT
ATOM      1  C   UNL     1       0.996  10.201  19.788  0.00  0.00    +0.000 A 
ATOM      2  C   UNL     1       1.609  10.480  18.539  0.00  0.00    +0.000 A 
ATOM      3  C   UNL     1       2.325   9.496  17.838  0.00  0.00    +0.000 A 
ATOM      4  C   UNL     1       2.385   8.238  18.401  0.00  0.00    +0.000 A 
ATOM      5  C   UNL     1       1.767   7.959  19.600  0.00  0.00    +0.000 A 
ATOM      6  C   UNL     1       1.126   8.924  20.344  0.00  0.00    +0.000 A 
ATOM      7  C   UNL     1       1.988   6.555  19.921  0.00  0.00    +0.000 C 
ATOM      8  O   UNL     1       1.587   6.048  20.950  0.00  0.00    +0.000 OA
ATOM      9  N   UNL     1       2.747   6.049  18.895  0.00  0.00    +0.000 N 
ATOM     10  C   UNL     1       3.085   7.019  17.983  0.00  0.00    +0.000 C 
ATOM     11  O   UNL     1       3.810   6.969  17.008  0.00  0.00    +0.000 OA
ENDROOT
BRANCH   1  13
ATOM     12  O   UNL     1       1.069  11.849  21.401  0.00  0.00    +0.000 OA
ATOM     13  C   UNL     1       0.360  11.321  20.545  0.00  0.00    +0.000 C 
ATOM     14  N   UNL     1      -0.952  11.689  20.261  0.00  0.00    +0.000 N 
ATOM     15  C   UNL     1      -1.799  11.260  19.126  0.00  0.00    +0.000 C 
ATOM     16  C   UNL     1      -3.091  12.081  19.156  0.00  0.00    +0.000 C 
ATOM     17  C   UNL     1      -3.001  12.720  20.500  0.00  0.00    +0.000 A 
ATOM     18  C   UNL     1      -3.993  13.440  21.146  0.00  0.00    +0.000 A 
ATOM     19  C   UNL     1      -3.696  14.012  22.382  0.00  0.00    +0.000 A 
ATOM     20  C   UNL     1      -2.418  13.868  22.942  0.00  0.00    +0.000 A 
ATOM     21  C   UNL     1      -1.429  13.126  22.286  0.00  0.00    +0.000 A 
ATOM     22  C   UNL     1      -1.738  12.541  21.069  0.00  0.00    +0.000 A 
ENDBRANCH   1  13
BRANCH   9  23
ATOM     23  C   UNL     1       3.233   4.728  18.880  0.00  0.00    +0.000 A 
ATOM     24  C   UNL     1       4.453   4.444  19.510  0.00  0.00    +0.000 A 
ATOM     25  C   UNL     1       4.932   3.133  19.560  0.00  0.00    +0.000 A 
ATOM     26  C   UNL     1       4.216   2.102  18.952  0.00  0.00    +0.000 A 
ATOM     27  C   UNL     1       3.015   2.380  18.297  0.00  0.00    +0.000 A 
ATOM     28  C   UNL     1       2.517   3.685  18.268  0.00  0.00    +0.000 A 
ATOM     29 CL   UNL     1       1.084   3.973  17.342  0.00  0.00    +0.000 Cl
ENDBRANCH   9  23
TORSDOF 2
ENDMDL
