MODEL 1
REMARK VINA RESULT:     -10.0      0.000      0.000
REMARK  Name = 
REMARK  5 active torsions:
REMARK  status: ('A' for Active; 'I' for Inactive)
REMARK    1  A    between atoms: C_1  and  C_2
REMARK    2  A    between atoms: C_5  and  C_6
REMARK    3  A    between atoms: C_8  and  C_9
REMARK    4  A    between atoms: C_9  and  N_10
REMARK    5  A    between atoms: C_19  and  C_20
REMARK                            x       y       z     vdW  Elec       q    Type
REMARK                         _______ _______ _______ _____ _____    ______ ____
ROOT
ATOM      1  N   UNL     1       3.465   5.732  18.549  0.00  0.00    +0.000 NA
ATOM      2  C   UNL     1       2.619   4.718  17.809  0.00  0.00    +0.000 C 
ATOM      3  C   UNL     1       2.304   3.540  18.747  0.00  0.00    +0.000 A 
ATOM      4  C   UNL     1       1.006   3.301  19.206  0.00  0.00    +0.000 A 
ATOM      5  C   UNL     1       0.833   2.854  20.517  0.00  0.00    +0.000 A 
ATOM      6  C   UNL     1       1.945   2.616  21.334  0.00  0.00    +0.000 A 
ATOM      7  C   UNL     1       3.237   2.689  20.811  0.00  0.00    +0.000 A 
ATOM      8  C   UNL     1       3.416   3.097  19.491  0.00  0.00    +0.000 A 
ATOM      9  C   UNL     1       4.749   3.525  18.945  0.00  0.00    +0.000 C 
ATOM     10  C   UNL     1       4.767   5.073  18.977  0.00  0.00    +0.000 C 
ENDROOT
BRANCH  10  11
ATOM     11  C   UNL     1       5.987   5.572  18.151  0.00  0.00    +0.000 C 
ATOM     12  O   UNL     1       6.885   6.264  18.628  0.00  0.00    +0.000 OA
ATOM     13  N   UNL     1       6.019   5.184  16.814  0.00  0.00    +0.000 N 
ATOM     14  C   UNL     1       5.023   4.431  16.075  0.00  0.00    +0.000 C 
ATOM     15  C   UNL     1       5.849   3.658  15.071  0.00  0.00    +0.000 C 
ATOM     16  C   UNL     1       6.928   4.654  14.689  0.00  0.00    +0.000 C 
ATOM     17  C   UNL     1       7.176   5.451  15.972  0.00  0.00    +0.000 C 
ENDBRANCH  10  11
BRANCH   1  18
ATOM     18  C   UNL     1       2.654   6.174  19.728  0.00  0.00    +0.000 C 
BRANCH  18  21
ATOM     19  C   UNL     1       0.914   9.183  20.445  0.00  0.00    +0.000 A 
ATOM     20  N   UNL     1       1.530   8.099  20.880  0.00  0.00    +0.000 NA
ATOM     21  C   UNL     1       2.154   7.579  19.751  0.00  0.00    +0.000 A 
ATOM     22  C   UNL     1       1.938   8.426  18.691  0.00  0.00    +0.000 A 
ATOM     23  O   UNL     1       1.146   9.449  19.117  0.00  0.00    +0.000 OA
BRANCH  19  28
ATOM     24  C   UNL     1      -2.760  12.740  23.194  0.00  0.00    +0.000 C 
ATOM     25  C   UNL     1      -1.792  11.838  22.482  0.00  0.00    +0.000 A 
ATOM     26  C   UNL     1      -1.482  12.030  21.129  0.00  0.00    +0.000 A 
ATOM     27  C   UNL     1      -0.590  11.170  20.474  0.00  0.00    +0.000 A 
ATOM     28  C   UNL     1       0.005  10.094  21.148  0.00  0.00    +0.000 A 
ATOM     29  C   UNL     1      -0.289   9.929  22.511  0.00  0.00    +0.000 A 
ATOM     30  C   UNL     1      -1.177  10.789  23.170  0.00  0.00    +0.000 A 
ENDBRANCH  19  28
ENDBRANCH  18  21
ENDBRANCH   1  18
TORSDOF 4
ENDMDL
MODEL 2
REMARK VINA RESULT:      -9.9      1.096      1.556
REMARK  Name = 
REMARK  5 active torsions:
REMARK  status: ('A' for Active; 'I' for Inactive)
REMARK    1  A    between atoms: C_1  and  C_2
REMARK    2  A    between atoms: C_5  and  C_6
REMARK    3  A    between atoms: C_8  and  C_9
REMARK    4  A    between atoms: C_9  and  N_10
REMARK    5  A    between atoms: C_19  and  C_20
REMARK                            x       y       z     vdW  Elec       q    Type
REMARK                         _______ _______ _______ _____ _____    ______ ____
ROOT
ATOM      1  N   UNL     1       2.975   5.179  18.257  0.00  0.00    +0.000 NA
ATOM      2  C   UNL     1       1.768   4.293  18.034  0.00  0.00    +0.000 C 
ATOM      3  C   UNL     1       1.706   3.233  19.147  0.00  0.00    +0.000 A 
ATOM      4  C   UNL     1       0.691   3.243  20.108  0.00  0.00    +0.000 A 
ATOM      5  C   UNL     1       1.012   2.895  21.421  0.00  0.00    +0.000 A 
ATOM      6  C   UNL     1       2.316   2.506  21.750  0.00  0.00    +0.000 A 
ATOM      7  C   UNL     1       3.275   2.329  20.752  0.00  0.00    +0.000 A 
ATOM      8  C   UNL     1       2.951   2.638  19.432  0.00  0.00    +0.000 A 
ATOM      9  C   UNL     1       3.988   2.804  18.357  0.00  0.00    +0.000 C 
ATOM     10  C   UNL     1       4.233   4.325  18.204  0.00  0.00    +0.000 C 
ENDROOT
BRANCH  10  11
ATOM     11  C   UNL     1       5.062   4.566  16.911  0.00  0.00    +0.000 C 
ATOM     12  O   UNL     1       4.789   4.048  15.829  0.00  0.00    +0.000 OA
ATOM     13  N   UNL     1       6.151   5.425  17.035  0.00  0.00    +0.000 N 
ATOM     14  C   UNL     1       6.654   6.067  18.236  0.00  0.00    +0.000 C 
ATOM     15  C   UNL     1       7.216   7.374  17.719  0.00  0.00    +0.000 C 
ATOM     16  C   UNL     1       7.832   6.970  16.392  0.00  0.00    +0.000 C 
ATOM     17  C   UNL     1       6.916   5.858  15.875  0.00  0.00    +0.000 C 
ENDBRANCH  10  11
BRANCH   1  18
ATOM     18  C   UNL     1       2.790   5.809  19.603  0.00  0.00    +0.000 C 
BRANCH  18  21
ATOM     19  C   UNL     1       1.116   8.837  20.393  0.00  0.00    +0.000 A 
ATOM     20  N   UNL     1       1.709   7.730  20.801  0.00  0.00    +0.000 NA
ATOM     21  C   UNL     1       2.320   7.223  19.659  0.00  0.00    +0.000 A 
ATOM     22  C   UNL     1       2.120   8.099  18.620  0.00  0.00    +0.000 A 
ATOM     23  O   UNL     1       1.350   9.128  19.070  0.00  0.00    +0.000 OA
BRANCH  19  28
ATOM     24  C   UNL     1      -2.477  12.406  23.231  0.00  0.00    +0.000 C 
ATOM     25  C   UNL     1      -1.531  11.500  22.496  0.00  0.00    +0.000 A 
ATOM     26  C   UNL     1      -1.230  11.709  21.144  0.00  0.00    +0.000 A 
ATOM     27  C   UNL     1      -0.358  10.845  20.467  0.00  0.00    +0.000 A 
ATOM     28  C   UNL     1       0.227   9.750  21.118  0.00  0.00    +0.000 A 
ATOM     29  C   UNL     1      -0.057   9.569  22.481  0.00  0.00    +0.000 A 
ATOM     30  C   UNL     1      -0.925  10.432  23.161  0.00  0.00    +0.000 A 
ENDBRANCH  19  28
ENDBRANCH  18  21
ENDBRANCH   1  18
TORSDOF 4
ENDMDL
MODEL 3
REMARK VINA RESULT:      -9.7      1.181      1.613
REMARK  Name = 
REMARK  5 active torsions:
REMARK  status: ('A' for Active; 'I' for Inactive)
REMARK    1  A    between atoms: C_1  and  C_2
REMARK    2  A    between atoms: C_5  and  C_6
REMARK    3  A    between atoms: C_8  and  C_9
REMARK    4  A    between atoms: C_9  and  N_10
REMARK    5  A    between atoms: C_19  and  C_20
REMARK                            x       y       z     vdW  Elec       q    Type
REMARK                         _______ _______ _______ _____ _____    ______ ____
ROOT
ATOM      1  N   UNL     1       3.704   4.036  17.483  0.00  0.00    +0.000 NA
ATOM      2  C   UNL     1       3.303   2.583  17.612  0.00  0.00    +0.000 C 
ATOM      3  C   UNL     1       2.682   2.349  18.999  0.00  0.00    +0.000 A 
ATOM      4  C   UNL     1       1.325   2.048  19.149  0.00  0.00    +0.000 A 
ATOM      5  C   UNL     1       0.638   2.589  20.237  0.00  0.00    +0.000 A 
ATOM      6  C   UNL     1       1.311   3.382  21.174  0.00  0.00    +0.000 A 
ATOM      7  C   UNL     1       2.698   3.529  21.111  0.00  0.00    +0.000 A 
ATOM      8  C   UNL     1       3.397   2.960  20.049  0.00  0.00    +0.000 A 
ATOM      9  C   UNL     1       4.812   3.336  19.711  0.00  0.00    +0.000 C 
ATOM     10  C   UNL     1       4.736   4.361  18.553  0.00  0.00    +0.000 C 
ENDROOT
BRANCH  10  11
ATOM     11  C   UNL     1       6.163   4.553  17.965  0.00  0.00    +0.000 C 
ATOM     12  O   UNL     1       7.185   4.493  18.646  0.00  0.00    +0.000 OA
ATOM     13  N   UNL     1       6.231   4.794  16.595  0.00  0.00    +0.000 N 
ATOM     14  C   UNL     1       5.136   4.961  15.659  0.00  0.00    +0.000 C 
ATOM     15  C   UNL     1       5.696   4.402  14.369  0.00  0.00    +0.000 C 
ATOM     16  C   UNL     1       7.142   4.861  14.406  0.00  0.00    +0.000 C 
ATOM     17  C   UNL     1       7.506   4.838  15.893  0.00  0.00    +0.000 C 
ENDBRANCH  10  11
BRANCH   1  18
ATOM     18  C   UNL     1       2.451   4.835  17.662  0.00  0.00    +0.000 C 
BRANCH  18  21
ATOM     19  C   UNL     1       1.868   7.858  19.428  0.00  0.00    +0.000 A 
ATOM     20  N   UNL     1       1.797   6.540  19.384  0.00  0.00    +0.000 NA
ATOM     21  C   UNL     1       2.562   6.191  18.275  0.00  0.00    +0.000 A 
ATOM     22  C   UNL     1       3.120   7.326  17.741  0.00  0.00    +0.000 A 
ATOM     23  O   UNL     1       2.683   8.396  18.461  0.00  0.00    +0.000 OA
BRANCH  19  28
ATOM     24  C   UNL     1      -0.932  11.574  22.900  0.00  0.00    +0.000 C 
ATOM     25  C   UNL     1      -0.189  10.630  21.999  0.00  0.00    +0.000 A 
ATOM     26  C   UNL     1      -0.095  10.865  20.621  0.00  0.00    +0.000 A 
ATOM     27  C   UNL     1       0.587   9.965  19.790  0.00  0.00    +0.000 A 
ATOM     28  C   UNL     1       1.182   8.807  20.311  0.00  0.00    +0.000 A 
ATOM     29  C   UNL     1       1.108   8.598  21.697  0.00  0.00    +0.000 A 
ATOM     30  C   UNL     1       0.430   9.496  22.531  0.00  0.00    +0.000 A 
ENDBRANCH  19  28
ENDBRANCH  18  21
ENDBRANCH   1  18
TORSDOF 4
ENDMDL
MODEL 4
REMARK VINA RESULT:      -9.6      1.072      1.472
REMARK  Name = 
REMARK  5 active torsions:
REMARK  status: ('A' for Active; 'I' for Inactive)
REMARK    1  A    between atoms: C_1  and  C_2
REMARK    2  A    between atoms: C_5  and  C_6
REMARK    3  A    between atoms: C_8  and  C_9
REMARK    4  A    between atoms: C_9  and  N_10
REMARK    5  A    between atoms: C_19  and  C_20
REMARK                            x       y       z     vdW  Elec       q    Type
REMARK                         _______ _______ _______ _____ _____    ______ ____
ROOT
ATOM      1  N   UNL     1       3.834   5.350  18.389  0.00  0.00    +0.000 NA
ATOM      2  C   UNL     1       2.891   4.380  17.711  0.00  0.00    +0.000 C 
ATOM      3  C   UNL     1       2.317   3.413  18.761  0.00  0.00    +0.000 A 
ATOM      4  C   UNL     1       0.966   3.444  19.118  0.00  0.00    +0.000 A 
ATOM      5  C   UNL     1       0.624   3.225  20.454  0.00  0.00    +0.000 A 
ATOM      6  C   UNL     1       1.617   2.941  21.399  0.00  0.00    +0.000 A 
ATOM      7  C   UNL     1       2.938   2.739  20.999  0.00  0.00    +0.000 A 
ATOM      8  C   UNL     1       3.281   2.919  19.661  0.00  0.00    +0.000 A 
ATOM      9  C   UNL     1       4.704   3.055  19.197  0.00  0.00    +0.000 C 
ATOM     10  C   UNL     1       4.974   4.570  19.026  0.00  0.00    +0.000 C 
ENDROOT
BRANCH  10  11
ATOM     11  C   UNL     1       6.317   4.752  18.264  0.00  0.00    +0.000 C 
ATOM     12  O   UNL     1       7.410   4.800  18.827  0.00  0.00    +0.000 OA
ATOM     13  N   UNL     1       6.225   4.854  16.878  0.00  0.00    +0.000 N 
ATOM     14  C   UNL     1       5.027   4.884  16.060  0.00  0.00    +0.000 C 
ATOM     15  C   UNL     1       5.469   4.216  14.776  0.00  0.00    +0.000 C 
ATOM     16  C   UNL     1       6.887   4.729  14.604  0.00  0.00    +0.000 C 
ATOM     17  C   UNL     1       7.411   4.872  16.035  0.00  0.00    +0.000 C 
ENDBRANCH  10  11
BRANCH   1  18
ATOM     18  C   UNL     1       3.021   6.077  19.415  0.00  0.00    +0.000 C 
BRANCH  18  21
ATOM     19  C   UNL     1       1.197   9.115  19.206  0.00  0.00    +0.000 A 
ATOM     20  N   UNL     1       1.682   8.133  19.944  0.00  0.00    +0.000 NA
ATOM     21  C   UNL     1       2.545   7.453  19.090  0.00  0.00    +0.000 A 
ATOM     22  C   UNL     1       2.591   8.110  17.885  0.00  0.00    +0.000 A 
ATOM     23  O   UNL     1       1.734   9.167  17.941  0.00  0.00    +0.000 OA
BRANCH  19  28
ATOM     24  C   UNL     1      -2.847  13.098  20.425  0.00  0.00    +0.000 C 
ATOM     25  C   UNL     1      -1.811  12.052  20.126  0.00  0.00    +0.000 A 
ATOM     26  C   UNL     1      -0.833  11.709  21.068  0.00  0.00    +0.000 A 
ATOM     27  C   UNL     1       0.137  10.742  20.767  0.00  0.00    +0.000 A 
ATOM     28  C   UNL     1       0.160  10.104  19.520  0.00  0.00    +0.000 A 
ATOM     29  C   UNL     1      -0.844  10.433  18.594  0.00  0.00    +0.000 A 
ATOM     30  C   UNL     1      -1.816  11.396  18.892  0.00  0.00    +0.000 A 
ENDBRANCH  19  28
ENDBRANCH  18  21
ENDBRANCH   1  18
TORSDOF 4
ENDMDL
MODEL 5
REMARK VINA RESULT:      -9.2      1.410      1.950
REMARK  Name = 
REMARK  5 active torsions:
REMARK  status: ('A' for Active; 'I' for Inactive)
REMARK    1  A    between atoms: C_1  and  C_2
REMARK    2  A    between atoms: C_5  and  C_6
REMARK    3  A    between atoms: C_8  and  C_9
REMARK    4  A    between atoms: C_9  and  N_10
REMARK    5  A    between atoms: C_19  and  C_20
REMARK                            x       y       z     vdW  Elec       q    Type
REMARK                         _______ _______ _______ _____ _____    ______ ____
ROOT
ATOM      1  N   UNL     1       3.037   4.928  18.071  0.00  0.00    +0.000 NA
ATOM      2  C   UNL     1       1.916   3.932  17.862  0.00  0.00    +0.000 C 
ATOM      3  C   UNL     1       1.814   3.018  19.095  0.00  0.00    +0.000 A 
ATOM      4  C   UNL     1       0.713   3.072  19.953  0.00  0.00    +0.000 A 
ATOM      5  C   UNL     1       0.927   2.916  21.323  0.00  0.00    +0.000 A 
ATOM      6  C   UNL     1       2.215   2.671  21.813  0.00  0.00    +0.000 A 
ATOM      7  C   UNL     1       3.275   2.444  20.935  0.00  0.00    +0.000 A 
ATOM      8  C   UNL     1       3.062   2.560  19.563  0.00  0.00    +0.000 A 
ATOM      9  C   UNL     1       4.185   2.668  18.571  0.00  0.00    +0.000 C 
ATOM     10  C   UNL     1       4.346   4.172  18.241  0.00  0.00    +0.000 C 
ENDROOT
BRANCH  10  11
ATOM     11  C   UNL     1       5.279   4.312  17.005  0.00  0.00    +0.000 C 
ATOM     12  O   UNL     1       5.177   3.609  16.002  0.00  0.00    +0.000 OA
ATOM     13  N   UNL     1       6.256   5.302  17.087  0.00  0.00    +0.000 N 
ATOM     14  C   UNL     1       6.560   6.171  18.208  0.00  0.00    +0.000 C 
ATOM     15  C   UNL     1       7.038   7.442  17.540  0.00  0.00    +0.000 C 
ATOM     16  C   UNL     1       7.830   6.919  16.356  0.00  0.00    +0.000 C 
ATOM     17  C   UNL     1       7.092   5.642  15.945  0.00  0.00    +0.000 C 
ENDBRANCH  10  11
BRANCH   1  18
ATOM     18  C   UNL     1       2.683   5.706  19.301  0.00  0.00    +0.000 C 
BRANCH  18  21
ATOM     19  C   UNL     1       1.356   8.993  19.475  0.00  0.00    +0.000 A 
ATOM     20  N   UNL     1       1.650   7.856  20.079  0.00  0.00    +0.000 NA
ATOM     21  C   UNL     1       2.439   7.171  19.161  0.00  0.00    +0.000 A 
ATOM     22  C   UNL     1       2.642   7.969  18.062  0.00  0.00    +0.000 A 
ATOM     23  O   UNL     1       1.955   9.130  18.246  0.00  0.00    +0.000 OA
BRANCH  19  28
ATOM     24  C   UNL     1      -2.099  13.363  21.109  0.00  0.00    +0.000 C 
ATOM     25  C   UNL     1      -1.213  12.219  20.706  0.00  0.00    +0.000 A 
ATOM     26  C   UNL     1      -0.076  11.883  21.453  0.00  0.00    +0.000 A 
ATOM     27  C   UNL     1       0.750  10.824  21.054  0.00  0.00    +0.000 A 
ATOM     28  C   UNL     1       0.469  10.081  19.899  0.00  0.00    +0.000 A 
ATOM     29  C   UNL     1      -0.690  10.407  19.175  0.00  0.00    +0.000 A 
ATOM     30  C   UNL     1      -1.519  11.462  19.572  0.00  0.00    +0.000 A 
ENDBRANCH  19  28
ENDBRANCH  18  21
ENDBRANCH   1  18
TORSDOF 4
ENDMDL
MODEL 6
REMARK VINA RESULT:      -8.8      1.553      2.072
REMARK  Name = 
REMARK  5 active torsions:
REMARK  status: ('A' for Active; 'I' for Inactive)
REMARK    1  A    between atoms: C_1  and  C_2
REMARK    2  A    between atoms: C_5  and  C_6
REMARK    3  A    between atoms: C_8  and  C_9
REMARK    4  A    between atoms: C_9  and  N_10
REMARK    5  A    between atoms: C_19  and  C_20
REMARK                            x       y       z     vdW  Elec       q    Type
REMARK                         _______ _______ _______ _____ _____    ______ ____
ROOT
ATOM      1  N   UNL     1       3.506   6.028  18.760  0.00  0.00    +0.000 NA
ATOM      2  C   UNL     1       2.491   5.156  18.051  0.00  0.00    +0.000 C 
ATOM      3  C   UNL     1       2.242   3.888  18.885  0.00  0.00    +0.000 A 
ATOM      4  C   UNL     1       1.015   3.657  19.512  0.00  0.00    +0.000 A 
ATOM      5  C   UNL     1       1.012   3.059  20.774  0.00  0.00    +0.000 A 
ATOM      6  C   UNL     1       2.216   2.667  21.371  0.00  0.00    +0.000 A 
ATOM      7  C   UNL     1       3.416   2.740  20.662  0.00  0.00    +0.000 A 
ATOM      8  C   UNL     1       3.421   3.301  19.386  0.00  0.00    +0.000 A 
ATOM      9  C   UNL     1       4.682   3.727  18.690  0.00  0.00    +0.000 C 
ATOM     10  C   UNL     1       4.810   5.256  18.897  0.00  0.00    +0.000 C 
ENDROOT
BRANCH  10  11
ATOM     11  C   UNL     1       5.921   5.794  17.952  0.00  0.00    +0.000 C 
ATOM     12  O   UNL     1       6.773   6.606  18.308  0.00  0.00    +0.000 OA
ATOM     13  N   UNL     1       5.911   5.296  16.651  0.00  0.00    +0.000 N 
ATOM     14  C   UNL     1       4.951   4.392  16.045  0.00  0.00    +0.000 C 
ATOM     15  C   UNL     1       5.788   3.615  15.052  0.00  0.00    +0.000 C 
ATOM     16  C   UNL     1       6.737   4.671  14.518  0.00  0.00    +0.000 C 
ATOM     17  C   UNL     1       6.982   5.596  15.712  0.00  0.00    +0.000 C 
ENDBRANCH  10  11
BRANCH   1  18
ATOM     18  C   UNL     1       2.915   6.358  20.095  0.00  0.00    +0.000 C 
BRANCH  18  21
ATOM     19  C   UNL     1       1.030   9.356  19.864  0.00  0.00    +0.000 A 
ATOM     20  N   UNL     1       1.876   8.504  19.314  0.00  0.00    +0.000 NA
ATOM     21  C   UNL     1       1.845   7.396  20.154  0.00  0.00    +0.000 A 
ATOM     22  C   UNL     1       0.917   7.611  21.144  0.00  0.00    +0.000 A 
ATOM     23  O   UNL     1       0.394   8.856  20.975  0.00  0.00    +0.000 OA
BRANCH  19  28
ATOM     24  C   UNL     1      -0.211  14.859  18.494  0.00  0.00    +0.000 C 
ATOM     25  C   UNL     1       0.098  13.428  18.828  0.00  0.00    +0.000 A 
ATOM     26  C   UNL     1      -0.907  12.547  19.246  0.00  0.00    +0.000 A 
ATOM     27  C   UNL     1      -0.600  11.218  19.570  0.00  0.00    +0.000 A 
ATOM     28  C   UNL     1       0.715  10.740  19.494  0.00  0.00    +0.000 A 
ATOM     29  C   UNL     1       1.710  11.623  19.044  0.00  0.00    +0.000 A 
ATOM     30  C   UNL     1       1.406  12.950  18.717  0.00  0.00    +0.000 A 
ENDBRANCH  19  28
ENDBRANCH  18  21
ENDBRANCH   1  18
TORSDOF 4
ENDMDL
MODEL 7
REMARK VINA RESULT:      -8.7      1.730      2.469
REMARK  Name = 
REMARK  5 active torsions:
REMARK  status: ('A' for Active; 'I' for Inactive)
REMARK    1  A    between atoms: C_1  and  C_2
REMARK    2  A    between atoms: C_5  and  C_6
REMARK    3  A    between atoms: C_8  and  C_9
REMARK    4  A    between atoms: C_9  and  N_10
REMARK    5  A    between atoms: C_19  and  C_20
REMARK                            x       y       z     vdW  Elec       q    Type
REMARK                         _______ _______ _______ _____ _____    ______ ____
ROOT
ATOM      1  N   UNL     1       3.144   5.297  18.344  0.00  0.00    +0.000 NA
ATOM      2  C   UNL     1       1.866   4.513  18.131  0.00  0.00    +0.000 C 
ATOM      3  C   UNL     1       1.760   3.415  19.202  0.00  0.00    +0.000 A 
ATOM      4  C   UNL     1       0.781   3.460  20.198  0.00  0.00    +0.000 A 
ATOM      5  C   UNL     1       1.118   3.034  21.484  0.00  0.00    +0.000 A 
ATOM      6  C   UNL     1       2.399   2.535  21.750  0.00  0.00    +0.000 A 
ATOM      7  C   UNL     1       3.308   2.330  20.711  0.00  0.00    +0.000 A 
ATOM      8  C   UNL     1       2.966   2.717  19.418  0.00  0.00    +0.000 A 
ATOM      9  C   UNL     1       3.976   2.850  18.314  0.00  0.00    +0.000 C 
ATOM     10  C   UNL     1       4.330   4.354  18.212  0.00  0.00    +0.000 C 
ENDROOT
BRANCH  10  11
ATOM     11  C   UNL     1       5.132   4.587  16.900  0.00  0.00    +0.000 C 
ATOM     12  O   UNL     1       4.833   4.068  15.826  0.00  0.00    +0.000 OA
ATOM     13  N   UNL     1       6.229   5.440  16.998  0.00  0.00    +0.000 N 
ATOM     14  C   UNL     1       6.761   6.082  18.186  0.00  0.00    +0.000 C 
ATOM     15  C   UNL     1       7.320   7.384  17.653  0.00  0.00    +0.000 C 
ATOM     16  C   UNL     1       7.904   6.974  16.314  0.00  0.00    +0.000 C 
ATOM     17  C   UNL     1       6.970   5.866  15.820  0.00  0.00    +0.000 C 
ENDBRANCH  10  11
BRANCH   1  18
ATOM     18  C   UNL     1       3.052   5.881  19.720  0.00  0.00    +0.000 C 
BRANCH  18  21
ATOM     19  C   UNL     1       1.247   8.934  19.859  0.00  0.00    +0.000 A 
ATOM     20  N   UNL     1       1.978   8.079  19.165  0.00  0.00    +0.000 NA
ATOM     21  C   UNL     1       2.035   6.944  19.966  0.00  0.00    +0.000 A 
ATOM     22  C   UNL     1       1.267   7.148  21.087  0.00  0.00    +0.000 A 
ATOM     23  O   UNL     1       0.764   8.412  21.035  0.00  0.00    +0.000 OA
BRANCH  19  28
ATOM     24  C   UNL     1      -0.072  14.463  18.682  0.00  0.00    +0.000 C 
ATOM     25  C   UNL     1       0.289  13.040  18.999  0.00  0.00    +0.000 A 
ATOM     26  C   UNL     1       1.405  12.427  18.415  0.00  0.00    +0.000 A 
ATOM     27  C   UNL     1       1.719  11.093  18.708  0.00  0.00    +0.000 A 
ATOM     28  C   UNL     1       0.925  10.337  19.582  0.00  0.00    +0.000 A 
ATOM     29  C   UNL     1      -0.173  10.971  20.186  0.00  0.00    +0.000 A 
ATOM     30  C   UNL     1      -0.488  12.305  19.898  0.00  0.00    +0.000 A 
ENDBRANCH  19  28
ENDBRANCH  18  21
ENDBRANCH   1  18
TORSDOF 4
ENDMDL
MODEL 8
REMARK VINA RESULT:      -8.7      3.339      9.056
REMARK  Name = 
REMARK  5 active torsions:
REMARK  status: ('A' for Active; 'I' for Inactive)
REMARK    1  A    between atoms: C_1  and  C_2
REMARK    2  A    between atoms: C_5  and  C_6
REMARK    3  A    between atoms: C_8  and  C_9
REMARK    4  A    between atoms: C_9  and  N_10
REMARK    5  A    between atoms: C_19  and  C_20
REMARK                            x       y       z     vdW  Elec       q    Type
REMARK                         _______ _______ _______ _____ _____    ______ ____
ROOT
ATOM      1  N   UNL     1       0.498  10.802  19.647  0.00  0.00    +0.000 NA
ATOM      2  C   UNL     1      -0.915  10.563  20.133  0.00  0.00    +0.000 C 
ATOM      3  C   UNL     1      -1.899  10.821  18.979  0.00  0.00    +0.000 A 
ATOM      4  C   UNL     1      -2.631   9.781  18.400  0.00  0.00    +0.000 A 
ATOM      5  C   UNL     1      -2.848   9.806  17.021  0.00  0.00    +0.000 A 
ATOM      6  C   UNL     1      -2.372  10.874  16.251  0.00  0.00    +0.000 A 
ATOM      7  C   UNL     1      -1.799  11.989  16.864  0.00  0.00    +0.000 A 
ATOM      8  C   UNL     1      -1.614  11.989  18.244  0.00  0.00    +0.000 A 
ATOM      9  C   UNL     1      -0.719  12.971  18.946  0.00  0.00    +0.000 C 
ATOM     10  C   UNL     1       0.627  12.249  19.195  0.00  0.00    +0.000 C 
ENDROOT
BRANCH  10  11
ATOM     11  C   UNL     1       1.476  13.106  20.177  0.00  0.00    +0.000 C 
ATOM     12  O   UNL     1       1.335  13.068  21.398  0.00  0.00    +0.000 OA
ATOM     13  N   UNL     1       2.433  13.933  19.595  0.00  0.00    +0.000 N 
ATOM     14  C   UNL     1       2.691  14.151  18.183  0.00  0.00    +0.000 C 
ATOM     15  C   UNL     1       4.180  14.418  18.141  0.00  0.00    +0.000 C 
ATOM     16  C   UNL     1       4.409  15.231  19.401  0.00  0.00    +0.000 C 
ATOM     17  C   UNL     1       3.396  14.668  20.402  0.00  0.00    +0.000 C 
ENDBRANCH  10  11
BRANCH   1  18
ATOM     18  C   UNL     1       0.720   9.847  18.515  0.00  0.00    +0.000 C 
BRANCH  18  21
ATOM     19  C   UNL     1       3.108   7.279  17.970  0.00  0.00    +0.000 A 
ATOM     20  N   UNL     1       2.558   8.416  17.583  0.00  0.00    +0.000 NA
ATOM     21  C   UNL     1       1.781   8.810  18.667  0.00  0.00    +0.000 A 
ATOM     22  C   UNL     1       1.959   7.915  19.694  0.00  0.00    +0.000 A 
ATOM     23  O   UNL     1       2.797   6.932  19.263  0.00  0.00    +0.000 OA
BRANCH  19  28
ATOM     24  C   UNL     1       6.351   3.542  14.934  0.00  0.00    +0.000 C 
ATOM     25  C   UNL     1       5.523   4.501  15.740  0.00  0.00    +0.000 A 
ATOM     26  C   UNL     1       4.500   4.046  16.582  0.00  0.00    +0.000 A 
ATOM     27  C   UNL     1       3.724   4.955  17.315  0.00  0.00    +0.000 A 
ATOM     28  C   UNL     1       3.945   6.336  17.220  0.00  0.00    +0.000 A 
ATOM     29  C   UNL     1       4.993   6.779  16.398  0.00  0.00    +0.000 A 
ATOM     30  C   UNL     1       5.771   5.874  15.666  0.00  0.00    +0.000 A 
ENDBRANCH  19  28
ENDBRANCH  18  21
ENDBRANCH   1  18
TORSDOF 4
ENDMDL
MODEL 9
REMARK VINA RESULT:      -8.6      1.774      8.424
REMARK  Name = 
REMARK  5 active torsions:
REMARK  status: ('A' for Active; 'I' for Inactive)
REMARK    1  A    between atoms: C_1  and  C_2
REMARK    2  A    between atoms: C_5  and  C_6
REMARK    3  A    between atoms: C_8  and  C_9
REMARK    4  A    between atoms: C_9  and  N_10
REMARK    5  A    between atoms: C_19  and  C_20
REMARK                            x       y       z     vdW  Elec       q    Type
REMARK                         _______ _______ _______ _____ _____    ______ ____
ROOT
ATOM      1  N   UNL     1       3.505   6.264  19.536  0.00  0.00    +0.000 NA
ATOM      2  C   UNL     1       2.703   5.359  20.447  0.00  0.00    +0.000 C 
ATOM      3  C   UNL     1       2.341   4.070  19.690  0.00  0.00    +0.000 A 
ATOM      4  C   UNL     1       2.890   2.836  20.048  0.00  0.00    +0.000 A 
ATOM      5  C   UNL     1       3.219   1.934  19.035  0.00  0.00    +0.000 A 
ATOM      6  C   UNL     1       2.964   2.252  17.696  0.00  0.00    +0.000 A 
ATOM      7  C   UNL     1       2.256   3.408  17.365  0.00  0.00    +0.000 A 
ATOM      8  C   UNL     1       1.889   4.295  18.374  0.00  0.00    +0.000 A 
ATOM      9  C   UNL     1       1.434   5.700  18.097  0.00  0.00    +0.000 C 
ATOM     10  C   UNL     1       2.660   6.619  18.322  0.00  0.00    +0.000 C 
ENDROOT
BRANCH  10  11
ATOM     11  C   UNL     1       2.176   8.096  18.345  0.00  0.00    +0.000 C 
ATOM     12  O   UNL     1       2.293   8.858  17.387  0.00  0.00    +0.000 OA
ATOM     13  N   UNL     1       1.583   8.526  19.530  0.00  0.00    +0.000 N 
ATOM     14  C   UNL     1       1.424   7.791  20.771  0.00  0.00    +0.000 C 
ATOM     15  C   UNL     1       0.132   8.340  21.335  0.00  0.00    +0.000 C 
ATOM     16  C   UNL     1       0.209   9.812  20.974  0.00  0.00    +0.000 C 
ATOM     17  C   UNL     1       0.950   9.833  19.634  0.00  0.00    +0.000 C 
ENDBRANCH  10  11
BRANCH   1  18
ATOM     18  C   UNL     1       4.730   5.492  19.152  0.00  0.00    +0.000 C 
BRANCH  18  21
ATOM     19  C   UNL     1       6.046   5.318  15.861  0.00  0.00    +0.000 A 
ATOM     20  N   UNL     1       5.078   5.027  16.711  0.00  0.00    +0.000 NA
ATOM     21  C   UNL     1       5.366   5.792  17.837  0.00  0.00    +0.000 A 
ATOM     22  C   UNL     1       6.469   6.570  17.579  0.00  0.00    +0.000 A 
ATOM     23  O   UNL     1       6.915   6.275  16.327  0.00  0.00    +0.000 OA
BRANCH  19  28
ATOM     24  C   UNL     1       7.284   2.997  10.686  0.00  0.00    +0.000 C 
ATOM     25  C   UNL     1       6.958   3.619  12.013  0.00  0.00    +0.000 A 
ATOM     26  C   UNL     1       7.775   4.611  12.571  0.00  0.00    +0.000 A 
ATOM     27  C   UNL     1       7.467   5.170  13.819  0.00  0.00    +0.000 A 
ATOM     28  C   UNL     1       6.343   4.747  14.543  0.00  0.00    +0.000 A 
ATOM     29  C   UNL     1       5.514   3.775  13.961  0.00  0.00    +0.000 A 
ATOM     30  C   UNL     1       5.817   3.217  12.713  0.00  0.00    +0.000 A 
ENDBRANCH  19  28
ENDBRANCH  18  21
ENDBRANCH   1  18
TORSDOF 4
ENDMDL
