MODEL 1
REMARK VINA RESULT:      -8.5      0.000      0.000
REMARK  Name = 
REMARK  5 active torsions:
REMARK  status: ('A' for Active; 'I' for Inactive)
REMARK    1  A    between atoms: C_2  and  C_3
REMARK    2  A    between atoms: C_3  and  C_4
REMARK    3  A    between atoms: N_14  and  C_15
REMARK    4  A    between atoms: C_15  and  C_16
REMARK    5  A    between atoms: C_16  and  C_17
REMARK                            x       y       z     vdW  Elec       q    Type
REMARK                         _______ _______ _______ _____ _____    ______ ____
ROOT
ATOM      1  O   UNL     1       0.709   4.239  20.001  0.00  0.00    +0.000 OA
ATOM      2  C   UNL     1       1.795   4.704  20.338  0.00  0.00    +0.000 C 
ATOM      3  N   UNL     1       2.972   4.007  20.236  0.00  0.00    +0.000 N 
ATOM      4  H   UNL     1       3.840   4.410  20.585  0.00  0.00    +0.000 HD
ENDROOT
BRANCH   2   5
ATOM      5  C   UNL     1       1.946   6.114  20.890  0.00  0.00    +0.000 C 
BRANCH   5   6
ATOM      6  C   UNL     1       1.900   7.260  19.890  0.00  0.00    +0.000 A 
ATOM      7  C   UNL     1       2.573   7.167  18.659  0.00  0.00    +0.000 A 
ATOM      8  C   UNL     1       2.580   8.232  17.763  0.00  0.00    +0.000 A 
ATOM      9  C   UNL     1       1.916   9.412  18.077  0.00  0.00    +0.000 A 
ATOM     10  C   UNL     1       1.211   9.539  19.281  0.00  0.00    +0.000 A 
ATOM     11  C   UNL     1       0.528  10.735  19.562  0.00  0.00    +0.000 A 
ATOM     12  C   UNL     1      -0.196  10.887  20.742  0.00  0.00    +0.000 A 
ATOM     13  C   UNL     1      -0.238   9.846  21.658  0.00  0.00    +0.000 A 
ATOM     14  C   UNL     1       0.449   8.655  21.397  0.00  0.00    +0.000 A 
ATOM     15  C   UNL     1       1.189   8.462  20.205  0.00  0.00    +0.000 A 
ENDBRANCH   5   6
ENDBRANCH   2   5
BRANCH   3  16
ATOM     16  C   UNL     1       3.092   2.671  19.672  0.00  0.00    +0.000 C 
BRANCH  16  17
ATOM     17  C   UNL     1       3.809   2.689  18.315  0.00  0.00    +0.000 C 
BRANCH  17  18
ATOM     18  C   UNL     1       4.822   3.788  18.236  0.00  0.00    +0.000 A 
ATOM     19  N   UNL     1       5.813   3.992  19.082  0.00  0.00    +0.000 NA
ATOM     20  C   UNL     1       6.449   5.124  18.647  0.00  0.00    +0.000 A 
ATOM     21  C   UNL     1       7.561   5.782  19.185  0.00  0.00    +0.000 A 
ATOM     22  C   UNL     1       8.022   6.942  18.554  0.00  0.00    +0.000 A 
ATOM     23  C   UNL     1       7.383   7.436  17.413  0.00  0.00    +0.000 A 
ATOM     24  C   UNL     1       6.268   6.790  16.861  0.00  0.00    +0.000 A 
ATOM     25  C   UNL     1       5.832   5.633  17.509  0.00  0.00    +0.000 A 
ATOM     26  N   UNL     1       4.799   4.760  17.264  0.00  0.00    +0.000 N 
ATOM     27  H   UNL     1       4.132   4.830  16.510  0.00  0.00    +0.000 HD
ENDBRANCH  17  18
ENDBRANCH  16  17
ENDBRANCH   3  16
TORSDOF 5
ENDMDL
MODEL 2
REMARK VINA RESULT:      -8.5      0.239      1.177
REMARK  Name = 
REMARK  5 active torsions:
REMARK  status: ('A' for Active; 'I' for Inactive)
REMARK    1  A    between atoms: C_2  and  C_3
REMARK    2  A    between atoms: C_3  and  C_4
REMARK    3  A    between atoms: N_14  and  C_15
REMARK    4  A    between atoms: C_15  and  C_16
REMARK    5  A    between atoms: C_16  and  C_17
REMARK                            x       y       z     vdW  Elec       q    Type
REMARK                         _______ _______ _______ _____ _____    ______ ____
ROOT
ATOM      1  O   UNL     1       0.668   4.068  20.080  0.00  0.00    +0.000 OA
ATOM      2  C   UNL     1       1.777   4.551  20.296  0.00  0.00    +0.000 C 
ATOM      3  N   UNL     1       2.947   3.898  20.003  0.00  0.00    +0.000 N 
ATOM      4  H   UNL     1       3.844   4.309  20.257  0.00  0.00    +0.000 HD
ENDROOT
BRANCH   2   5
ATOM      5  C   UNL     1       1.965   5.935  20.899  0.00  0.00    +0.000 C 
BRANCH   5   6
ATOM      6  C   UNL     1       1.885   7.122  19.949  0.00  0.00    +0.000 A 
ATOM      7  C   UNL     1       2.465   7.059  18.670  0.00  0.00    +0.000 A 
ATOM      8  C   UNL     1       2.444   8.160  17.818  0.00  0.00    +0.000 A 
ATOM      9  C   UNL     1       1.843   9.346  18.225  0.00  0.00    +0.000 A 
ATOM     10  C   UNL     1       1.231   9.444  19.481  0.00  0.00    +0.000 A 
ATOM     11  C   UNL     1       0.609  10.647  19.857  0.00  0.00    +0.000 A 
ATOM     12  C   UNL     1      -0.024  10.773  21.091  0.00  0.00    +0.000 A 
ATOM     13  C   UNL     1      -0.034   9.697  21.968  0.00  0.00    +0.000 A 
ATOM     14  C   UNL     1       0.593   8.498  21.612  0.00  0.00    +0.000 A 
ATOM     15  C   UNL     1       1.239   8.332  20.363  0.00  0.00    +0.000 A 
ENDBRANCH   5   6
ENDBRANCH   2   5
BRANCH   3  16
ATOM     16  C   UNL     1       3.024   2.596  19.357  0.00  0.00    +0.000 C 
BRANCH  16  17
ATOM     17  C   UNL     1       3.854   2.649  18.067  0.00  0.00    +0.000 C 
BRANCH  17  18
ATOM     18  C   UNL     1       4.773   3.831  18.045  0.00  0.00    +0.000 A 
ATOM     19  N   UNL     1       4.654   4.891  17.269  0.00  0.00    +0.000 NA
ATOM     20  C   UNL     1       5.729   5.687  17.555  0.00  0.00    +0.000 A 
ATOM     21  C   UNL     1       6.089   6.927  17.014  0.00  0.00    +0.000 A 
ATOM     22  C   UNL     1       7.258   7.544  17.472  0.00  0.00    +0.000 A 
ATOM     23  C   UNL     1       8.051   6.934  18.447  0.00  0.00    +0.000 A 
ATOM     24  C   UNL     1       7.707   5.693  19.001  0.00  0.00    +0.000 A 
ATOM     25  C   UNL     1       6.535   5.101  18.527  0.00  0.00    +0.000 A 
ATOM     26  N   UNL     1       5.900   3.920  18.826  0.00  0.00    +0.000 N 
ATOM     27  H   UNL     1       6.215   3.232  19.493  0.00  0.00    +0.000 HD
ENDBRANCH  17  18
ENDBRANCH  16  17
ENDBRANCH   3  16
TORSDOF 5
ENDMDL
MODEL 3
REMARK VINA RESULT:      -8.1      3.061      5.429
REMARK  Name = 
REMARK  5 active torsions:
REMARK  status: ('A' for Active; 'I' for Inactive)
REMARK    1  A    between atoms: C_2  and  C_3
REMARK    2  A    between atoms: C_3  and  C_4
REMARK    3  A    between atoms: N_14  and  C_15
REMARK    4  A    between atoms: C_15  and  C_16
REMARK    5  A    between atoms: C_16  and  C_17
REMARK                            x       y       z     vdW  Elec       q    Type
REMARK                         _______ _______ _______ _____ _____    ______ ____
ROOT
ATOM      1  O   UNL     1       5.047   6.938  16.082  0.00  0.00    +0.000 OA
ATOM      2  C   UNL     1       4.656   6.873  17.245  0.00  0.00    +0.000 C 
ATOM      3  N   UNL     1       5.460   6.475  18.284  0.00  0.00    +0.000 N 
ATOM      4  H   UNL     1       5.077   6.377  19.222  0.00  0.00    +0.000 HD
ENDROOT
BRANCH   2   5
ATOM      5  C   UNL     1       3.240   7.247  17.656  0.00  0.00    +0.000 C 
BRANCH   5   6
ATOM      6  C   UNL     1       2.574   6.384  18.719  0.00  0.00    +0.000 A 
ATOM      7  C   UNL     1       2.134   6.947  19.929  0.00  0.00    +0.000 A 
ATOM      8  C   UNL     1       1.575   6.154  20.927  0.00  0.00    +0.000 A 
ATOM      9  C   UNL     1       1.443   4.783  20.737  0.00  0.00    +0.000 A 
ATOM     10  C   UNL     1       1.844   4.185  19.537  0.00  0.00    +0.000 A 
ATOM     11  C   UNL     1       1.676   2.800  19.362  0.00  0.00    +0.000 A 
ATOM     12  C   UNL     1       2.047   2.177  18.173  0.00  0.00    +0.000 A 
ATOM     13  C   UNL     1       2.601   2.931  17.148  0.00  0.00    +0.000 A 
ATOM     14  C   UNL     1       2.787   4.308  17.314  0.00  0.00    +0.000 A 
ATOM     15  C   UNL     1       2.413   4.977  18.505  0.00  0.00    +0.000 A 
ENDBRANCH   5   6
ENDBRANCH   2   5
BRANCH   3  16
ATOM     16  C   UNL     1       6.870   6.139  18.151  0.00  0.00    +0.000 C 
BRANCH  16  17
ATOM     17  C   UNL     1       7.067   4.683  17.706  0.00  0.00    +0.000 C 
BRANCH  17  18
ATOM     18  C   UNL     1       6.919   4.530  16.224  0.00  0.00    +0.000 A 
ATOM     19  N   UNL     1       6.114   3.686  15.609  0.00  0.00    +0.000 NA
ATOM     20  C   UNL     1       6.342   3.860  14.270  0.00  0.00    +0.000 A 
ATOM     21  C   UNL     1       5.756   3.213  13.176  0.00  0.00    +0.000 A 
ATOM     22  C   UNL     1       6.173   3.565  11.888  0.00  0.00    +0.000 A 
ATOM     23  C   UNL     1       7.156   4.541  11.698  0.00  0.00    +0.000 A 
ATOM     24  C   UNL     1       7.753   5.199  12.782  0.00  0.00    +0.000 A 
ATOM     25  C   UNL     1       7.317   4.829  14.056  0.00  0.00    +0.000 A 
ATOM     26  N   UNL     1       7.666   5.244  15.318  0.00  0.00    +0.000 N 
ATOM     27  H   UNL     1       8.360   5.942  15.541  0.00  0.00    +0.000 HD
ENDBRANCH  17  18
ENDBRANCH  16  17
ENDBRANCH   3  16
TORSDOF 5
ENDMDL
MODEL 4
REMARK VINA RESULT:      -8.1      0.973      1.366
REMARK  Name = 
REMARK  5 active torsions:
REMARK  status: ('A' for Active; 'I' for Inactive)
REMARK    1  A    between atoms: C_2  and  C_3
REMARK    2  A    between atoms: C_3  and  C_4
REMARK    3  A    between atoms: N_14  and  C_15
REMARK    4  A    between atoms: C_15  and  C_16
REMARK    5  A    between atoms: C_16  and  C_17
REMARK                            x       y       z     vdW  Elec       q    Type
REMARK                         _______ _______ _______ _____ _____    ______ ____
ROOT
ATOM      1  O   UNL     1       1.105   4.254  19.461  0.00  0.00    +0.000 OA
ATOM      2  C   UNL     1       1.788   4.644  20.404  0.00  0.00    +0.000 C 
ATOM      3  N   UNL     1       2.633   3.822  21.107  0.00  0.00    +0.000 N 
ATOM      4  H   UNL     1       3.133   4.174  21.921  0.00  0.00    +0.000 HD
ENDROOT
BRANCH   2   5
ATOM      5  C   UNL     1       1.781   6.089  20.879  0.00  0.00    +0.000 C 
BRANCH   5   6
ATOM      6  C   UNL     1       1.883   7.171  19.813  0.00  0.00    +0.000 A 
ATOM      7  C   UNL     1       2.615   6.951  18.633  0.00  0.00    +0.000 A 
ATOM      8  C   UNL     1       2.758   7.955  17.680  0.00  0.00    +0.000 A 
ATOM      9  C   UNL     1       2.173   9.199  17.884  0.00  0.00    +0.000 A 
ATOM     10  C   UNL     1       1.414   9.454  19.033  0.00  0.00    +0.000 A 
ATOM     11  C   UNL     1       0.813  10.713  19.202  0.00  0.00    +0.000 A 
ATOM     12  C   UNL     1       0.037  10.993  20.324  0.00  0.00    +0.000 A 
ATOM     13  C   UNL     1      -0.139  10.018  21.295  0.00  0.00    +0.000 A 
ATOM     14  C   UNL     1       0.465   8.764  21.146  0.00  0.00    +0.000 A 
ATOM     15  C   UNL     1       1.253   8.442  20.015  0.00  0.00    +0.000 A 
ENDBRANCH   5   6
ENDBRANCH   2   5
BRANCH   3  16
ATOM     16  C   UNL     1       2.865   2.420  20.795  0.00  0.00    +0.000 C 
BRANCH  16  17
ATOM     17  C   UNL     1       4.304   2.173  20.322  0.00  0.00    +0.000 C 
BRANCH  17  18
ATOM     18  C   UNL     1       4.725   3.165  19.283  0.00  0.00    +0.000 A 
ATOM     19  N   UNL     1       5.431   4.258  19.496  0.00  0.00    +0.000 NA
ATOM     20  C   UNL     1       5.539   4.876  18.279  0.00  0.00    +0.000 A 
ATOM     21  C   UNL     1       6.183   6.073  17.943  0.00  0.00    +0.000 A 
ATOM     22  C   UNL     1       6.142   6.505  16.613  0.00  0.00    +0.000 A 
ATOM     23  C   UNL     1       5.469   5.758  15.641  0.00  0.00    +0.000 A 
ATOM     24  C   UNL     1       4.819   4.558  15.960  0.00  0.00    +0.000 A 
ATOM     25  C   UNL     1       4.878   4.150  17.294  0.00  0.00    +0.000 A 
ATOM     26  N   UNL     1       4.371   3.060  17.959  0.00  0.00    +0.000 N 
ATOM     27  H   UNL     1       3.823   2.319  17.549  0.00  0.00    +0.000 HD
ENDBRANCH  17  18
ENDBRANCH  16  17
ENDBRANCH   3  16
TORSDOF 5
ENDMDL
MODEL 5
REMARK VINA RESULT:      -8.0      3.070      5.411
REMARK  Name = 
REMARK  5 active torsions:
REMARK  status: ('A' for Active; 'I' for Inactive)
REMARK    1  A    between atoms: C_2  and  C_3
REMARK    2  A    between atoms: C_3  and  C_4
REMARK    3  A    between atoms: N_14  and  C_15
REMARK    4  A    between atoms: C_15  and  C_16
REMARK    5  A    between atoms: C_16  and  C_17
REMARK                            x       y       z     vdW  Elec       q    Type
REMARK                         _______ _______ _______ _____ _____    ______ ____
ROOT
ATOM      1  O   UNL     1       5.105   6.903  15.963  0.00  0.00    +0.000 OA
ATOM      2  C   UNL     1       4.679   6.868  17.114  0.00  0.00    +0.000 C 
ATOM      3  N   UNL     1       5.456   6.516  18.189  0.00  0.00    +0.000 N 
ATOM      4  H   UNL     1       5.045   6.439  19.118  0.00  0.00    +0.000 HD
ENDROOT
BRANCH   2   5
ATOM      5  C   UNL     1       3.245   7.230  17.469  0.00  0.00    +0.000 C 
BRANCH   5   6
ATOM      6  C   UNL     1       2.595   6.456  18.607  0.00  0.00    +0.000 A 
ATOM      7  C   UNL     1       2.191   7.113  19.783  0.00  0.00    +0.000 A 
ATOM      8  C   UNL     1       1.646   6.403  20.849  0.00  0.00    +0.000 A 
ATOM      9  C   UNL     1       1.492   5.024  20.764  0.00  0.00    +0.000 A 
ATOM     10  C   UNL     1       1.857   4.333  19.601  0.00  0.00    +0.000 A 
ATOM     11  C   UNL     1       1.668   2.942  19.533  0.00  0.00    +0.000 A 
ATOM     12  C   UNL     1       2.003   2.228  18.385  0.00  0.00    +0.000 A 
ATOM     13  C   UNL     1       2.541   2.898  17.295  0.00  0.00    +0.000 A 
ATOM     14  C   UNL     1       2.748   4.280  17.355  0.00  0.00    +0.000 A 
ATOM     15  C   UNL     1       2.411   5.040  18.502  0.00  0.00    +0.000 A 
ENDBRANCH   5   6
ENDBRANCH   2   5
BRANCH   3  16
ATOM     16  C   UNL     1       6.875   6.199  18.111  0.00  0.00    +0.000 C 
BRANCH  16  17
ATOM     17  C   UNL     1       7.109   4.739  17.698  0.00  0.00    +0.000 C 
BRANCH  17  18
ATOM     18  C   UNL     1       7.032   4.561  16.214  0.00  0.00    +0.000 A 
ATOM     19  N   UNL     1       7.769   5.188  15.319  0.00  0.00    +0.000 NA
ATOM     20  C   UNL     1       7.329   4.751  14.099  0.00  0.00    +0.000 A 
ATOM     21  C   UNL     1       7.767   5.102  12.816  0.00  0.00    +0.000 A 
ATOM     22  C   UNL     1       7.140   4.516  11.711  0.00  0.00    +0.000 A 
ATOM     23  C   UNL     1       6.098   3.602  11.884  0.00  0.00    +0.000 A 
ATOM     24  C   UNL     1       5.647   3.238  13.161  0.00  0.00    +0.000 A 
ATOM     25  C   UNL     1       6.291   3.837  14.245  0.00  0.00    +0.000 A 
ATOM     26  N   UNL     1       6.123   3.729  15.605  0.00  0.00    +0.000 N 
ATOM     27  H   UNL     1       5.442   3.151  16.073  0.00  0.00    +0.000 HD
ENDBRANCH  17  18
ENDBRANCH  16  17
ENDBRANCH   3  16
TORSDOF 5
ENDMDL
MODEL 6
REMARK VINA RESULT:      -8.0      2.567      3.352
REMARK  Name = 
REMARK  5 active torsions:
REMARK  status: ('A' for Active; 'I' for Inactive)
REMARK    1  A    between atoms: C_2  and  C_3
REMARK    2  A    between atoms: C_3  and  C_4
REMARK    3  A    between atoms: N_14  and  C_15
REMARK    4  A    between atoms: C_15  and  C_16
REMARK    5  A    between atoms: C_16  and  C_17
REMARK                            x       y       z     vdW  Elec       q    Type
REMARK                         _______ _______ _______ _____ _____    ______ ____
ROOT
ATOM      1  O   UNL     1       3.004   5.245  17.817  0.00  0.00    +0.000 OA
ATOM      2  C   UNL     1       3.348   5.667  18.918  0.00  0.00    +0.000 C 
ATOM      3  N   UNL     1       4.618   5.514  19.415  0.00  0.00    +0.000 N 
ATOM      4  H   UNL     1       4.842   5.824  20.359  0.00  0.00    +0.000 HD
ENDROOT
BRANCH   2   5
ATOM      5  C   UNL     1       2.401   6.421  19.839  0.00  0.00    +0.000 C 
BRANCH   5   6
ATOM      6  C   UNL     1       1.968   7.813  19.402  0.00  0.00    +0.000 A 
ATOM      7  C   UNL     1       2.280   8.292  18.117  0.00  0.00    +0.000 A 
ATOM      8  C   UNL     1       1.935   9.584  17.730  0.00  0.00    +0.000 A 
ATOM      9  C   UNL     1       1.272  10.425  18.618  0.00  0.00    +0.000 A 
ATOM     10  C   UNL     1       0.919   9.980  19.898  0.00  0.00    +0.000 A 
ATOM     11  C   UNL     1       0.228  10.842  20.766  0.00  0.00    +0.000 A 
ATOM     12  C   UNL     1      -0.153  10.425  22.039  0.00  0.00    +0.000 A 
ATOM     13  C   UNL     1       0.162   9.142  22.462  0.00  0.00    +0.000 A 
ATOM     14  C   UNL     1       0.863   8.277  21.613  0.00  0.00    +0.000 A 
ATOM     15  C   UNL     1       1.259   8.664  20.310  0.00  0.00    +0.000 A 
ENDBRANCH   5   6
ENDBRANCH   2   5
BRANCH   3  16
ATOM     16  C   UNL     1       5.716   4.892  18.690  0.00  0.00    +0.000 C 
BRANCH  16  17
ATOM     17  C   UNL     1       6.416   5.888  17.755  0.00  0.00    +0.000 C 
BRANCH  17  18
ATOM     18  C   UNL     1       6.498   5.372  16.353  0.00  0.00    +0.000 A 
ATOM     19  N   UNL     1       7.430   5.673  15.470  0.00  0.00    +0.000 NA
ATOM     20  C   UNL     1       7.083   5.015  14.320  0.00  0.00    +0.000 A 
ATOM     21  C   UNL     1       7.727   4.994  13.078  0.00  0.00    +0.000 A 
ATOM     22  C   UNL     1       7.159   4.243  12.043  0.00  0.00    +0.000 A 
ATOM     23  C   UNL     1       5.973   3.531  12.245  0.00  0.00    +0.000 A 
ATOM     24  C   UNL     1       5.315   3.541  13.482  0.00  0.00    +0.000 A 
ATOM     25  C   UNL     1       5.905   4.297  14.498  0.00  0.00    +0.000 A 
ATOM     26  N   UNL     1       5.554   4.537  15.804  0.00  0.00    +0.000 N 
ATOM     27  H   UNL     1       4.738   4.175  16.274  0.00  0.00    +0.000 HD
ENDBRANCH  17  18
ENDBRANCH  16  17
ENDBRANCH   3  16
TORSDOF 5
ENDMDL
MODEL 7
REMARK VINA RESULT:      -7.9      2.097      4.303
REMARK  Name = 
REMARK  5 active torsions:
REMARK  status: ('A' for Active; 'I' for Inactive)
REMARK    1  A    between atoms: C_2  and  C_3
REMARK    2  A    between atoms: C_3  and  C_4
REMARK    3  A    between atoms: N_14  and  C_15
REMARK    4  A    between atoms: C_15  and  C_16
REMARK    5  A    between atoms: C_16  and  C_17
REMARK                            x       y       z     vdW  Elec       q    Type
REMARK                         _______ _______ _______ _____ _____    ______ ____
ROOT
ATOM      1  O   UNL     1       5.502   7.165  17.991  0.00  0.00    +0.000 OA
ATOM      2  C   UNL     1       4.597   6.912  17.200  0.00  0.00    +0.000 C 
ATOM      3  N   UNL     1       4.714   5.975  16.204  0.00  0.00    +0.000 N 
ATOM      4  H   UNL     1       3.961   5.843  15.532  0.00  0.00    +0.000 HD
ENDROOT
BRANCH   2   5
ATOM      5  C   UNL     1       3.243   7.604  17.254  0.00  0.00    +0.000 C 
BRANCH   5   6
ATOM      6  C   UNL     1       2.536   7.641  18.601  0.00  0.00    +0.000 A 
ATOM      7  C   UNL     1       2.576   6.533  19.465  0.00  0.00    +0.000 A 
ATOM      8  C   UNL     1       1.886   6.540  20.674  0.00  0.00    +0.000 A 
ATOM      9  C   UNL     1       1.143   7.654  21.046  0.00  0.00    +0.000 A 
ATOM     10  C   UNL     1       1.096   8.790  20.228  0.00  0.00    +0.000 A 
ATOM     11  C   UNL     1       0.357   9.912  20.640  0.00  0.00    +0.000 A 
ATOM     12  C   UNL     1       0.305  11.064  19.859  0.00  0.00    +0.000 A 
ATOM     13  C   UNL     1       0.985  11.103  18.651  0.00  0.00    +0.000 A 
ATOM     14  C   UNL     1       1.714   9.988  18.222  0.00  0.00    +0.000 A 
ATOM     15  C   UNL     1       1.796   8.803  18.993  0.00  0.00    +0.000 A 
ENDBRANCH   5   6
ENDBRANCH   2   5
BRANCH   3  16
ATOM     16  C   UNL     1       5.885   5.135  15.998  0.00  0.00    +0.000 C 
BRANCH  16  17
ATOM     17  C   UNL     1       5.551   3.646  16.159  0.00  0.00    +0.000 C 
BRANCH  17  18
ATOM     18  C   UNL     1       4.472   3.424  17.173  0.00  0.00    +0.000 A 
ATOM     19  N   UNL     1       3.174   3.505  16.954  0.00  0.00    +0.000 NA
ATOM     20  C   UNL     1       2.576   3.273  18.163  0.00  0.00    +0.000 A 
ATOM     21  C   UNL     1       1.216   3.247  18.493  0.00  0.00    +0.000 A 
ATOM     22  C   UNL     1       0.853   2.993  19.820  0.00  0.00    +0.000 A 
ATOM     23  C   UNL     1       1.829   2.773  20.796  0.00  0.00    +0.000 A 
ATOM     24  C   UNL     1       3.195   2.795  20.484  0.00  0.00    +0.000 A 
ATOM     25  C   UNL     1       3.528   3.048  19.152  0.00  0.00    +0.000 A 
ATOM     26  N   UNL     1       4.730   3.146  18.494  0.00  0.00    +0.000 N 
ATOM     27  H   UNL     1       5.643   3.044  18.911  0.00  0.00    +0.000 HD
ENDBRANCH  17  18
ENDBRANCH  16  17
ENDBRANCH   3  16
TORSDOF 5
ENDMDL
MODEL 8
REMARK VINA RESULT:      -7.9      2.550      3.350
REMARK  Name = 
REMARK  5 active torsions:
REMARK  status: ('A' for Active; 'I' for Inactive)
REMARK    1  A    between atoms: C_2  and  C_3
REMARK    2  A    between atoms: C_3  and  C_4
REMARK    3  A    between atoms: N_14  and  C_15
REMARK    4  A    between atoms: C_15  and  C_16
REMARK    5  A    between atoms: C_16  and  C_17
REMARK                            x       y       z     vdW  Elec       q    Type
REMARK                         _______ _______ _______ _____ _____    ______ ____
ROOT
ATOM      1  O   UNL     1       3.487   4.004  18.750  0.00  0.00    +0.000 OA
ATOM      2  C   UNL     1       3.750   5.042  19.352  0.00  0.00    +0.000 C 
ATOM      3  N   UNL     1       5.020   5.557  19.437  0.00  0.00    +0.000 N 
ATOM      4  H   UNL     1       5.202   6.386  19.999  0.00  0.00    +0.000 HD
ENDROOT
BRANCH   2   5
ATOM      5  C   UNL     1       2.688   5.874  20.054  0.00  0.00    +0.000 C 
BRANCH   5   6
ATOM      6  C   UNL     1       2.279   7.181  19.391  0.00  0.00    +0.000 A 
ATOM      7  C   UNL     1       2.656   7.463  18.066  0.00  0.00    +0.000 A 
ATOM      8  C   UNL     1       2.333   8.680  17.472  0.00  0.00    +0.000 A 
ATOM      9  C   UNL     1       1.625   9.639  18.187  0.00  0.00    +0.000 A 
ATOM     10  C   UNL     1       1.207   9.390  19.500  0.00  0.00    +0.000 A 
ATOM     11  C   UNL     1       0.472  10.368  20.192  0.00  0.00    +0.000 A 
ATOM     12  C   UNL     1       0.026  10.145  21.492  0.00  0.00    +0.000 A 
ATOM     13  C   UNL     1       0.318   8.942  22.119  0.00  0.00    +0.000 A 
ATOM     14  C   UNL     1       1.061   7.965  21.447  0.00  0.00    +0.000 A 
ATOM     15  C   UNL     1       1.524   8.154  20.122  0.00  0.00    +0.000 A 
ENDBRANCH   5   6
ENDBRANCH   2   5
BRANCH   3  16
ATOM     16  C   UNL     1       6.187   4.980  18.787  0.00  0.00    +0.000 C 
BRANCH  16  17
ATOM     17  C   UNL     1       6.805   5.945  17.767  0.00  0.00    +0.000 C 
BRANCH  17  18
ATOM     18  C   UNL     1       6.692   5.425  16.368  0.00  0.00    +0.000 A 
ATOM     19  N   UNL     1       5.785   4.574  15.929  0.00  0.00    +0.000 NA
ATOM     20  C   UNL     1       6.089   4.349  14.613  0.00  0.00    +0.000 A 
ATOM     21  C   UNL     1       5.449   3.526  13.680  0.00  0.00    +0.000 A 
ATOM     22  C   UNL     1       5.966   3.458  12.382  0.00  0.00    +0.000 A 
ATOM     23  C   UNL     1       7.099   4.195  12.025  0.00  0.00    +0.000 A 
ATOM     24  C   UNL     1       7.752   5.025  12.947  0.00  0.00    +0.000 A 
ATOM     25  C   UNL     1       7.214   5.075  14.234  0.00  0.00    +0.000 A 
ATOM     26  N   UNL     1       7.577   5.757  15.370  0.00  0.00    +0.000 N 
ATOM     27  H   UNL     1       8.364   6.381  15.460  0.00  0.00    +0.000 HD
ENDBRANCH  17  18
ENDBRANCH  16  17
ENDBRANCH   3  16
TORSDOF 5
ENDMDL
MODEL 9
REMARK VINA RESULT:      -7.8      5.100      7.948
REMARK  Name = 
REMARK  5 active torsions:
REMARK  status: ('A' for Active; 'I' for Inactive)
REMARK    1  A    between atoms: C_2  and  C_3
REMARK    2  A    between atoms: C_3  and  C_4
REMARK    3  A    between atoms: N_14  and  C_15
REMARK    4  A    between atoms: C_15  and  C_16
REMARK    5  A    between atoms: C_16  and  C_17
REMARK                            x       y       z     vdW  Elec       q    Type
REMARK                         _______ _______ _______ _____ _____    ______ ____
ROOT
ATOM      1  O   UNL     1       7.947  10.015  17.698  0.00  0.00    +0.000 OA
ATOM      2  C   UNL     1       8.568   9.403  18.564  0.00  0.00    +0.000 C 
ATOM      3  N   UNL     1       8.491   8.041  18.717  0.00  0.00    +0.000 N 
ATOM      4  H   UNL     1       8.974   7.583  19.488  0.00  0.00    +0.000 HD
ENDROOT
BRANCH   2   5
ATOM      5  C   UNL     1       9.501  10.093  19.546  0.00  0.00    +0.000 C 
BRANCH   5   6
ATOM      6  C   UNL     1      10.177  11.374  19.079  0.00  0.00    +0.000 A 
ATOM      7  C   UNL     1      10.806  11.437  17.823  0.00  0.00    +0.000 A 
ATOM      8  C   UNL     1      11.474  12.588  17.412  0.00  0.00    +0.000 A 
ATOM      9  C   UNL     1      11.527  13.699  18.247  0.00  0.00    +0.000 A 
ATOM     10  C   UNL     1      10.892  13.689  19.495  0.00  0.00    +0.000 A 
ATOM     11  C   UNL     1      10.940  14.834  20.307  0.00  0.00    +0.000 A 
ATOM     12  C   UNL     1      10.304  14.863  21.546  0.00  0.00    +0.000 A 
ATOM     13  C   UNL     1       9.620  13.740  21.990  0.00  0.00    +0.000 A 
ATOM     14  C   UNL     1       9.575  12.588  21.197  0.00  0.00    +0.000 A 
ATOM     15  C   UNL     1      10.203  12.526  19.930  0.00  0.00    +0.000 A 
ENDBRANCH   5   6
ENDBRANCH   2   5
BRANCH   3  16
ATOM     16  C   UNL     1       7.723   7.157  17.853  0.00  0.00    +0.000 C 
BRANCH  16  17
ATOM     17  C   UNL     1       7.612   5.744  18.441  0.00  0.00    +0.000 C 
BRANCH  17  18
ATOM     18  C   UNL     1       6.220   5.203  18.333  0.00  0.00    +0.000 A 
ATOM     19  N   UNL     1       5.145   5.891  18.002  0.00  0.00    +0.000 NA
ATOM     20  C   UNL     1       4.100   5.010  18.075  0.00  0.00    +0.000 A 
ATOM     21  C   UNL     1       2.739   5.221  17.828  0.00  0.00    +0.000 A 
ATOM     22  C   UNL     1       1.855   4.148  17.983  0.00  0.00    +0.000 A 
ATOM     23  C   UNL     1       2.322   2.891  18.380  0.00  0.00    +0.000 A 
ATOM     24  C   UNL     1       3.682   2.662  18.631  0.00  0.00    +0.000 A 
ATOM     25  C   UNL     1       4.541   3.750  18.466  0.00  0.00    +0.000 A 
ATOM     26  N   UNL     1       5.898   3.898  18.621  0.00  0.00    +0.000 N 
ATOM     27  H   UNL     1       6.543   3.178  18.908  0.00  0.00    +0.000 HD
ENDBRANCH  17  18
ENDBRANCH  16  17
ENDBRANCH   3  16
TORSDOF 5
ENDMDL
