MODEL 1
REMARK VINA RESULT:      -9.6      0.000      0.000
REMARK  Name = 
REMARK  6 active torsions:
REMARK  status: ('A' for Active; 'I' for Inactive)
REMARK    1  A    between atoms: C_2  and  C_3
REMARK    2  A    between atoms: C_3  and  O_4
REMARK    3  A    between atoms: O_4  and  C_5
REMARK    4  A    between atoms: C_10  and  C_11
REMARK    5  A    between atoms: N_13  and  C_14
REMARK    6  A    between atoms: N_20  and  C_21
REMARK                            x       y       z     vdW  Elec       q    Type
REMARK                         _______ _______ _______ _____ _____    ______ ____
ROOT
ATOM      1  C   UNL     1       7.864   6.690  18.150  0.00  0.00    +0.000 C 
ENDROOT
BRANCH   1   3
ATOM      2  O   UNL     1       7.426   8.845  17.290  0.00  0.00    +0.000 OA
ATOM      3  C   UNL     1       8.023   8.204  18.155  0.00  0.00    +0.000 C 
ATOM      4  N   UNL     1       8.900   8.723  19.094  0.00  0.00    +0.000 N 
ATOM      5  H   UNL     1       9.488   8.062  19.592  0.00  0.00    +0.000 HD
BRANCH   4   6
ATOM      6  C   UNL     1       9.203  10.103  19.225  0.00  0.00    +0.000 A 
ATOM      7  C   UNL     1       9.343  10.718  20.494  0.00  0.00    +0.000 A 
ATOM      8  C   UNL     1       9.463  12.102  20.649  0.00  0.00    +0.000 A 
ATOM      9  C   UNL     1       9.517  12.834  19.498  0.00  0.00    +0.000 A 
ATOM     10  N   UNL     1       9.614  14.209  19.338  0.00  0.00    +0.000 N 
ATOM     11  C   UNL     1       9.770  14.486  17.976  0.00  0.00    +0.000 A 
ATOM     12  O   UNL     1       9.941  15.584  17.476  0.00  0.00    +0.000 OA
ATOM     13  N   UNL     1       9.704  13.256  17.303  0.00  0.00    +0.000 N 
ATOM     14  C   UNL     1       9.517  12.240  18.237  0.00  0.00    +0.000 A 
ATOM     15  C   UNL     1       9.340  10.881  18.062  0.00  0.00    +0.000 A 
ATOM     16  H   UNL     1       9.573  14.910  20.059  0.00  0.00    +0.000 HD
ATOM     17  H   UNL     1       9.812  13.165  16.306  0.00  0.00    +0.000 HD
ENDBRANCH   4   6
ENDBRANCH   1   3
BRANCH   1  18
ATOM     18  O   UNL     1       6.556   6.172  17.966  0.00  0.00    +0.000 OA
BRANCH  18  19
ATOM     19  C   UNL     1       6.357   5.514  16.764  0.00  0.00    +0.000 A 
ATOM     20  C   UNL     1       7.304   5.521  15.718  0.00  0.00    +0.000 A 
ATOM     21  C   UNL     1       7.089   4.815  14.532  0.00  0.00    +0.000 A 
ATOM     22  C   UNL     1       5.923   4.086  14.366  0.00  0.00    +0.000 A 
ATOM     23  C   UNL     1       4.968   4.080  15.378  0.00  0.00    +0.000 A 
ATOM     24  C   UNL     1       5.161   4.797  16.580  0.00  0.00    +0.000 A 
BRANCH  24  25
ATOM     25  C   UNL     1       4.033   4.715  17.564  0.00  0.00    +0.000 C 
ATOM     26  O   UNL     1       3.347   5.719  17.727  0.00  0.00    +0.000 OA
ATOM     27  N   UNL     1       3.878   3.528  18.257  0.00  0.00    +0.000 N 
ATOM     28  H   UNL     1       4.572   2.810  18.075  0.00  0.00    +0.000 HD
BRANCH  27  29
ATOM     29  C   UNL     1       2.929   3.261  19.268  0.00  0.00    +0.000 A 
ATOM     30  C   UNL     1       1.550   3.374  19.081  0.00  0.00    +0.000 A 
ATOM     31  C   UNL     1       0.666   3.152  20.145  0.00  0.00    +0.000 A 
ATOM     32  C   UNL     1       1.156   2.815  21.400  0.00  0.00    +0.000 A 
ATOM     33  C   UNL     1       2.525   2.670  21.591  0.00  0.00    +0.000 A 
ATOM     34  C   UNL     1       3.407   2.886  20.527  0.00  0.00    +0.000 A 
ENDBRANCH  27  29
ENDBRANCH  24  25
ENDBRANCH  18  19
ENDBRANCH   1  18
TORSDOF 6
ENDMDL
MODEL 2
REMARK VINA RESULT:      -9.2      1.119      1.612
REMARK  Name = 
REMARK  6 active torsions:
REMARK  status: ('A' for Active; 'I' for Inactive)
REMARK    1  A    between atoms: C_2  and  C_3
REMARK    2  A    between atoms: C_3  and  O_4
REMARK    3  A    between atoms: O_4  and  C_5
REMARK    4  A    between atoms: C_10  and  C_11
REMARK    5  A    between atoms: N_13  and  C_14
REMARK    6  A    between atoms: N_20  and  C_21
REMARK                            x       y       z     vdW  Elec       q    Type
REMARK                         _______ _______ _______ _____ _____    ______ ____
ROOT
ATOM      1  C   UNL     1       7.869   6.919  18.018  0.00  0.00    +0.000 C 
ENDROOT
BRANCH   1   3
ATOM      2  O   UNL     1       7.334   9.112  17.326  0.00  0.00    +0.000 OA
ATOM      3  C   UNL     1       8.024   8.431  18.084  0.00  0.00    +0.000 C 
ATOM      4  N   UNL     1       9.000   8.908  18.947  0.00  0.00    +0.000 N 
ATOM      5  H   UNL     1       9.640   8.226  19.340  0.00  0.00    +0.000 HD
BRANCH   4   6
ATOM      6  C   UNL     1       9.313  10.281  19.115  0.00  0.00    +0.000 A 
ATOM      7  C   UNL     1       9.712  11.093  18.024  0.00  0.00    +0.000 A 
ATOM      8  C   UNL     1      10.194  12.393  18.194  0.00  0.00    +0.000 A 
ATOM      9  C   UNL     1      10.188  12.877  19.471  0.00  0.00    +0.000 A 
ATOM     10  N   UNL     1      10.618  14.108  19.943  0.00  0.00    +0.000 N 
ATOM     11  C   UNL     1      10.293  14.200  21.301  0.00  0.00    +0.000 A 
ATOM     12  O   UNL     1      10.472  15.164  22.024  0.00  0.00    +0.000 OA
ATOM     13  N   UNL     1       9.711  12.974  21.660  0.00  0.00    +0.000 N 
ATOM     14  C   UNL     1       9.674  12.146  20.540  0.00  0.00    +0.000 A 
ATOM     15  C   UNL     1       9.248  10.839  20.404  0.00  0.00    +0.000 A 
ATOM     16  H   UNL     1      11.094  14.828  19.424  0.00  0.00    +0.000 HD
ATOM     17  H   UNL     1       9.360  12.778  22.584  0.00  0.00    +0.000 HD
ENDBRANCH   4   6
ENDBRANCH   1   3
BRANCH   1  18
ATOM     18  O   UNL     1       6.558   6.405  17.843  0.00  0.00    +0.000 OA
BRANCH  18  19
ATOM     19  C   UNL     1       6.379   5.650  16.697  0.00  0.00    +0.000 A 
ATOM     20  C   UNL     1       7.306   5.635  15.634  0.00  0.00    +0.000 A 
ATOM     21  C   UNL     1       7.114   4.833  14.506  0.00  0.00    +0.000 A 
ATOM     22  C   UNL     1       5.992   4.025  14.418  0.00  0.00    +0.000 A 
ATOM     23  C   UNL     1       5.057   4.038  15.448  0.00  0.00    +0.000 A 
ATOM     24  C   UNL     1       5.225   4.852  16.590  0.00  0.00    +0.000 A 
BRANCH  24  25
ATOM     25  C   UNL     1       4.121   4.776  17.600  0.00  0.00    +0.000 C 
ATOM     26  O   UNL     1       3.549   5.821  17.897  0.00  0.00    +0.000 OA
ATOM     27  N   UNL     1       3.858   3.541  18.166  0.00  0.00    +0.000 N 
ATOM     28  H   UNL     1       4.468   2.781  17.882  0.00  0.00    +0.000 HD
BRANCH  27  29
ATOM     29  C   UNL     1       2.913   3.262  19.176  0.00  0.00    +0.000 A 
ATOM     30  C   UNL     1       1.533   3.269  18.966  0.00  0.00    +0.000 A 
ATOM     31  C   UNL     1       0.648   3.040  20.027  0.00  0.00    +0.000 A 
ATOM     32  C   UNL     1       1.138   2.804  21.305  0.00  0.00    +0.000 A 
ATOM     33  C   UNL     1       2.511   2.765  21.522  0.00  0.00    +0.000 A 
ATOM     34  C   UNL     1       3.394   2.987  20.460  0.00  0.00    +0.000 A 
ENDBRANCH  27  29
ENDBRANCH  24  25
ENDBRANCH  18  19
ENDBRANCH   1  18
TORSDOF 6
ENDMDL
MODEL 3
REMARK VINA RESULT:      -9.1      5.343      7.564
REMARK  Name = 
REMARK  6 active torsions:
REMARK  status: ('A' for Active; 'I' for Inactive)
REMARK    1  A    between atoms: C_2  and  C_3
REMARK    2  A    between atoms: C_3  and  O_4
REMARK    3  A    between atoms: O_4  and  C_5
REMARK    4  A    between atoms: C_10  and  C_11
REMARK    5  A    between atoms: N_13  and  C_14
REMARK    6  A    between atoms: N_20  and  C_21
REMARK                            x       y       z     vdW  Elec       q    Type
REMARK                         _______ _______ _______ _____ _____    ______ ____
ROOT
ATOM      1  C   UNL     1       2.784   6.974  19.027  0.00  0.00    +0.000 C 
ENDROOT
BRANCH   1   3
ATOM      2  O   UNL     1       2.366   8.654  17.420  0.00  0.00    +0.000 OA
ATOM      3  C   UNL     1       2.103   8.250  18.553  0.00  0.00    +0.000 C 
ATOM      4  N   UNL     1       1.300   8.895  19.482  0.00  0.00    +0.000 N 
ATOM      5  H   UNL     1       1.353   8.570  20.442  0.00  0.00    +0.000 HD
BRANCH   4   6
ATOM      6  C   UNL     1       0.615  10.112  19.234  0.00  0.00    +0.000 A 
ATOM      7  C   UNL     1      -0.670  10.136  18.636  0.00  0.00    +0.000 A 
ATOM      8  C   UNL     1      -1.283  11.321  18.222  0.00  0.00    +0.000 A 
ATOM      9  C   UNL     1      -0.608  12.476  18.496  0.00  0.00    +0.000 A 
ATOM     10  N   UNL     1      -0.954  13.785  18.193  0.00  0.00    +0.000 N 
ATOM     11  C   UNL     1      -0.019  14.639  18.789  0.00  0.00    +0.000 A 
ATOM     12  O   UNL     1      -0.043  15.857  18.777  0.00  0.00    +0.000 OA
ATOM     13  N   UNL     1       0.937  13.821  19.409  0.00  0.00    +0.000 N 
ATOM     14  C   UNL     1       0.592  12.487  19.203  0.00  0.00    +0.000 A 
ATOM     15  C   UNL     1       1.244  11.325  19.569  0.00  0.00    +0.000 A 
ATOM     16  H   UNL     1      -1.732  14.097  17.635  0.00  0.00    +0.000 HD
ATOM     17  H   UNL     1       1.715  14.182  19.937  0.00  0.00    +0.000 HD
ENDBRANCH   4   6
ENDBRANCH   1   3
BRANCH   1  18
ATOM     18  O   UNL     1       2.257   5.742  18.560  0.00  0.00    +0.000 OA
BRANCH  18  19
ATOM     19  C   UNL     1       2.299   4.707  19.478  0.00  0.00    +0.000 A 
ATOM     20  C   UNL     1       1.274   4.471  20.417  0.00  0.00    +0.000 A 
ATOM     21  C   UNL     1       1.329   3.395  21.306  0.00  0.00    +0.000 A 
ATOM     22  C   UNL     1       2.409   2.529  21.274  0.00  0.00    +0.000 A 
ATOM     23  C   UNL     1       3.440   2.754  20.366  0.00  0.00    +0.000 A 
ATOM     24  C   UNL     1       3.410   3.843  19.468  0.00  0.00    +0.000 A 
BRANCH  24  25
ATOM     25  C   UNL     1       4.603   3.969  18.570  0.00  0.00    +0.000 C 
ATOM     26  O   UNL     1       5.714   3.881  19.084  0.00  0.00    +0.000 OA
ATOM     27  N   UNL     1       4.368   4.225  17.231  0.00  0.00    +0.000 N 
ATOM     28  H   UNL     1       3.397   4.352  16.963  0.00  0.00    +0.000 HD
BRANCH  27  29
ATOM     29  C   UNL     1       5.341   4.442  16.231  0.00  0.00    +0.000 A 
ATOM     30  C   UNL     1       6.377   5.370  16.351  0.00  0.00    +0.000 A 
ATOM     31  C   UNL     1       7.275   5.577  15.296  0.00  0.00    +0.000 A 
ATOM     32  C   UNL     1       7.142   4.857  14.116  0.00  0.00    +0.000 A 
ATOM     33  C   UNL     1       6.133   3.909  13.995  0.00  0.00    +0.000 A 
ATOM     34  C   UNL     1       5.241   3.698  15.052  0.00  0.00    +0.000 A 
ENDBRANCH  27  29
ENDBRANCH  24  25
ENDBRANCH  18  19
ENDBRANCH   1  18
TORSDOF 6
ENDMDL
MODEL 4
REMARK VINA RESULT:      -9.0      1.101      1.110
REMARK  Name = 
REMARK  6 active torsions:
REMARK  status: ('A' for Active; 'I' for Inactive)
REMARK    1  A    between atoms: C_2  and  C_3
REMARK    2  A    between atoms: C_3  and  O_4
REMARK    3  A    between atoms: O_4  and  C_5
REMARK    4  A    between atoms: C_10  and  C_11
REMARK    5  A    between atoms: N_13  and  C_14
REMARK    6  A    between atoms: N_20  and  C_21
REMARK                            x       y       z     vdW  Elec       q    Type
REMARK                         _______ _______ _______ _____ _____    ______ ____
ROOT
ATOM      1  C   UNL     1       6.762   7.490  17.461  0.00  0.00    +0.000 C 
ENDROOT
BRANCH   1   3
ATOM      2  O   UNL     1       8.621   7.628  18.910  0.00  0.00    +0.000 OA
ATOM      3  C   UNL     1       7.896   8.250  18.133  0.00  0.00    +0.000 C 
ATOM      4  N   UNL     1       7.963   9.609  17.867  0.00  0.00    +0.000 N 
ATOM      5  H   UNL     1       7.170  10.024  17.388  0.00  0.00    +0.000 HD
BRANCH   4   6
ATOM      6  C   UNL     1       8.927  10.484  18.429  0.00  0.00    +0.000 A 
ATOM      7  C   UNL     1       9.374  10.340  19.767  0.00  0.00    +0.000 A 
ATOM      8  C   UNL     1      10.184  11.291  20.394  0.00  0.00    +0.000 A 
ATOM      9  C   UNL     1      10.590  12.340  19.621  0.00  0.00    +0.000 A 
ATOM     10  N   UNL     1      11.372  13.432  19.968  0.00  0.00    +0.000 N 
ATOM     11  C   UNL     1      11.633  14.176  18.812  0.00  0.00    +0.000 A 
ATOM     12  O   UNL     1      12.333  15.170  18.734  0.00  0.00    +0.000 OA
ATOM     13  N   UNL     1      10.942  13.547  17.764  0.00  0.00    +0.000 N 
ATOM     14  C   UNL     1      10.274  12.434  18.267  0.00  0.00    +0.000 A 
ATOM     15  C   UNL     1       9.428  11.537  17.643  0.00  0.00    +0.000 A 
ATOM     16  H   UNL     1      11.702  13.679  20.887  0.00  0.00    +0.000 HD
ATOM     17  H   UNL     1      10.978  13.866  16.809  0.00  0.00    +0.000 HD
ENDBRANCH   4   6
ENDBRANCH   1   3
BRANCH   1  18
ATOM     18  O   UNL     1       6.804   6.072  17.515  0.00  0.00    +0.000 OA
BRANCH  18  19
ATOM     19  C   UNL     1       6.512   5.437  16.321  0.00  0.00    +0.000 A 
ATOM     20  C   UNL     1       7.402   5.413  15.226  0.00  0.00    +0.000 A 
ATOM     21  C   UNL     1       7.093   4.731  14.047  0.00  0.00    +0.000 A 
ATOM     22  C   UNL     1       5.889   4.055  13.937  0.00  0.00    +0.000 A 
ATOM     23  C   UNL     1       4.990   4.080  14.999  0.00  0.00    +0.000 A 
ATOM     24  C   UNL     1       5.277   4.775  16.194  0.00  0.00    +0.000 A 
BRANCH  24  25
ATOM     25  C   UNL     1       4.201   4.732  17.236  0.00  0.00    +0.000 C 
ATOM     26  O   UNL     1       3.647   5.789  17.527  0.00  0.00    +0.000 OA
ATOM     27  N   UNL     1       3.942   3.512  17.835  0.00  0.00    +0.000 N 
ATOM     28  H   UNL     1       4.535   2.740  17.550  0.00  0.00    +0.000 HD
BRANCH  27  29
ATOM     29  C   UNL     1       3.022   3.264  18.877  0.00  0.00    +0.000 A 
ATOM     30  C   UNL     1       1.637   3.323  18.714  0.00  0.00    +0.000 A 
ATOM     31  C   UNL     1       0.781   3.123  19.805  0.00  0.00    +0.000 A 
ATOM     32  C   UNL     1       1.306   2.863  21.064  0.00  0.00    +0.000 A 
ATOM     33  C   UNL     1       2.683   2.772  21.233  0.00  0.00    +0.000 A 
ATOM     34  C   UNL     1       3.537   2.965  20.142  0.00  0.00    +0.000 A 
ENDBRANCH  27  29
ENDBRANCH  24  25
ENDBRANCH  18  19
ENDBRANCH   1  18
TORSDOF 6
ENDMDL
MODEL 5
REMARK VINA RESULT:      -8.8      6.162      9.116
REMARK  Name = 
REMARK  6 active torsions:
REMARK  status: ('A' for Active; 'I' for Inactive)
REMARK    1  A    between atoms: C_2  and  C_3
REMARK    2  A    between atoms: C_3  and  O_4
REMARK    3  A    between atoms: O_4  and  C_5
REMARK    4  A    between atoms: C_10  and  C_11
REMARK    5  A    between atoms: N_13  and  C_14
REMARK    6  A    between atoms: N_20  and  C_21
REMARK                            x       y       z     vdW  Elec       q    Type
REMARK                         _______ _______ _______ _____ _____    ______ ____
ROOT
ATOM      1  C   UNL     1       1.927   7.665  19.604  0.00  0.00    +0.000 C 
ENDROOT
BRANCH   1   3
ATOM      2  O   UNL     1       3.025   8.245  17.595  0.00  0.00    +0.000 OA
ATOM      3  C   UNL     1       2.984   7.446  18.531  0.00  0.00    +0.000 C 
ATOM      4  N   UNL     1       3.764   6.308  18.666  0.00  0.00    +0.000 N 
ATOM      5  H   UNL     1       3.472   5.628  19.360  0.00  0.00    +0.000 HD
BRANCH   4   6
ATOM      6  C   UNL     1       4.773   5.921  17.747  0.00  0.00    +0.000 A 
ATOM      7  C   UNL     1       6.133   6.274  17.941  0.00  0.00    +0.000 A 
ATOM      8  C   UNL     1       7.110   6.060  16.966  0.00  0.00    +0.000 A 
ATOM      9  C   UNL     1       6.701   5.414  15.834  0.00  0.00    +0.000 A 
ATOM     10  N   UNL     1       7.432   5.083  14.702  0.00  0.00    +0.000 N 
ATOM     11  C   UNL     1       6.621   4.312  13.862  0.00  0.00    +0.000 A 
ATOM     12  O   UNL     1       6.953   3.802  12.806  0.00  0.00    +0.000 OA
ATOM     13  N   UNL     1       5.362   4.232  14.478  0.00  0.00    +0.000 N 
ATOM     14  C   UNL     1       5.401   4.937  15.678  0.00  0.00    +0.000 A 
ATOM     15  C   UNL     1       4.406   5.190  16.603  0.00  0.00    +0.000 A 
ATOM     16  H   UNL     1       8.380   5.347  14.490  0.00  0.00    +0.000 HD
ATOM     17  H   UNL     1       4.591   3.711  14.093  0.00  0.00    +0.000 HD
ENDBRANCH   4   6
ENDBRANCH   1   3
BRANCH   1  18
ATOM     18  O   UNL     1       1.138   8.841  19.513  0.00  0.00    +0.000 OA
BRANCH  18  19
ATOM     19  C   UNL     1       0.631   9.294  20.718  0.00  0.00    +0.000 A 
ATOM     20  C   UNL     1       1.116   8.858  21.969  0.00  0.00    +0.000 A 
ATOM     21  C   UNL     1       0.608   9.363  23.168  0.00  0.00    +0.000 A 
ATOM     22  C   UNL     1      -0.396  10.318  23.143  0.00  0.00    +0.000 A 
ATOM     23  C   UNL     1      -0.901  10.749  21.920  0.00  0.00    +0.000 A 
ATOM     24  C   UNL     1      -0.410  10.241  20.697  0.00  0.00    +0.000 A 
BRANCH  24  25
ATOM     25  C   UNL     1      -1.071  10.782  19.466  0.00  0.00    +0.000 C 
ATOM     26  O   UNL     1      -1.011  11.993  19.273  0.00  0.00    +0.000 OA
ATOM     27  N   UNL     1      -1.746   9.884  18.659  0.00  0.00    +0.000 N 
ATOM     28  H   UNL     1      -1.779   8.924  18.987  0.00  0.00    +0.000 HD
BRANCH  27  29
ATOM     29  C   UNL     1      -2.486  10.189  17.496  0.00  0.00    +0.000 A 
ATOM     30  C   UNL     1      -2.106   9.791  16.212  0.00  0.00    +0.000 A 
ATOM     31  C   UNL     1      -2.856  10.178  15.095  0.00  0.00    +0.000 A 
ATOM     32  C   UNL     1      -3.990  10.965  15.253  0.00  0.00    +0.000 A 
ATOM     33  C   UNL     1      -4.395  11.343  16.529  0.00  0.00    +0.000 A 
ATOM     34  C   UNL     1      -3.649  10.950  17.645  0.00  0.00    +0.000 A 
ENDBRANCH  27  29
ENDBRANCH  24  25
ENDBRANCH  18  19
ENDBRANCH   1  18
TORSDOF 6
ENDMDL
MODEL 6
REMARK VINA RESULT:      -8.8      5.374      6.925
REMARK  Name = 
REMARK  6 active torsions:
REMARK  status: ('A' for Active; 'I' for Inactive)
REMARK    1  A    between atoms: C_2  and  C_3
REMARK    2  A    between atoms: C_3  and  O_4
REMARK    3  A    between atoms: O_4  and  C_5
REMARK    4  A    between atoms: C_10  and  C_11
REMARK    5  A    between atoms: N_13  and  C_14
REMARK    6  A    between atoms: N_20  and  C_21
REMARK                            x       y       z     vdW  Elec       q    Type
REMARK                         _______ _______ _______ _____ _____    ______ ____
ROOT
ATOM      1  C   UNL     1       3.779   8.043  17.056  0.00  0.00    +0.000 C 
ENDROOT
BRANCH   1   3
ATOM      2  O   UNL     1       2.129   7.518  18.662  0.00  0.00    +0.000 OA
ATOM      3  C   UNL     1       2.571   8.391  17.914  0.00  0.00    +0.000 C 
ATOM      4  N   UNL     1       2.022   9.648  17.716  0.00  0.00    +0.000 N 
ATOM      5  H   UNL     1       2.352  10.174  16.913  0.00  0.00    +0.000 HD
BRANCH   4   6
ATOM      6  C   UNL     1       0.877  10.134  18.396  0.00  0.00    +0.000 A 
ATOM      7  C   UNL     1      -0.433   9.916  17.900  0.00  0.00    +0.000 A 
ATOM      8  C   UNL     1      -1.558  10.533  18.454  0.00  0.00    +0.000 A 
ATOM      9  C   UNL     1      -1.340  11.305  19.558  0.00  0.00    +0.000 A 
ATOM     10  N   UNL     1      -2.246  12.046  20.302  0.00  0.00    +0.000 N 
ATOM     11  C   UNL     1      -1.582  12.566  21.419  0.00  0.00    +0.000 A 
ATOM     12  O   UNL     1      -2.082  13.220  22.318  0.00  0.00    +0.000 OA
ATOM     13  N   UNL     1      -0.238  12.177  21.307  0.00  0.00    +0.000 N 
ATOM     14  C   UNL     1      -0.081  11.426  20.144  0.00  0.00    +0.000 A 
ATOM     15  C   UNL     1       1.052  10.873  19.580  0.00  0.00    +0.000 A 
ATOM     16  H   UNL     1      -3.218  12.207  20.094  0.00  0.00    +0.000 HD
ATOM     17  H   UNL     1       0.461  12.400  21.996  0.00  0.00    +0.000 HD
ENDBRANCH   4   6
ENDBRANCH   1   3
BRANCH   1  18
ATOM     18  O   UNL     1       4.319   6.737  17.186  0.00  0.00    +0.000 OA
BRANCH  18  19
ATOM     19  C   UNL     1       5.610   6.690  17.681  0.00  0.00    +0.000 A 
ATOM     20  C   UNL     1       6.619   7.593  17.284  0.00  0.00    +0.000 A 
ATOM     21  C   UNL     1       7.903   7.542  17.831  0.00  0.00    +0.000 A 
ATOM     22  C   UNL     1       8.207   6.589  18.789  0.00  0.00    +0.000 A 
ATOM     23  C   UNL     1       7.231   5.678  19.183  0.00  0.00    +0.000 A 
ATOM     24  C   UNL     1       5.931   5.704  18.633  0.00  0.00    +0.000 A 
BRANCH  24  25
ATOM     25  C   UNL     1       4.999   4.644  19.137  0.00  0.00    +0.000 C 
ATOM     26  O   UNL     1       5.471   3.535  19.368  0.00  0.00    +0.000 OA
ATOM     27  N   UNL     1       3.662   4.978  19.259  0.00  0.00    +0.000 N 
ATOM     28  H   UNL     1       3.404   5.910  18.954  0.00  0.00    +0.000 HD
BRANCH  27  29
ATOM     29  C   UNL     1       2.612   4.118  19.650  0.00  0.00    +0.000 A 
ATOM     30  C   UNL     1       2.324   3.807  20.980  0.00  0.00    +0.000 A 
ATOM     31  C   UNL     1       1.305   2.900  21.295  0.00  0.00    +0.000 A 
ATOM     32  C   UNL     1       0.568   2.298  20.283  0.00  0.00    +0.000 A 
ATOM     33  C   UNL     1       0.826   2.622  18.956  0.00  0.00    +0.000 A 
ATOM     34  C   UNL     1       1.840   3.534  18.642  0.00  0.00    +0.000 A 
ENDBRANCH  27  29
ENDBRANCH  24  25
ENDBRANCH  18  19
ENDBRANCH   1  18
TORSDOF 6
ENDMDL
MODEL 7
REMARK VINA RESULT:      -8.8      5.553      8.564
REMARK  Name = 
REMARK  6 active torsions:
REMARK  status: ('A' for Active; 'I' for Inactive)
REMARK    1  A    between atoms: C_2  and  C_3
REMARK    2  A    between atoms: C_3  and  O_4
REMARK    3  A    between atoms: O_4  and  C_5
REMARK    4  A    between atoms: C_10  and  C_11
REMARK    5  A    between atoms: N_13  and  C_14
REMARK    6  A    between atoms: N_20  and  C_21
REMARK                            x       y       z     vdW  Elec       q    Type
REMARK                         _______ _______ _______ _____ _____    ______ ____
ROOT
ATOM      1  C   UNL     1       2.756   7.134  19.476  0.00  0.00    +0.000 C 
ENDROOT
BRANCH   1   3
ATOM      2  O   UNL     1       1.078   8.102  20.827  0.00  0.00    +0.000 OA
ATOM      3  C   UNL     1       1.651   8.147  19.739  0.00  0.00    +0.000 C 
ATOM      4  N   UNL     1       1.330   8.988  18.684  0.00  0.00    +0.000 N 
ATOM      5  H   UNL     1       1.729   8.764  17.778  0.00  0.00    +0.000 HD
BRANCH   4   6
ATOM      6  C   UNL     1       0.306   9.969  18.729  0.00  0.00    +0.000 A 
ATOM      7  C   UNL     1       0.469  11.183  19.441  0.00  0.00    +0.000 A 
ATOM      8  C   UNL     1      -0.583  12.079  19.648  0.00  0.00    +0.000 A 
ATOM      9  C   UNL     1      -1.772  11.760  19.057  0.00  0.00    +0.000 A 
ATOM     10  N   UNL     1      -2.981  12.437  19.100  0.00  0.00    +0.000 N 
ATOM     11  C   UNL     1      -3.877  11.799  18.234  0.00  0.00    +0.000 A 
ATOM     12  O   UNL     1      -5.015  12.155  17.980  0.00  0.00    +0.000 OA
ATOM     13  N   UNL     1      -3.206  10.683  17.710  0.00  0.00    +0.000 N 
ATOM     14  C   UNL     1      -1.919  10.640  18.241  0.00  0.00    +0.000 A 
ATOM     15  C   UNL     1      -0.910   9.712  18.071  0.00  0.00    +0.000 A 
ATOM     16  H   UNL     1      -3.208  13.246  19.656  0.00  0.00    +0.000 HD
ATOM     17  H   UNL     1      -3.617  10.058  17.036  0.00  0.00    +0.000 HD
ENDBRANCH   4   6
ENDBRANCH   1   3
BRANCH   1  18
ATOM     18  O   UNL     1       2.393   5.926  18.827  0.00  0.00    +0.000 OA
BRANCH  18  19
ATOM     19  C   UNL     1       2.373   4.811  19.647  0.00  0.00    +0.000 A 
ATOM     20  C   UNL     1       1.336   4.553  20.568  0.00  0.00    +0.000 A 
ATOM     21  C   UNL     1       1.325   3.398  21.354  0.00  0.00    +0.000 A 
ATOM     22  C   UNL     1       2.350   2.474  21.235  0.00  0.00    +0.000 A 
ATOM     23  C   UNL     1       3.392   2.718  20.344  0.00  0.00    +0.000 A 
ATOM     24  C   UNL     1       3.428   3.885  19.550  0.00  0.00    +0.000 A 
BRANCH  24  25
ATOM     25  C   UNL     1       4.626   4.019  18.659  0.00  0.00    +0.000 C 
ATOM     26  O   UNL     1       5.734   3.956  19.183  0.00  0.00    +0.000 OA
ATOM     27  N   UNL     1       4.396   4.255  17.316  0.00  0.00    +0.000 N 
ATOM     28  H   UNL     1       3.426   4.363  17.040  0.00  0.00    +0.000 HD
BRANCH  27  29
ATOM     29  C   UNL     1       5.374   4.475  16.321  0.00  0.00    +0.000 A 
ATOM     30  C   UNL     1       6.407   5.405  16.446  0.00  0.00    +0.000 A 
ATOM     31  C   UNL     1       7.309   5.616  15.396  0.00  0.00    +0.000 A 
ATOM     32  C   UNL     1       7.183   4.897  14.214  0.00  0.00    +0.000 A 
ATOM     33  C   UNL     1       6.176   3.947  14.087  0.00  0.00    +0.000 A 
ATOM     34  C   UNL     1       5.280   3.732  15.140  0.00  0.00    +0.000 A 
ENDBRANCH  27  29
ENDBRANCH  24  25
ENDBRANCH  18  19
ENDBRANCH   1  18
TORSDOF 6
ENDMDL
MODEL 8
REMARK VINA RESULT:      -8.7      6.071      9.336
REMARK  Name = 
REMARK  6 active torsions:
REMARK  status: ('A' for Active; 'I' for Inactive)
REMARK    1  A    between atoms: C_2  and  C_3
REMARK    2  A    between atoms: C_3  and  O_4
REMARK    3  A    between atoms: O_4  and  C_5
REMARK    4  A    between atoms: C_10  and  C_11
REMARK    5  A    between atoms: N_13  and  C_14
REMARK    6  A    between atoms: N_20  and  C_21
REMARK                            x       y       z     vdW  Elec       q    Type
REMARK                         _______ _______ _______ _____ _____    ______ ____
ROOT
ATOM      1  C   UNL     1       1.264   6.968  20.817  0.00  0.00    +0.000 C 
ENDROOT
BRANCH   1   3
ATOM      2  O   UNL     1       2.734   5.134  20.579  0.00  0.00    +0.000 OA
ATOM      3  C   UNL     1       2.198   6.082  20.004  0.00  0.00    +0.000 C 
ATOM      4  N   UNL     1       2.427   6.475  18.695  0.00  0.00    +0.000 N 
ATOM      5  H   UNL     1       2.096   7.396  18.425  0.00  0.00    +0.000 HD
BRANCH   4   6
ATOM      6  C   UNL     1       3.293   5.797  17.799  0.00  0.00    +0.000 A 
ATOM      7  C   UNL     1       3.170   4.406  17.554  0.00  0.00    +0.000 A 
ATOM      8  C   UNL     1       4.117   3.688  16.818  0.00  0.00    +0.000 A 
ATOM      9  C   UNL     1       5.137   4.414  16.276  0.00  0.00    +0.000 A 
ATOM     10  N   UNL     1       6.218   3.979  15.523  0.00  0.00    +0.000 N 
ATOM     11  C   UNL     1       6.927   5.101  15.078  0.00  0.00    +0.000 A 
ATOM     12  O   UNL     1       7.902   5.096  14.347  0.00  0.00    +0.000 OA
ATOM     13  N   UNL     1       6.290   6.225  15.626  0.00  0.00    +0.000 N 
ATOM     14  C   UNL     1       5.205   5.801  16.390  0.00  0.00    +0.000 A 
ATOM     15  C   UNL     1       4.313   6.523  17.160  0.00  0.00    +0.000 A 
ATOM     16  H   UNL     1       6.479   3.027  15.324  0.00  0.00    +0.000 HD
ATOM     17  H   UNL     1       6.584   7.171  15.444  0.00  0.00    +0.000 HD
ENDBRANCH   4   6
ENDBRANCH   1   3
BRANCH   1  18
ATOM     18  O   UNL     1       1.053   8.292  20.353  0.00  0.00    +0.000 OA
BRANCH  18  19
ATOM     19  C   UNL     1       0.405   9.124  21.249  0.00  0.00    +0.000 A 
ATOM     20  C   UNL     1       0.574   9.029  22.646  0.00  0.00    +0.000 A 
ATOM     21  C   UNL     1      -0.066   9.909  23.522  0.00  0.00    +0.000 A 
ATOM     22  C   UNL     1      -0.886  10.906  23.021  0.00  0.00    +0.000 A 
ATOM     23  C   UNL     1      -1.079  11.007  21.646  0.00  0.00    +0.000 A 
ATOM     24  C   UNL     1      -0.452  10.119  20.744  0.00  0.00    +0.000 A 
BRANCH  24  25
ATOM     25  C   UNL     1      -0.778  10.337  19.298  0.00  0.00    +0.000 C 
ATOM     26  O   UNL     1       0.099  10.815  18.583  0.00  0.00    +0.000 OA
ATOM     27  N   UNL     1      -2.061  10.032  18.881  0.00  0.00    +0.000 N 
ATOM     28  H   UNL     1      -2.704   9.722  19.602  0.00  0.00    +0.000 HD
BRANCH  27  29
ATOM     29  C   UNL     1      -2.593  10.222  17.587  0.00  0.00    +0.000 A 
ATOM     30  C   UNL     1      -2.103   9.578  16.449  0.00  0.00    +0.000 A 
ATOM     31  C   UNL     1      -2.640   9.857  15.186  0.00  0.00    +0.000 A 
ATOM     32  C   UNL     1      -3.669  10.780  15.053  0.00  0.00    +0.000 A 
ATOM     33  C   UNL     1      -4.186  11.405  16.182  0.00  0.00    +0.000 A 
ATOM     34  C   UNL     1      -3.654  11.122  17.444  0.00  0.00    +0.000 A 
ENDBRANCH  27  29
ENDBRANCH  24  25
ENDBRANCH  18  19
ENDBRANCH   1  18
TORSDOF 6
ENDMDL
MODEL 9
REMARK VINA RESULT:      -8.7      5.416      7.927
REMARK  Name = 
REMARK  6 active torsions:
REMARK  status: ('A' for Active; 'I' for Inactive)
REMARK    1  A    between atoms: C_2  and  C_3
REMARK    2  A    between atoms: C_3  and  O_4
REMARK    3  A    between atoms: O_4  and  C_5
REMARK    4  A    between atoms: C_10  and  C_11
REMARK    5  A    between atoms: N_13  and  C_14
REMARK    6  A    between atoms: N_20  and  C_21
REMARK                            x       y       z     vdW  Elec       q    Type
REMARK                         _______ _______ _______ _____ _____    ______ ____
ROOT
ATOM      1  C   UNL     1       2.826   6.854  18.895  0.00  0.00    +0.000 C 
ENDROOT
BRANCH   1   3
ATOM      2  O   UNL     1       1.533   8.805  18.579  0.00  0.00    +0.000 OA
ATOM      3  C   UNL     1       1.952   7.992  19.403  0.00  0.00    +0.000 C 
ATOM      4  N   UNL     1       1.772   8.057  20.776  0.00  0.00    +0.000 N 
ATOM      5  H   UNL     1       2.356   7.456  21.348  0.00  0.00    +0.000 HD
BRANCH   4   6
ATOM      6  C   UNL     1       1.021   9.065  21.435  0.00  0.00    +0.000 A 
ATOM      7  C   UNL     1       0.191   8.771  22.545  0.00  0.00    +0.000 A 
ATOM      8  C   UNL     1      -0.688   9.707  23.094  0.00  0.00    +0.000 A 
ATOM      9  C   UNL     1      -0.653  10.959  22.550  0.00  0.00    +0.000 A 
ATOM     10  N   UNL     1      -1.413  12.074  22.869  0.00  0.00    +0.000 N 
ATOM     11  C   UNL     1      -0.931  13.163  22.134  0.00  0.00    +0.000 A 
ATOM     12  O   UNL     1      -1.325  14.314  22.204  0.00  0.00    +0.000 OA
ATOM     13  N   UNL     1       0.098  12.674  21.315  0.00  0.00    +0.000 N 
ATOM     14  C   UNL     1       0.249  11.309  21.547  0.00  0.00    +0.000 A 
ATOM     15  C   UNL     1       1.086  10.384  20.952  0.00  0.00    +0.000 A 
ATOM     16  H   UNL     1      -2.189  12.121  23.509  0.00  0.00    +0.000 HD
ATOM     17  H   UNL     1       0.637  13.257  20.696  0.00  0.00    +0.000 HD
ENDBRANCH   4   6
ENDBRANCH   1   3
BRANCH   1  18
ATOM     18  O   UNL     1       2.178   5.643  18.540  0.00  0.00    +0.000 OA
BRANCH  18  19
ATOM     19  C   UNL     1       2.243   4.647  19.498  0.00  0.00    +0.000 A 
ATOM     20  C   UNL     1       1.212   4.410  20.431  0.00  0.00    +0.000 A 
ATOM     21  C   UNL     1       1.292   3.371  21.362  0.00  0.00    +0.000 A 
ATOM     22  C   UNL     1       2.404   2.545  21.379  0.00  0.00    +0.000 A 
ATOM     23  C   UNL     1       3.440   2.773  20.478  0.00  0.00    +0.000 A 
ATOM     24  C   UNL     1       3.384   3.825  19.538  0.00  0.00    +0.000 A 
BRANCH  24  25
ATOM     25  C   UNL     1       4.586   3.959  18.653  0.00  0.00    +0.000 C 
ATOM     26  O   UNL     1       5.691   3.955  19.189  0.00  0.00    +0.000 OA
ATOM     27  N   UNL     1       4.363   4.130  17.299  0.00  0.00    +0.000 N 
ATOM     28  H   UNL     1       3.393   4.194  17.009  0.00  0.00    +0.000 HD
BRANCH  27  29
ATOM     29  C   UNL     1       5.344   4.339  16.304  0.00  0.00    +0.000 A 
ATOM     30  C   UNL     1       6.532   5.038  16.526  0.00  0.00    +0.000 A 
ATOM     31  C   UNL     1       7.435   5.260  15.478  0.00  0.00    +0.000 A 
ATOM     32  C   UNL     1       7.155   4.785  14.203  0.00  0.00    +0.000 A 
ATOM     33  C   UNL     1       5.989   4.063  13.976  0.00  0.00    +0.000 A 
ATOM     34  C   UNL     1       5.091   3.835  15.024  0.00  0.00    +0.000 A 
ENDBRANCH  27  29
ENDBRANCH  24  25
ENDBRANCH  18  19
ENDBRANCH   1  18
TORSDOF 6
ENDMDL
