MODEL 1
REMARK VINA RESULT:      -8.5      0.000      0.000
REMARK  Name = 
REMARK  8 active torsions:
REMARK  status: ('A' for Active; 'I' for Inactive)
REMARK    1  A    between atoms: C_1  and  N_2
REMARK    2  A    between atoms: C_6  and  C_7
REMARK    3  A    between atoms: C_7  and  C_8
REMARK    4  A    between atoms: C_8  and  C_9
REMARK    5  A    between atoms: C_13  and  N_14
REMARK    6  A    between atoms: C_15  and  C_17
REMARK    7  A    between atoms: C_19  and  C_20
REMARK    8  A    between atoms: C_23  and  C_24
REMARK                            x       y       z     vdW  Elec       q    Type
REMARK                         _______ _______ _______ _____ _____    ______ ____
ROOT
ATOM      1  C   UNL     1       5.433   5.304  18.718  0.00  0.00    +0.000 A 
ATOM      2  C   UNL     1       5.059   4.023  19.175  0.00  0.00    +0.000 A 
ATOM      3  C   UNL     1       3.796   3.772  19.706  0.00  0.00    +0.000 A 
ATOM      4  C   UNL     1       2.870   4.805  19.818  0.00  0.00    +0.000 A 
ATOM      5  C   UNL     1       3.196   6.091  19.392  0.00  0.00    +0.000 A 
ATOM      6  C   UNL     1       4.450   6.316  18.809  0.00  0.00    +0.000 A 
ENDROOT
BRANCH   1   7
ATOM      7  C   UNL     1       6.920   5.603  18.178  0.00  0.00    +0.000 C 
ATOM      8  C   UNL     1       7.234   7.048  17.686  0.00  0.00    +0.000 C 
ATOM      9  O   UNL     1       8.217   7.258  18.720  0.00  0.00    +0.000 OA
ATOM     10  C   UNL     1       7.963   5.960  19.282  0.00  0.00    +0.000 C 
BRANCH   7  11
ATOM     11  C   UNL     1       7.416   4.465  17.260  0.00  0.00    +0.000 C 
BRANCH  11  17
ATOM     12  C   UNL     1       4.746   3.410  15.852  0.00  0.00    +0.000 C 
ATOM     13  N   UNL     1       5.850   4.111  15.250  0.00  0.00    +0.000 N 
ATOM     14  C   UNL     1       5.947   4.393  13.920  0.00  0.00    +0.000 A 
ATOM     15  N   UNL     1       7.068   5.028  13.686  0.00  0.00    +0.000 NA
ATOM     16  N   UNL     1       7.725   5.160  14.882  0.00  0.00    +0.000 NA
ATOM     17  C   UNL     1       6.997   4.602  15.830  0.00  0.00    +0.000 A 
ENDBRANCH  11  17
ENDBRANCH   7  11
ENDBRANCH   1   7
BRANCH   5  18
ATOM     18  N   UNL     1       2.341   7.195  19.556  0.00  0.00    +0.000 N 
ATOM     19  C   UNL     1       2.146   8.212  18.640  0.00  0.00    +0.000 C 
ATOM     20  O   UNL     1       2.707   8.358  17.563  0.00  0.00    +0.000 OA
ATOM     21  H   UNL     1       1.700   7.191  20.348  0.00  0.00    +0.000 HD
BRANCH  19  22
ATOM     22  C   UNL     1       1.077   9.194  19.023  0.00  0.00    +0.000 A 
ATOM     23  C   UNL     1       0.189   9.599  18.049  0.00  0.00    +0.000 A 
ATOM     24  C   UNL     1      -0.787  10.445  18.487  0.00  0.00    +0.000 A 
ATOM     25  N   UNL     1      -0.878  10.851  19.776  0.00  0.00    +0.000 NA
ATOM     26  C   UNL     1       0.047  10.424  20.657  0.00  0.00    +0.000 A 
ATOM     27  N   UNL     1       1.038   9.571  20.321  0.00  0.00    +0.000 NA
BRANCH  26  28
ATOM     28  C   UNL     1      -0.151  10.857  22.079  0.00  0.00    +0.000 C 
ATOM     29  C   UNL     1      -1.093  10.518  23.205  0.00  0.00    +0.000 C 
ATOM     30  C   UNL     1      -0.251   9.613  22.801  0.00  0.00    +0.000 C 
ENDBRANCH  26  28
BRANCH  24  31
ATOM     31  C   UNL     1      -1.805  10.945  17.587  0.00  0.00    +0.000 C 
ATOM     32  N   UNL     1      -2.635  11.313  16.889  0.00  0.00    +0.000 NA
ENDBRANCH  24  31
ENDBRANCH  19  22
ENDBRANCH   5  18
TORSDOF 7
ENDMDL
MODEL 2
REMARK VINA RESULT:      -8.4      1.616      1.880
REMARK  Name = 
REMARK  8 active torsions:
REMARK  status: ('A' for Active; 'I' for Inactive)
REMARK    1  A    between atoms: C_1  and  N_2
REMARK    2  A    between atoms: C_6  and  C_7
REMARK    3  A    between atoms: C_7  and  C_8
REMARK    4  A    between atoms: C_8  and  C_9
REMARK    5  A    between atoms: C_13  and  N_14
REMARK    6  A    between atoms: C_15  and  C_17
REMARK    7  A    between atoms: C_19  and  C_20
REMARK    8  A    between atoms: C_23  and  C_24
REMARK                            x       y       z     vdW  Elec       q    Type
REMARK                         _______ _______ _______ _____ _____    ______ ____
ROOT
ATOM      1  C   UNL     1       4.582   4.710  17.061  0.00  0.00    +0.000 A 
ATOM      2  C   UNL     1       3.789   3.544  17.060  0.00  0.00    +0.000 A 
ATOM      3  C   UNL     1       2.488   3.539  17.557  0.00  0.00    +0.000 A 
ATOM      4  C   UNL     1       1.945   4.702  18.096  0.00  0.00    +0.000 A 
ATOM      5  C   UNL     1       2.693   5.877  18.133  0.00  0.00    +0.000 A 
ATOM      6  C   UNL     1       3.979   5.880  17.578  0.00  0.00    +0.000 A 
ENDROOT
BRANCH   1   7
ATOM      7  C   UNL     1       6.111   4.688  16.557  0.00  0.00    +0.000 C 
ATOM      8  C   UNL     1       6.862   6.050  16.461  0.00  0.00    +0.000 C 
ATOM      9  O   UNL     1       7.821   5.668  17.468  0.00  0.00    +0.000 OA
ATOM     10  C   UNL     1       7.168   4.402  17.667  0.00  0.00    +0.000 C 
BRANCH   7  11
ATOM     11  C   UNL     1       6.280   3.749  15.342  0.00  0.00    +0.000 C 
BRANCH  11  17
ATOM     12  C   UNL     1       5.735   3.112  12.256  0.00  0.00    +0.000 C 
ATOM     13  N   UNL     1       6.633   4.088  12.816  0.00  0.00    +0.000 N 
ATOM     14  C   UNL     1       7.460   4.883  12.080  0.00  0.00    +0.000 A 
ATOM     15  N   UNL     1       8.154   5.654  12.878  0.00  0.00    +0.000 NA
ATOM     16  N   UNL     1       7.784   5.357  14.164  0.00  0.00    +0.000 NA
ATOM     17  C   UNL     1       6.870   4.406  14.134  0.00  0.00    +0.000 A 
ENDBRANCH  11  17
ENDBRANCH   7  11
ENDBRANCH   1   7
BRANCH   5  18
ATOM     18  N   UNL     1       2.238   7.060  18.741  0.00  0.00    +0.000 N 
ATOM     19  C   UNL     1       2.225   8.315  18.161  0.00  0.00    +0.000 C 
ATOM     20  O   UNL     1       2.643   8.627  17.055  0.00  0.00    +0.000 OA
ATOM     21  H   UNL     1       1.745   6.983  19.629  0.00  0.00    +0.000 HD
BRANCH  19  22
ATOM     22  C   UNL     1       1.562   9.375  18.993  0.00  0.00    +0.000 A 
ATOM     23  C   UNL     1       1.121  10.517  18.360  0.00  0.00    +0.000 A 
ATOM     24  C   UNL     1       0.478  11.405  19.172  0.00  0.00    +0.000 A 
ATOM     25  N   UNL     1       0.286  11.180  20.493  0.00  0.00    +0.000 NA
ATOM     26  C   UNL     1       0.771  10.046  21.035  0.00  0.00    +0.000 A 
ATOM     27  N   UNL     1       1.403   9.100  20.308  0.00  0.00    +0.000 NA
BRANCH  26  28
ATOM     28  C   UNL     1       0.465   9.829  22.487  0.00  0.00    +0.000 C 
ATOM     29  C   UNL     1      -0.750   9.912  23.374  0.00  0.00    +0.000 C 
ATOM     30  C   UNL     1      -0.702   8.983  22.465  0.00  0.00    +0.000 C 
ENDBRANCH  26  28
BRANCH  24  31
ATOM     31  C   UNL     1      -0.058  12.645  18.650  0.00  0.00    +0.000 C 
ATOM     32  N   UNL     1      -0.473  13.612  18.201  0.00  0.00    +0.000 NA
ENDBRANCH  24  31
ENDBRANCH  19  22
ENDBRANCH   5  18
TORSDOF 7
ENDMDL
MODEL 3
REMARK VINA RESULT:      -8.0      1.943      2.895
REMARK  Name = 
REMARK  8 active torsions:
REMARK  status: ('A' for Active; 'I' for Inactive)
REMARK    1  A    between atoms: C_1  and  N_2
REMARK    2  A    between atoms: C_6  and  C_7
REMARK    3  A    between atoms: C_7  and  C_8
REMARK    4  A    between atoms: C_8  and  C_9
REMARK    5  A    between atoms: C_13  and  N_14
REMARK    6  A    between atoms: C_15  and  C_17
REMARK    7  A    between atoms: C_19  and  C_20
REMARK    8  A    between atoms: C_23  and  C_24
REMARK                            x       y       z     vdW  Elec       q    Type
REMARK                         _______ _______ _______ _____ _____    ______ ____
ROOT
ATOM      1  C   UNL     1       4.763   5.493  17.474  0.00  0.00    +0.000 A 
ATOM      2  C   UNL     1       4.046   4.283  17.374  0.00  0.00    +0.000 A 
ATOM      3  C   UNL     1       2.673   4.222  17.600  0.00  0.00    +0.000 A 
ATOM      4  C   UNL     1       1.975   5.371  17.958  0.00  0.00    +0.000 A 
ATOM      5  C   UNL     1       2.641   6.589  18.084  0.00  0.00    +0.000 A 
ATOM      6  C   UNL     1       4.011   6.645  17.799  0.00  0.00    +0.000 A 
ENDROOT
BRANCH   1   7
ATOM      7  C   UNL     1       6.362   5.540  17.289  0.00  0.00    +0.000 C 
ATOM      8  C   UNL     1       7.021   6.930  17.039  0.00  0.00    +0.000 C 
ATOM      9  O   UNL     1       7.770   6.869  18.270  0.00  0.00    +0.000 OA
ATOM     10  C   UNL     1       7.179   5.606  18.616  0.00  0.00    +0.000 C 
BRANCH   7  11
ATOM     11  C   UNL     1       6.846   4.400  16.367  0.00  0.00    +0.000 C 
BRANCH  11  17
ATOM     12  C   UNL     1       5.429   3.566  13.624  0.00  0.00    +0.000 C 
ATOM     13  N   UNL     1       6.563   4.433  13.810  0.00  0.00    +0.000 N 
ATOM     14  C   UNL     1       7.264   5.010  12.793  0.00  0.00    +0.000 A 
ATOM     15  N   UNL     1       8.239   5.732  13.285  0.00  0.00    +0.000 NA
ATOM     16  N   UNL     1       8.185   5.623  14.651  0.00  0.00    +0.000 NA
ATOM     17  C   UNL     1       7.179   4.834  14.974  0.00  0.00    +0.000 A 
ENDBRANCH  11  17
ENDBRANCH   7  11
ENDBRANCH   1   7
BRANCH   5  18
ATOM     18  N   UNL     1       2.013   7.767  18.526  0.00  0.00    +0.000 N 
ATOM     19  C   UNL     1       1.587   8.022  19.816  0.00  0.00    +0.000 C 
ATOM     20  O   UNL     1       1.632   7.265  20.776  0.00  0.00    +0.000 OA
ATOM     21  H   UNL     1       1.988   8.563  17.892  0.00  0.00    +0.000 HD
BRANCH  19  22
ATOM     22  C   UNL     1       1.068   9.414  20.033  0.00  0.00    +0.000 A 
ATOM     23  C   UNL     1       0.371   9.674  21.194  0.00  0.00    +0.000 A 
ATOM     24  C   UNL     1      -0.016  10.973  21.346  0.00  0.00    +0.000 A 
ATOM     25  N   UNL     1       0.265  11.931  20.431  0.00  0.00    +0.000 NA
ATOM     26  C   UNL     1       0.931  11.583  19.312  0.00  0.00    +0.000 A 
ATOM     27  N   UNL     1       1.372  10.328  19.083  0.00  0.00    +0.000 NA
BRANCH  26  28
ATOM     28  C   UNL     1       1.267  12.703  18.373  0.00  0.00    +0.000 C 
ATOM     29  C   UNL     1       2.336  13.760  18.270  0.00  0.00    +0.000 C 
ATOM     30  C   UNL     1       2.673  12.514  18.111  0.00  0.00    +0.000 C 
ENDBRANCH  26  28
BRANCH  24  31
ATOM     31  C   UNL     1      -0.741  11.406  22.522  0.00  0.00    +0.000 C 
ATOM     32  N   UNL     1      -1.333  11.776  23.428  0.00  0.00    +0.000 NA
ENDBRANCH  24  31
ENDBRANCH  19  22
ENDBRANCH   5  18
TORSDOF 7
ENDMDL
MODEL 4
REMARK VINA RESULT:      -8.0      2.084      3.254
REMARK  Name = 
REMARK  8 active torsions:
REMARK  status: ('A' for Active; 'I' for Inactive)
REMARK    1  A    between atoms: C_1  and  N_2
REMARK    2  A    between atoms: C_6  and  C_7
REMARK    3  A    between atoms: C_7  and  C_8
REMARK    4  A    between atoms: C_8  and  C_9
REMARK    5  A    between atoms: C_13  and  N_14
REMARK    6  A    between atoms: C_15  and  C_17
REMARK    7  A    between atoms: C_19  and  C_20
REMARK    8  A    between atoms: C_23  and  C_24
REMARK                            x       y       z     vdW  Elec       q    Type
REMARK                         _______ _______ _______ _____ _____    ______ ____
ROOT
ATOM      1  C   UNL     1       4.492   5.070  17.075  0.00  0.00    +0.000 A 
ATOM      2  C   UNL     1       3.908   3.830  17.407  0.00  0.00    +0.000 A 
ATOM      3  C   UNL     1       2.775   3.743  18.213  0.00  0.00    +0.000 A 
ATOM      4  C   UNL     1       2.201   4.899  18.733  0.00  0.00    +0.000 A 
ATOM      5  C   UNL     1       2.749   6.148  18.445  0.00  0.00    +0.000 A 
ATOM      6  C   UNL     1       3.855   6.222  17.588  0.00  0.00    +0.000 A 
ENDROOT
BRANCH   1   7
ATOM      7  C   UNL     1       5.846   5.156  16.208  0.00  0.00    +0.000 C 
ATOM      8  C   UNL     1       7.097   5.797  16.882  0.00  0.00    +0.000 C 
ATOM      9  O   UNL     1       7.846   4.566  16.814  0.00  0.00    +0.000 OA
ATOM     10  C   UNL     1       6.729   3.871  16.233  0.00  0.00    +0.000 C 
BRANCH   7  11
ATOM     11  C   UNL     1       5.553   5.629  14.767  0.00  0.00    +0.000 C 
BRANCH  11  17
ATOM     12  C   UNL     1       8.218   5.436  13.010  0.00  0.00    +0.000 C 
ATOM     13  N   UNL     1       7.052   4.593  12.952  0.00  0.00    +0.000 N 
ATOM     14  C   UNL     1       6.885   3.575  12.061  0.00  0.00    +0.000 A 
ATOM     15  N   UNL     1       5.722   3.007  12.256  0.00  0.00    +0.000 NA
ATOM     16  N   UNL     1       5.108   3.667  13.289  0.00  0.00    +0.000 NA
ATOM     17  C   UNL     1       5.904   4.631  13.709  0.00  0.00    +0.000 A 
ENDBRANCH  11  17
ENDBRANCH   7  11
ENDBRANCH   1   7
BRANCH   5  18
ATOM     18  N   UNL     1       2.272   7.345  19.008  0.00  0.00    +0.000 N 
ATOM     19  C   UNL     1       2.033   8.522  18.323  0.00  0.00    +0.000 C 
ATOM     20  O   UNL     1       2.234   8.746  17.138  0.00  0.00    +0.000 OA
ATOM     21  H   UNL     1       1.938   7.322  19.969  0.00  0.00    +0.000 HD
BRANCH  19  22
ATOM     22  C   UNL     1       1.401   9.603  19.153  0.00  0.00    +0.000 A 
ATOM     23  C   UNL     1       1.010   9.291  20.437  0.00  0.00    +0.000 A 
ATOM     24  C   UNL     1       0.499  10.339  21.146  0.00  0.00    +0.000 A 
ATOM     25  N   UNL     1       0.389  11.586  20.630  0.00  0.00    +0.000 NA
ATOM     26  C   UNL     1       0.775  11.796  19.357  0.00  0.00    +0.000 A 
ATOM     27  N   UNL     1       1.310  10.827  18.584  0.00  0.00    +0.000 NA
BRANCH  26  28
ATOM     28  C   UNL     1       0.689  13.212  18.870  0.00  0.00    +0.000 C 
ATOM     29  C   UNL     1       1.537  14.454  18.963  0.00  0.00    +0.000 C 
ATOM     30  C   UNL     1       1.982  13.445  18.275  0.00  0.00    +0.000 C 
ENDBRANCH  26  28
BRANCH  24  31
ATOM     31  C   UNL     1       0.060  10.173  22.516  0.00  0.00    +0.000 C 
ATOM     32  N   UNL     1      -0.271  10.006  23.598  0.00  0.00    +0.000 NA
ENDBRANCH  24  31
ENDBRANCH  19  22
ENDBRANCH   5  18
TORSDOF 7
ENDMDL
MODEL 5
REMARK VINA RESULT:      -7.9      2.177      9.219
REMARK  Name = 
REMARK  8 active torsions:
REMARK  status: ('A' for Active; 'I' for Inactive)
REMARK    1  A    between atoms: C_1  and  N_2
REMARK    2  A    between atoms: C_6  and  C_7
REMARK    3  A    between atoms: C_7  and  C_8
REMARK    4  A    between atoms: C_8  and  C_9
REMARK    5  A    between atoms: C_13  and  N_14
REMARK    6  A    between atoms: C_15  and  C_17
REMARK    7  A    between atoms: C_19  and  C_20
REMARK    8  A    between atoms: C_23  and  C_24
REMARK                            x       y       z     vdW  Elec       q    Type
REMARK                         _______ _______ _______ _____ _____    ______ ____
ROOT
ATOM      1  C   UNL     1      -0.187  10.157  20.059  0.00  0.00    +0.000 A 
ATOM      2  C   UNL     1      -0.077  10.227  21.463  0.00  0.00    +0.000 A 
ATOM      3  C   UNL     1       0.784   9.395  22.174  0.00  0.00    +0.000 A 
ATOM      4  C   UNL     1       1.549   8.447  21.502  0.00  0.00    +0.000 A 
ATOM      5  C   UNL     1       1.466   8.329  20.115  0.00  0.00    +0.000 A 
ATOM      6  C   UNL     1       0.637   9.210  19.409  0.00  0.00    +0.000 A 
ENDROOT
BRANCH   1   7
ATOM      7  C   UNL     1      -1.242  11.068  19.252  0.00  0.00    +0.000 C 
ATOM      8  C   UNL     1      -1.914  12.247  20.018  0.00  0.00    +0.000 C 
ATOM      9  O   UNL     1      -1.317  13.236  19.154  0.00  0.00    +0.000 OA
ATOM     10  C   UNL     1      -0.613  12.224  18.415  0.00  0.00    +0.000 C 
BRANCH   7  11
ATOM     11  C   UNL     1      -2.196  10.195  18.408  0.00  0.00    +0.000 C 
BRANCH  11  17
ATOM     12  C   UNL     1      -3.075  10.902  15.416  0.00  0.00    +0.000 C 
ATOM     13  N   UNL     1      -3.762  11.216  16.641  0.00  0.00    +0.000 N 
ATOM     14  C   UNL     1      -4.914  11.942  16.712  0.00  0.00    +0.000 A 
ATOM     15  N   UNL     1      -5.282  12.062  17.962  0.00  0.00    +0.000 NA
ATOM     16  N   UNL     1      -4.352  11.411  18.731  0.00  0.00    +0.000 NA
ATOM     17  C   UNL     1      -3.427  10.904  17.939  0.00  0.00    +0.000 A 
ENDBRANCH  11  17
ENDBRANCH   7  11
ENDBRANCH   1   7
BRANCH   5  18
ATOM     18  N   UNL     1       2.144   7.337  19.385  0.00  0.00    +0.000 N 
ATOM     19  C   UNL     1       2.809   7.525  18.189  0.00  0.00    +0.000 C 
ATOM     20  O   UNL     1       2.886   8.556  17.536  0.00  0.00    +0.000 OA
ATOM     21  H   UNL     1       2.285   6.431  19.827  0.00  0.00    +0.000 HD
BRANCH  19  22
ATOM     22  C   UNL     1       3.555   6.317  17.698  0.00  0.00    +0.000 A 
ATOM     23  C   UNL     1       4.692   6.518  16.945  0.00  0.00    +0.000 A 
ATOM     24  C   UNL     1       5.345   5.375  16.587  0.00  0.00    +0.000 A 
ATOM     25  N   UNL     1       4.912   4.143  16.946  0.00  0.00    +0.000 NA
ATOM     26  C   UNL     1       3.777   4.038  17.664  0.00  0.00    +0.000 A 
ATOM     27  N   UNL     1       3.073   5.113  18.081  0.00  0.00    +0.000 NA
BRANCH  26  28
ATOM     28  C   UNL     1       3.391   2.651  18.085  0.00  0.00    +0.000 C 
ATOM     29  C   UNL     1       2.419   2.034  19.056  0.00  0.00    +0.000 C 
ATOM     30  C   UNL     1       1.951   2.667  18.021  0.00  0.00    +0.000 C 
ENDBRANCH  26  28
BRANCH  24  31
ATOM     31  C   UNL     1       6.565   5.422  15.809  0.00  0.00    +0.000 C 
ATOM     32  N   UNL     1       7.524   5.420  15.185  0.00  0.00    +0.000 NA
ENDBRANCH  24  31
ENDBRANCH  19  22
ENDBRANCH   5  18
TORSDOF 7
ENDMDL
MODEL 6
REMARK VINA RESULT:      -7.9      2.734     10.115
REMARK  Name = 
REMARK  8 active torsions:
REMARK  status: ('A' for Active; 'I' for Inactive)
REMARK    1  A    between atoms: C_1  and  N_2
REMARK    2  A    between atoms: C_6  and  C_7
REMARK    3  A    between atoms: C_7  and  C_8
REMARK    4  A    between atoms: C_8  and  C_9
REMARK    5  A    between atoms: C_13  and  N_14
REMARK    6  A    between atoms: C_15  and  C_17
REMARK    7  A    between atoms: C_19  and  C_20
REMARK    8  A    between atoms: C_23  and  C_24
REMARK                            x       y       z     vdW  Elec       q    Type
REMARK                         _______ _______ _______ _____ _____    ______ ____
ROOT
ATOM      1  C   UNL     1      -1.036  10.384  17.775  0.00  0.00    +0.000 A 
ATOM      2  C   UNL     1      -0.682  11.334  18.756  0.00  0.00    +0.000 A 
ATOM      3  C   UNL     1       0.553  11.300  19.400  0.00  0.00    +0.000 A 
ATOM      4  C   UNL     1       1.467  10.295  19.099  0.00  0.00    +0.000 A 
ATOM      5  C   UNL     1       1.159   9.324  18.148  0.00  0.00    +0.000 A 
ATOM      6  C   UNL     1      -0.063   9.405  17.469  0.00  0.00    +0.000 A 
ENDROOT
BRANCH   1   7
ATOM      7  C   UNL     1      -2.494  10.384  17.092  0.00  0.00    +0.000 C 
ATOM      8  C   UNL     1      -2.814  11.516  16.071  0.00  0.00    +0.000 C 
ATOM      9  O   UNL     1      -2.968  10.581  14.983  0.00  0.00    +0.000 OA
ATOM     10  C   UNL     1      -2.634   9.473  15.835  0.00  0.00    +0.000 C 
BRANCH   7  11
ATOM     11  C   UNL     1      -3.595  10.101  18.138  0.00  0.00    +0.000 C 
BRANCH  11  17
ATOM     12  C   UNL     1      -3.750  12.638  20.078  0.00  0.00    +0.000 C 
ATOM     13  N   UNL     1      -4.703  12.221  19.084  0.00  0.00    +0.000 N 
ATOM     14  C   UNL     1      -5.892  12.845  18.849  0.00  0.00    +0.000 A 
ATOM     15  N   UNL     1      -6.535  12.224  17.894  0.00  0.00    +0.000 NA
ATOM     16  N   UNL     1      -5.760  11.165  17.495  0.00  0.00    +0.000 NA
ATOM     17  C   UNL     1      -4.655  11.155  18.215  0.00  0.00    +0.000 A 
ENDBRANCH  11  17
ENDBRANCH   7  11
ENDBRANCH   1   7
BRANCH   5  18
ATOM     18  N   UNL     1       1.999   8.234  17.861  0.00  0.00    +0.000 N 
ATOM     19  C   UNL     1       2.422   7.278  18.765  0.00  0.00    +0.000 C 
ATOM     20  O   UNL     1       2.186   7.234  19.964  0.00  0.00    +0.000 OA
ATOM     21  H   UNL     1       2.212   8.038  16.884  0.00  0.00    +0.000 HD
BRANCH  19  22
ATOM     22  C   UNL     1       3.208   6.153  18.154  0.00  0.00    +0.000 A 
ATOM     23  C   UNL     1       2.951   4.870  18.587  0.00  0.00    +0.000 A 
ATOM     24  C   UNL     1       3.662   3.900  17.945  0.00  0.00    +0.000 A 
ATOM     25  N   UNL     1       4.548   4.176  16.959  0.00  0.00    +0.000 NA
ATOM     26  C   UNL     1       4.756   5.461  16.615  0.00  0.00    +0.000 A 
ATOM     27  N   UNL     1       4.085   6.488  17.180  0.00  0.00    +0.000 NA
BRANCH  26  28
ATOM     28  C   UNL     1       5.699   5.691  15.471  0.00  0.00    +0.000 C 
ATOM     29  C   UNL     1       6.843   4.949  14.831  0.00  0.00    +0.000 C 
ATOM     30  C   UNL     1       5.645   4.453  14.733  0.00  0.00    +0.000 C 
ENDBRANCH  26  28
BRANCH  24  31
ATOM     31  C   UNL     1       3.489   2.501  18.276  0.00  0.00    +0.000 C 
ATOM     32  N   UNL     1       3.366   1.403  18.575  0.00  0.00    +0.000 NA
ENDBRANCH  24  31
ENDBRANCH  19  22
ENDBRANCH   5  18
TORSDOF 7
ENDMDL
MODEL 7
REMARK VINA RESULT:      -7.9      2.578      9.015
REMARK  Name = 
REMARK  8 active torsions:
REMARK  status: ('A' for Active; 'I' for Inactive)
REMARK    1  A    between atoms: C_1  and  N_2
REMARK    2  A    between atoms: C_6  and  C_7
REMARK    3  A    between atoms: C_7  and  C_8
REMARK    4  A    between atoms: C_8  and  C_9
REMARK    5  A    between atoms: C_13  and  N_14
REMARK    6  A    between atoms: C_15  and  C_17
REMARK    7  A    between atoms: C_19  and  C_20
REMARK    8  A    between atoms: C_23  and  C_24
REMARK                            x       y       z     vdW  Elec       q    Type
REMARK                         _______ _______ _______ _____ _____    ______ ____
ROOT
ATOM      1  C   UNL     1      -0.453  10.807  19.740  0.00  0.00    +0.000 A 
ATOM      2  C   UNL     1      -0.468  10.958  21.142  0.00  0.00    +0.000 A 
ATOM      3  C   UNL     1       0.304  10.153  21.977  0.00  0.00    +0.000 A 
ATOM      4  C   UNL     1       1.103   9.151  21.433  0.00  0.00    +0.000 A 
ATOM      5  C   UNL     1       1.143   8.953  20.054  0.00  0.00    +0.000 A 
ATOM      6  C   UNL     1       0.403   9.806  19.225  0.00  0.00    +0.000 A 
ENDROOT
BRANCH   1   7
ATOM      7  C   UNL     1      -1.407  11.688  18.789  0.00  0.00    +0.000 C 
ATOM      8  C   UNL     1      -2.436  10.932  17.896  0.00  0.00    +0.000 C 
ATOM      9  O   UNL     1      -3.562  11.534  18.567  0.00  0.00    +0.000 OA
ATOM     10  C   UNL     1      -2.696  12.237  19.474  0.00  0.00    +0.000 C 
BRANCH   7  11
ATOM     11  C   UNL     1      -0.607  12.804  18.082  0.00  0.00    +0.000 C 
BRANCH  11  17
ATOM     12  C   UNL     1       2.574  12.496  18.194  0.00  0.00    +0.000 C 
ATOM     13  N   UNL     1       1.734  13.337  19.005  0.00  0.00    +0.000 N 
ATOM     14  C   UNL     1       2.187  14.123  20.023  0.00  0.00    +0.000 A 
ATOM     15  N   UNL     1       1.181  14.757  20.570  0.00  0.00    +0.000 NA
ATOM     16  N   UNL     1       0.043  14.378  19.907  0.00  0.00    +0.000 NA
ATOM     17  C   UNL     1       0.370  13.515  18.965  0.00  0.00    +0.000 A 
ENDBRANCH  11  17
ENDBRANCH   7  11
ENDBRANCH   1   7
BRANCH   5  18
ATOM     18  N   UNL     1       1.859   7.906  19.448  0.00  0.00    +0.000 N 
ATOM     19  C   UNL     1       2.519   7.972  18.235  0.00  0.00    +0.000 C 
ATOM     20  O   UNL     1       2.558   8.919  17.462  0.00  0.00    +0.000 OA
ATOM     21  H   UNL     1       2.034   7.066  19.996  0.00  0.00    +0.000 HD
BRANCH  19  22
ATOM     22  C   UNL     1       3.311   6.743  17.893  0.00  0.00    +0.000 A 
ATOM     23  C   UNL     1       4.480   6.901  17.180  0.00  0.00    +0.000 A 
ATOM     24  C   UNL     1       5.171   5.746  16.959  0.00  0.00    +0.000 A 
ATOM     25  N   UNL     1       4.744   4.542  17.408  0.00  0.00    +0.000 NA
ATOM     26  C   UNL     1       3.578   4.476  18.077  0.00  0.00    +0.000 A 
ATOM     27  N   UNL     1       2.834   5.567  18.360  0.00  0.00    +0.000 NA
BRANCH  26  28
ATOM     28  C   UNL     1       3.197   3.124  18.604  0.00  0.00    +0.000 C 
ATOM     29  C   UNL     1       1.954   2.274  18.639  0.00  0.00    +0.000 C 
ATOM     30  C   UNL     1       2.520   2.506  17.491  0.00  0.00    +0.000 C 
ENDBRANCH  26  28
BRANCH  24  31
ATOM     31  C   UNL     1       6.427   5.751  16.239  0.00  0.00    +0.000 C 
ATOM     32  N   UNL     1       7.409   5.722  15.651  0.00  0.00    +0.000 NA
ENDBRANCH  24  31
ENDBRANCH  19  22
ENDBRANCH   5  18
TORSDOF 7
ENDMDL
MODEL 8
REMARK VINA RESULT:      -7.9      2.233      9.011
REMARK  Name = 
REMARK  8 active torsions:
REMARK  status: ('A' for Active; 'I' for Inactive)
REMARK    1  A    between atoms: C_1  and  N_2
REMARK    2  A    between atoms: C_6  and  C_7
REMARK    3  A    between atoms: C_7  and  C_8
REMARK    4  A    between atoms: C_8  and  C_9
REMARK    5  A    between atoms: C_13  and  N_14
REMARK    6  A    between atoms: C_15  and  C_17
REMARK    7  A    between atoms: C_19  and  C_20
REMARK    8  A    between atoms: C_23  and  C_24
REMARK                            x       y       z     vdW  Elec       q    Type
REMARK                         _______ _______ _______ _____ _____    ______ ____
ROOT
ATOM      1  C   UNL     1      -0.534  11.179  20.352  0.00  0.00    +0.000 A 
ATOM      2  C   UNL     1      -0.644  11.128  21.757  0.00  0.00    +0.000 A 
ATOM      3  C   UNL     1      -0.012  10.140  22.509  0.00  0.00    +0.000 A 
ATOM      4  C   UNL     1       0.736   9.154  21.872  0.00  0.00    +0.000 A 
ATOM      5  C   UNL     1       0.864   9.153  20.484  0.00  0.00    +0.000 A 
ATOM      6  C   UNL     1       0.268  10.184  19.748  0.00  0.00    +0.000 A 
ENDROOT
BRANCH   1   7
ATOM      7  C   UNL     1      -1.333  12.276  19.486  0.00  0.00    +0.000 C 
ATOM      8  C   UNL     1      -1.241  13.764  19.940  0.00  0.00    +0.000 C 
ATOM      9  O   UNL     1      -0.580  14.164  18.722  0.00  0.00    +0.000 OA
ATOM     10  C   UNL     1      -0.571  12.811  18.234  0.00  0.00    +0.000 C 
BRANCH   7  11
ATOM     11  C   UNL     1      -2.750  11.776  19.129  0.00  0.00    +0.000 C 
BRANCH  11  17
ATOM     12  C   UNL     1      -5.202  12.117  17.105  0.00  0.00    +0.000 C 
ATOM     13  N   UNL     1      -3.971  11.401  16.897  0.00  0.00    +0.000 N 
ATOM     14  C   UNL     1      -3.679  10.686  15.773  0.00  0.00    +0.000 A 
ATOM     15  N   UNL     1      -2.492  10.146  15.892  0.00  0.00    +0.000 NA
ATOM     16  N   UNL     1      -1.995  10.505  17.118  0.00  0.00    +0.000 NA
ATOM     17  C   UNL     1      -2.887  11.258  17.732  0.00  0.00    +0.000 A 
ENDBRANCH  11  17
ENDBRANCH   7  11
ENDBRANCH   1   7
BRANCH   5  18
ATOM     18  N   UNL     1       1.530   8.138  19.774  0.00  0.00    +0.000 N 
ATOM     19  C   UNL     1       2.204   8.296  18.578  0.00  0.00    +0.000 C 
ATOM     20  O   UNL     1       2.299   9.315  17.908  0.00  0.00    +0.000 OA
ATOM     21  H   UNL     1       1.657   7.238  20.232  0.00  0.00    +0.000 HD
BRANCH  19  22
ATOM     22  C   UNL     1       2.934   7.070  18.112  0.00  0.00    +0.000 A 
ATOM     23  C   UNL     1       4.159   7.236  17.501  0.00  0.00    +0.000 A 
ATOM     24  C   UNL     1       4.785   6.073  17.159  0.00  0.00    +0.000 A 
ATOM     25  N   UNL     1       4.248   4.854  17.404  0.00  0.00    +0.000 NA
ATOM     26  C   UNL     1       3.035   4.785  17.984  0.00  0.00    +0.000 A 
ATOM     27  N   UNL     1       2.347   5.880  18.375  0.00  0.00    +0.000 NA
BRANCH  26  28
ATOM     28  C   UNL     1       2.529   3.406  18.287  0.00  0.00    +0.000 C 
ATOM     29  C   UNL     1       2.549   2.060  17.610  0.00  0.00    +0.000 C 
ATOM     30  C   UNL     1       3.671   2.563  18.034  0.00  0.00    +0.000 C 
ENDBRANCH  26  28
BRANCH  24  31
ATOM     31  C   UNL     1       6.087   6.082  16.525  0.00  0.00    +0.000 C 
ATOM     32  N   UNL     1       7.132   6.090  16.060  0.00  0.00    +0.000 NA
ENDBRANCH  24  31
ENDBRANCH  19  22
ENDBRANCH   5  18
TORSDOF 7
ENDMDL
MODEL 9
REMARK VINA RESULT:      -7.9      2.427      8.978
REMARK  Name = 
REMARK  8 active torsions:
REMARK  status: ('A' for Active; 'I' for Inactive)
REMARK    1  A    between atoms: C_1  and  N_2
REMARK    2  A    between atoms: C_6  and  C_7
REMARK    3  A    between atoms: C_7  and  C_8
REMARK    4  A    between atoms: C_8  and  C_9
REMARK    5  A    between atoms: C_13  and  N_14
REMARK    6  A    between atoms: C_15  and  C_17
REMARK    7  A    between atoms: C_19  and  C_20
REMARK    8  A    between atoms: C_23  and  C_24
REMARK                            x       y       z     vdW  Elec       q    Type
REMARK                         _______ _______ _______ _____ _____    ______ ____
ROOT
ATOM      1  C   UNL     1      -0.590  11.226  20.504  0.00  0.00    +0.000 A 
ATOM      2  C   UNL     1      -0.814  11.126  21.893  0.00  0.00    +0.000 A 
ATOM      3  C   UNL     1      -0.227  10.123  22.661  0.00  0.00    +0.000 A 
ATOM      4  C   UNL     1       0.588   9.170  22.057  0.00  0.00    +0.000 A 
ATOM      5  C   UNL     1       0.828   9.218  20.685  0.00  0.00    +0.000 A 
ATOM      6  C   UNL     1       0.276  10.265  19.936  0.00  0.00    +0.000 A 
ENDROOT
BRANCH   1   7
ATOM      7  C   UNL     1      -1.334  12.341  19.612  0.00  0.00    +0.000 C 
ATOM      8  C   UNL     1      -1.211  13.828  20.060  0.00  0.00    +0.000 C 
ATOM      9  O   UNL     1      -0.508  14.201  18.857  0.00  0.00    +0.000 OA
ATOM     10  C   UNL     1      -0.526  12.846  18.377  0.00  0.00    +0.000 C 
BRANCH   7  11
ATOM     11  C   UNL     1      -2.756  11.880  19.223  0.00  0.00    +0.000 C 
BRANCH  11  17
ATOM     12  C   UNL     1      -5.191  12.105  17.162  0.00  0.00    +0.000 C 
ATOM     13  N   UNL     1      -3.941  11.413  16.988  0.00  0.00    +0.000 N 
ATOM     14  C   UNL     1      -3.619  10.673  15.889  0.00  0.00    +0.000 A 
ATOM     15  N   UNL     1      -2.422  10.165  16.036  0.00  0.00    +0.000 NA
ATOM     16  N   UNL     1      -1.948  10.570  17.257  0.00  0.00    +0.000 NA
ATOM     17  C   UNL     1      -2.865  11.319  17.839  0.00  0.00    +0.000 A 
ENDBRANCH  11  17
ENDBRANCH   7  11
ENDBRANCH   1   7
BRANCH   5  18
ATOM     18  N   UNL     1       1.568   8.239  19.999  0.00  0.00    +0.000 N 
ATOM     19  C   UNL     1       1.817   8.216  18.639  0.00  0.00    +0.000 C 
ATOM     20  O   UNL     1       1.405   9.001  17.796  0.00  0.00    +0.000 OA
ATOM     21  H   UNL     1       2.088   7.559  20.550  0.00  0.00    +0.000 HD
BRANCH  19  22
ATOM     22  C   UNL     1       2.746   7.123  18.198  0.00  0.00    +0.000 A 
ATOM     23  C   UNL     1       2.251   5.838  18.129  0.00  0.00    +0.000 A 
ATOM     24  C   UNL     1       3.138   4.911  17.664  0.00  0.00    +0.000 A 
ATOM     25  N   UNL     1       4.402   5.229  17.297  0.00  0.00    +0.000 NA
ATOM     26  C   UNL     1       4.810   6.507  17.419  0.00  0.00    +0.000 A 
ATOM     27  N   UNL     1       3.999   7.497  17.850  0.00  0.00    +0.000 NA
BRANCH  26  28
ATOM     28  C   UNL     1       6.197   6.803  16.932  0.00  0.00    +0.000 C 
ATOM     29  C   UNL     1       7.493   7.272  17.540  0.00  0.00    +0.000 C 
ATOM     30  C   UNL     1       7.041   6.097  17.864  0.00  0.00    +0.000 C 
ENDBRANCH  26  28
BRANCH  24  31
ATOM     31  C   UNL     1       2.761   3.521  17.519  0.00  0.00    +0.000 C 
ATOM     32  N   UNL     1       2.429   2.430  17.424  0.00  0.00    +0.000 NA
ENDBRANCH  24  31
ENDBRANCH  19  22
ENDBRANCH   5  18
TORSDOF 7
ENDMDL
