MODEL 1
REMARK VINA RESULT:      -8.5      0.000      0.000
REMARK  Name = 
REMARK  6 active torsions:
REMARK  status: ('A' for Active; 'I' for Inactive)
REMARK    1  A    between atoms: C_1  and  C_2
REMARK    2  A    between atoms: C_10  and  C_12
REMARK    3  A    between atoms: C_16  and  S_17
REMARK    4  A    between atoms: S_17  and  N_20
REMARK    5  A    between atoms: N_20  and  C_21
REMARK    6  A    between atoms: C_26  and  C_27
REMARK                            x       y       z     vdW  Elec       q    Type
REMARK                         _______ _______ _______ _____ _____    ______ ____
ROOT
ATOM      1  C   UNL     1       4.351   2.025  20.133  0.00  0.00    +0.000 C 
ATOM      2  C   UNL     1       4.328   3.254  19.294  0.00  0.00    +0.000 A 
ATOM      3  N   UNL     1       5.100   3.370  18.170  0.00  0.00    +0.000 N 
ATOM      4  C   UNL     1       4.896   4.585  17.584  0.00  0.00    +0.000 A 
ATOM      5  N   UNL     1       5.517   4.976  16.463  0.00  0.00    +0.000 NA
ATOM      6  C   UNL     1       5.140   6.208  16.097  0.00  0.00    +0.000 A 
ATOM      7  N   UNL     1       4.264   7.012  16.713  0.00  0.00    +0.000 NA
ATOM      8  C   UNL     1       3.666   6.589  17.846  0.00  0.00    +0.000 A 
ATOM      9  N   UNL     1       2.748   7.418  18.501  0.00  0.00    +0.000 N 
ATOM     10  C   UNL     1       2.383   8.692  18.114  0.00  0.00    +0.000 C 
ATOM     11  O   UNL     1       2.846   9.359  17.198  0.00  0.00    +0.000 OA
ATOM     12  C   UNL     1       3.970   5.299  18.340  0.00  0.00    +0.000 A 
ATOM     13  C   UNL     1       3.600   4.432  19.440  0.00  0.00    +0.000 A 
ATOM     14  C   UNL     1       2.643   4.653  20.562  0.00  0.00    +0.000 C 
ATOM     15  H   UNL     1       5.737   2.677  17.805  0.00  0.00    +0.000 HD
ATOM     16  H   UNL     1       2.360   7.048  19.348  0.00  0.00    +0.000 HD
ENDROOT
BRANCH  10  17
ATOM     17  C   UNL     1       1.300   9.300  18.941  0.00  0.00    +0.000 A 
ATOM     18  C   UNL     1       0.975   8.735  20.184  0.00  0.00    +0.000 A 
ATOM     19  C   UNL     1      -0.020   9.306  20.984  0.00  0.00    +0.000 A 
ATOM     20  C   UNL     1      -0.692  10.451  20.550  0.00  0.00    +0.000 A 
ATOM     21  C   UNL     1      -0.356  11.015  19.319  0.00  0.00    +0.000 A 
ATOM     22  C   UNL     1       0.638  10.453  18.515  0.00  0.00    +0.000 A 
BRANCH  21  23
ATOM     23  S   UNL     1      -1.174  12.475  18.735  0.00  0.00    +0.000 S 
ATOM     24  O   UNL     1      -2.266  12.743  19.650  0.00  0.00    +0.000 OA
ATOM     25  O   UNL     1      -0.184  13.475  18.416  0.00  0.00    +0.000 OA
BRANCH  23  26
ATOM     26  N   UNL     1      -1.876  11.939  17.287  0.00  0.00    +0.000 NA
ATOM     27  H   UNL     1      -1.455  12.422  16.492  0.00  0.00    +0.000 HD
BRANCH  26  28
ATOM     28  C   UNL     1      -2.069  10.496  17.143  0.00  0.00    +0.000 C 
ATOM     29  C   UNL     1      -2.952   9.953  16.055  0.00  0.00    +0.000 C 
ATOM     30  C   UNL     1      -3.383   9.852  17.489  0.00  0.00    +0.000 C 
ENDBRANCH  26  28
ENDBRANCH  23  26
ENDBRANCH  21  23
ENDBRANCH  10  17
TORSDOF 4
ENDMDL
MODEL 2
REMARK VINA RESULT:      -8.5      3.560      8.423
REMARK  Name = 
REMARK  6 active torsions:
REMARK  status: ('A' for Active; 'I' for Inactive)
REMARK    1  A    between atoms: C_1  and  C_2
REMARK    2  A    between atoms: C_10  and  C_12
REMARK    3  A    between atoms: C_16  and  S_17
REMARK    4  A    between atoms: S_17  and  N_20
REMARK    5  A    between atoms: N_20  and  C_21
REMARK    6  A    between atoms: C_26  and  C_27
REMARK                            x       y       z     vdW  Elec       q    Type
REMARK                         _______ _______ _______ _____ _____    ______ ____
ROOT
ATOM      1  C   UNL     1      -1.918  12.112  23.509  0.00  0.00    +0.000 C 
ATOM      2  C   UNL     1      -1.043  11.817  22.342  0.00  0.00    +0.000 A 
ATOM      3  N   UNL     1      -0.662  12.797  21.465  0.00  0.00    +0.000 N 
ATOM      4  C   UNL     1       0.133  12.270  20.490  0.00  0.00    +0.000 A 
ATOM      5  N   UNL     1       0.659  12.997  19.496  0.00  0.00    +0.000 NA
ATOM      6  C   UNL     1       1.400  12.243  18.674  0.00  0.00    +0.000 A 
ATOM      7  N   UNL     1       1.638  10.928  18.763  0.00  0.00    +0.000 NA
ATOM      8  C   UNL     1       1.082  10.226  19.772  0.00  0.00    +0.000 A 
ATOM      9  N   UNL     1       1.321   8.850  19.878  0.00  0.00    +0.000 N 
ATOM     10  C   UNL     1       2.079   8.088  19.012  0.00  0.00    +0.000 C 
ATOM     11  O   UNL     1       2.601   8.440  17.962  0.00  0.00    +0.000 OA
ATOM     12  C   UNL     1       0.280  10.904  20.719  0.00  0.00    +0.000 A 
ATOM     13  C   UNL     1      -0.476  10.618  21.920  0.00  0.00    +0.000 A 
ATOM     14  C   UNL     1      -0.677   9.332  22.649  0.00  0.00    +0.000 C 
ATOM     15  H   UNL     1      -0.917  13.773  21.508  0.00  0.00    +0.000 HD
ATOM     16  H   UNL     1       0.859   8.390  20.639  0.00  0.00    +0.000 HD
ENDROOT
BRANCH  10  17
ATOM     17  C   UNL     1       2.252   6.667  19.433  0.00  0.00    +0.000 A 
ATOM     18  C   UNL     1       1.617   6.206  20.597  0.00  0.00    +0.000 A 
ATOM     19  C   UNL     1       1.747   4.870  20.993  0.00  0.00    +0.000 A 
ATOM     20  C   UNL     1       2.506   3.985  20.225  0.00  0.00    +0.000 A 
ATOM     21  C   UNL     1       3.125   4.447  19.062  0.00  0.00    +0.000 A 
ATOM     22  C   UNL     1       2.999   5.778  18.657  0.00  0.00    +0.000 A 
BRANCH  21  23
ATOM     23  S   UNL     1       4.088   3.356  18.051  0.00  0.00    +0.000 S 
ATOM     24  O   UNL     1       3.763   2.003  18.458  0.00  0.00    +0.000 OA
ATOM     25  O   UNL     1       3.992   3.781  16.675  0.00  0.00    +0.000 OA
BRANCH  23  26
ATOM     26  N   UNL     1       5.665   3.659  18.594  0.00  0.00    +0.000 NA
ATOM     27  H   UNL     1       6.203   2.792  18.613  0.00  0.00    +0.000 HD
BRANCH  26  28
ATOM     28  C   UNL     1       6.340   4.831  18.035  0.00  0.00    +0.000 C 
ATOM     29  C   UNL     1       7.449   4.662  17.034  0.00  0.00    +0.000 C 
ATOM     30  C   UNL     1       7.756   5.162  18.415  0.00  0.00    +0.000 C 
ENDBRANCH  26  28
ENDBRANCH  23  26
ENDBRANCH  21  23
ENDBRANCH  10  17
TORSDOF 4
ENDMDL
MODEL 3
REMARK VINA RESULT:      -8.4      3.951      8.301
REMARK  Name = 
REMARK  6 active torsions:
REMARK  status: ('A' for Active; 'I' for Inactive)
REMARK    1  A    between atoms: C_1  and  C_2
REMARK    2  A    between atoms: C_10  and  C_12
REMARK    3  A    between atoms: C_16  and  S_17
REMARK    4  A    between atoms: S_17  and  N_20
REMARK    5  A    between atoms: N_20  and  C_21
REMARK    6  A    between atoms: C_26  and  C_27
REMARK                            x       y       z     vdW  Elec       q    Type
REMARK                         _______ _______ _______ _____ _____    ______ ____
ROOT
ATOM      1  C   UNL     1       1.125  13.269  18.436  0.00  0.00    +0.000 C 
ATOM      2  C   UNL     1       1.056  12.042  19.276  0.00  0.00    +0.000 A 
ATOM      3  N   UNL     1       0.539  12.069  20.543  0.00  0.00    +0.000 N 
ATOM      4  C   UNL     1       0.589  10.822  21.096  0.00  0.00    +0.000 A 
ATOM      5  N   UNL     1       0.148  10.546  22.330  0.00  0.00    +0.000 NA
ATOM      6  C   UNL     1       0.310   9.251  22.632  0.00  0.00    +0.000 A 
ATOM      7  N   UNL     1       0.836   8.292  21.859  0.00  0.00    +0.000 NA
ATOM      8  C   UNL     1       1.281   8.610  20.626  0.00  0.00    +0.000 A 
ATOM      9  N   UNL     1       1.833   7.618  19.807  0.00  0.00    +0.000 N 
ATOM     10  C   UNL     1       2.004   6.290  20.142  0.00  0.00    +0.000 C 
ATOM     11  O   UNL     1       1.794   5.755  21.223  0.00  0.00    +0.000 OA
ATOM     12  C   UNL     1       1.161   9.946  20.177  0.00  0.00    +0.000 A 
ATOM     13  C   UNL     1       1.454  10.737  19.001  0.00  0.00    +0.000 A 
ATOM     14  C   UNL     1       2.061  10.338  17.698  0.00  0.00    +0.000 C 
ATOM     15  H   UNL     1       0.168  12.875  21.024  0.00  0.00    +0.000 HD
ATOM     16  H   UNL     1       2.162   7.930  18.913  0.00  0.00    +0.000 HD
ENDROOT
BRANCH  10  17
ATOM     17  C   UNL     1       2.518   5.436  19.031  0.00  0.00    +0.000 A 
ATOM     18  C   UNL     1       1.780   4.316  18.618  0.00  0.00    +0.000 A 
ATOM     19  C   UNL     1       2.233   3.518  17.561  0.00  0.00    +0.000 A 
ATOM     20  C   UNL     1       3.423   3.841  16.905  0.00  0.00    +0.000 A 
ATOM     21  C   UNL     1       4.145   4.963  17.312  0.00  0.00    +0.000 A 
ATOM     22  C   UNL     1       3.699   5.766  18.364  0.00  0.00    +0.000 A 
BRANCH  21  23
ATOM     23  S   UNL     1       5.653   5.416  16.499  0.00  0.00    +0.000 S 
ATOM     24  O   UNL     1       6.658   4.453  16.903  0.00  0.00    +0.000 OA
ATOM     25  O   UNL     1       5.376   5.691  15.110  0.00  0.00    +0.000 OA
BRANCH  23  26
ATOM     26  N   UNL     1       6.049   6.878  17.262  0.00  0.00    +0.000 NA
ATOM     27  H   UNL     1       5.562   6.951  18.156  0.00  0.00    +0.000 HD
BRANCH  26  28
ATOM     28  C   UNL     1       7.461   7.261  17.259  0.00  0.00    +0.000 C 
ATOM     29  C   UNL     1       8.239   7.303  18.544  0.00  0.00    +0.000 C 
ATOM     30  C   UNL     1       7.907   8.579  17.827  0.00  0.00    +0.000 C 
ENDBRANCH  26  28
ENDBRANCH  23  26
ENDBRANCH  21  23
ENDBRANCH  10  17
TORSDOF 4
ENDMDL
MODEL 4
REMARK VINA RESULT:      -8.4      3.922      8.429
REMARK  Name = 
REMARK  6 active torsions:
REMARK  status: ('A' for Active; 'I' for Inactive)
REMARK    1  A    between atoms: C_1  and  C_2
REMARK    2  A    between atoms: C_10  and  C_12
REMARK    3  A    between atoms: C_16  and  S_17
REMARK    4  A    between atoms: S_17  and  N_20
REMARK    5  A    between atoms: N_20  and  C_21
REMARK    6  A    between atoms: C_26  and  C_27
REMARK                            x       y       z     vdW  Elec       q    Type
REMARK                         _______ _______ _______ _____ _____    ______ ____
ROOT
ATOM      1  C   UNL     1       0.915  13.292  18.460  0.00  0.00    +0.000 C 
ATOM      2  C   UNL     1       0.830  12.024  19.235  0.00  0.00    +0.000 A 
ATOM      3  N   UNL     1       0.142  11.950  20.416  0.00  0.00    +0.000 N 
ATOM      4  C   UNL     1       0.216  10.686  20.924  0.00  0.00    +0.000 A 
ATOM      5  N   UNL     1      -0.368  10.318  22.072  0.00  0.00    +0.000 NA
ATOM      6  C   UNL     1      -0.145   9.026  22.345  0.00  0.00    +0.000 A 
ATOM      7  N   UNL     1       0.558   8.147  21.619  0.00  0.00    +0.000 NA
ATOM      8  C   UNL     1       1.142   8.556  20.474  0.00  0.00    +0.000 A 
ATOM      9  N   UNL     1       1.880   7.649  19.705  0.00  0.00    +0.000 N 
ATOM     10  C   UNL     1       2.110   6.323  20.011  0.00  0.00    +0.000 C 
ATOM     11  O   UNL     1       1.797   5.723  21.031  0.00  0.00    +0.000 OA
ATOM     12  C   UNL     1       0.978   9.900  20.063  0.00  0.00    +0.000 A 
ATOM     13  C   UNL     1       1.366  10.767  18.970  0.00  0.00    +0.000 A 
ATOM     14  C   UNL     1       2.177  10.478  17.752  0.00  0.00    +0.000 C 
ATOM     15  H   UNL     1      -0.355  12.703  20.869  0.00  0.00    +0.000 HD
ATOM     16  H   UNL     1       2.303   8.028  18.879  0.00  0.00    +0.000 HD
ENDROOT
BRANCH  10  17
ATOM     17  C   UNL     1       2.839   5.565  18.953  0.00  0.00    +0.000 A 
ATOM     18  C   UNL     1       2.202   4.499  18.298  0.00  0.00    +0.000 A 
ATOM     19  C   UNL     1       2.861   3.793  17.286  0.00  0.00    +0.000 A 
ATOM     20  C   UNL     1       4.158   4.153  16.916  0.00  0.00    +0.000 A 
ATOM     21  C   UNL     1       4.782   5.221  17.562  0.00  0.00    +0.000 A 
ATOM     22  C   UNL     1       4.131   5.933  18.572  0.00  0.00    +0.000 A 
BRANCH  21  23
ATOM     23  S   UNL     1       6.423   5.719  17.116  0.00  0.00    +0.000 S 
ATOM     24  O   UNL     1       6.597   7.078  17.590  0.00  0.00    +0.000 OA
ATOM     25  O   UNL     1       7.347   4.667  17.464  0.00  0.00    +0.000 OA
BRANCH  23  26
ATOM     26  N   UNL     1       6.327   5.806  15.426  0.00  0.00    +0.000 NA
ATOM     27  H   UNL     1       6.517   6.758  15.110  0.00  0.00    +0.000 HD
BRANCH  26  28
ATOM     28  C   UNL     1       6.974   4.731  14.673  0.00  0.00    +0.000 C 
ATOM     29  C   UNL     1       7.163   4.851  13.187  0.00  0.00    +0.000 C 
ATOM     30  C   UNL     1       6.186   3.855  13.740  0.00  0.00    +0.000 C 
ENDBRANCH  26  28
ENDBRANCH  23  26
ENDBRANCH  21  23
ENDBRANCH  10  17
TORSDOF 4
ENDMDL
MODEL 5
REMARK VINA RESULT:      -8.3      1.466      2.196
REMARK  Name = 
REMARK  6 active torsions:
REMARK  status: ('A' for Active; 'I' for Inactive)
REMARK    1  A    between atoms: C_1  and  C_2
REMARK    2  A    between atoms: C_10  and  C_12
REMARK    3  A    between atoms: C_16  and  S_17
REMARK    4  A    between atoms: S_17  and  N_20
REMARK    5  A    between atoms: N_20  and  C_21
REMARK    6  A    between atoms: C_26  and  C_27
REMARK                            x       y       z     vdW  Elec       q    Type
REMARK                         _______ _______ _______ _____ _____    ______ ____
ROOT
ATOM      1  C   UNL     1       4.170   2.008  20.482  0.00  0.00    +0.000 C 
ATOM      2  C   UNL     1       4.170   3.206  19.598  0.00  0.00    +0.000 A 
ATOM      3  N   UNL     1       4.973   3.280  18.493  0.00  0.00    +0.000 N 
ATOM      4  C   UNL     1       4.786   4.473  17.857  0.00  0.00    +0.000 A 
ATOM      5  N   UNL     1       5.437   4.823  16.740  0.00  0.00    +0.000 NA
ATOM      6  C   UNL     1       5.073   6.040  16.319  0.00  0.00    +0.000 A 
ATOM      7  N   UNL     1       4.181   6.867  16.881  0.00  0.00    +0.000 NA
ATOM      8  C   UNL     1       3.553   6.486  18.012  0.00  0.00    +0.000 A 
ATOM      9  N   UNL     1       2.619   7.339  18.612  0.00  0.00    +0.000 N 
ATOM     10  C   UNL     1       2.266   8.597  18.169  0.00  0.00    +0.000 C 
ATOM     11  O   UNL     1       2.754   9.231  17.242  0.00  0.00    +0.000 OA
ATOM     12  C   UNL     1       3.841   5.214  18.561  0.00  0.00    +0.000 A 
ATOM     13  C   UNL     1       3.441   4.389  19.681  0.00  0.00    +0.000 A 
ATOM     14  C   UNL     1       2.454   4.651  20.768  0.00  0.00    +0.000 C 
ATOM     15  H   UNL     1       5.619   2.575  18.170  0.00  0.00    +0.000 HD
ATOM     16  H   UNL     1       2.207   7.000  19.461  0.00  0.00    +0.000 HD
ENDROOT
BRANCH  10  17
ATOM     17  C   UNL     1       1.161   9.235  18.943  0.00  0.00    +0.000 A 
ATOM     18  C   UNL     1       1.059   9.006  20.324  0.00  0.00    +0.000 A 
ATOM     19  C   UNL     1       0.045   9.616  21.071  0.00  0.00    +0.000 A 
ATOM     20  C   UNL     1      -0.868  10.466  20.443  0.00  0.00    +0.000 A 
ATOM     21  C   UNL     1      -0.754  10.700  19.072  0.00  0.00    +0.000 A 
ATOM     22  C   UNL     1       0.256  10.098  18.319  0.00  0.00    +0.000 A 
BRANCH  21  23
ATOM     23  S   UNL     1      -1.883  11.781  18.237  0.00  0.00    +0.000 S 
ATOM     24  O   UNL     1      -2.221  11.149  16.977  0.00  0.00    +0.000 OA
ATOM     25  O   UNL     1      -2.896  12.215  19.168  0.00  0.00    +0.000 OA
BRANCH  23  26
ATOM     26  N   UNL     1      -0.899  13.110  17.863  0.00  0.00    +0.000 NA
ATOM     27  H   UNL     1      -1.376  13.726  17.202  0.00  0.00    +0.000 HD
BRANCH  26  28
ATOM     28  C   UNL     1      -0.218  13.762  18.982  0.00  0.00    +0.000 C 
ATOM     29  C   UNL     1      -0.641  15.131  19.435  0.00  0.00    +0.000 C 
ATOM     30  C   UNL     1       0.685  14.942  18.758  0.00  0.00    +0.000 C 
ENDBRANCH  26  28
ENDBRANCH  23  26
ENDBRANCH  21  23
ENDBRANCH  10  17
TORSDOF 4
ENDMDL
MODEL 6
REMARK VINA RESULT:      -8.2      3.615      8.261
REMARK  Name = 
REMARK  6 active torsions:
REMARK  status: ('A' for Active; 'I' for Inactive)
REMARK    1  A    between atoms: C_1  and  C_2
REMARK    2  A    between atoms: C_10  and  C_12
REMARK    3  A    between atoms: C_16  and  S_17
REMARK    4  A    between atoms: S_17  and  N_20
REMARK    5  A    between atoms: N_20  and  C_21
REMARK    6  A    between atoms: C_26  and  C_27
REMARK                            x       y       z     vdW  Elec       q    Type
REMARK                         _______ _______ _______ _____ _____    ______ ____
ROOT
ATOM      1  C   UNL     1      -1.532  12.204  23.077  0.00  0.00    +0.000 C 
ATOM      2  C   UNL     1      -0.680  11.763  21.938  0.00  0.00    +0.000 A 
ATOM      3  N   UNL     1      -0.262  12.640  20.975  0.00  0.00    +0.000 N 
ATOM      4  C   UNL     1       0.502  11.990  20.049  0.00  0.00    +0.000 A 
ATOM      5  N   UNL     1       1.052  12.599  18.991  0.00  0.00    +0.000 NA
ATOM      6  C   UNL     1       1.753  11.740  18.239  0.00  0.00    +0.000 A 
ATOM      7  N   UNL     1       1.931  10.429  18.448  0.00  0.00    +0.000 NA
ATOM      8  C   UNL     1       1.352   9.848  19.519  0.00  0.00    +0.000 A 
ATOM      9  N   UNL     1       1.530   8.479  19.750  0.00  0.00    +0.000 N 
ATOM     10  C   UNL     1       2.246   7.606  18.955  0.00  0.00    +0.000 C 
ATOM     11  O   UNL     1       2.776   7.837  17.876  0.00  0.00    +0.000 OA
ATOM     12  C   UNL     1       0.589  10.646  20.402  0.00  0.00    +0.000 A 
ATOM     13  C   UNL     1      -0.171  10.506  21.627  0.00  0.00    +0.000 A 
ATOM     14  C   UNL     1      -0.424   9.302  22.471  0.00  0.00    +0.000 C 
ATOM     15  H   UNL     1      -0.472  13.626  20.928  0.00  0.00    +0.000 HD
ATOM     16  H   UNL     1       1.053   8.111  20.552  0.00  0.00    +0.000 HD
ENDROOT
BRANCH  10  17
ATOM     17  C   UNL     1       2.358   6.224  19.505  0.00  0.00    +0.000 A 
ATOM     18  C   UNL     1       1.508   5.819  20.546  0.00  0.00    +0.000 A 
ATOM     19  C   UNL     1       1.581   4.519  21.056  0.00  0.00    +0.000 A 
ATOM     20  C   UNL     1       2.499   3.611  20.523  0.00  0.00    +0.000 A 
ATOM     21  C   UNL     1       3.333   4.015  19.480  0.00  0.00    +0.000 A 
ATOM     22  C   UNL     1       3.265   5.310  18.963  0.00  0.00    +0.000 A 
BRANCH  21  23
ATOM     23  S   UNL     1       4.503   2.893  18.766  0.00  0.00    +0.000 S 
ATOM     24  O   UNL     1       5.174   2.225  19.864  0.00  0.00    +0.000 OA
ATOM     25  O   UNL     1       3.863   2.156  17.703  0.00  0.00    +0.000 OA
BRANCH  23  26
ATOM     26  N   UNL     1       5.638   3.947  18.075  0.00  0.00    +0.000 NA
ATOM     27  H   UNL     1       6.541   3.847  18.542  0.00  0.00    +0.000 HD
BRANCH  26  28
ATOM     28  C   UNL     1       5.666   4.018  16.614  0.00  0.00    +0.000 C 
ATOM     29  C   UNL     1       6.712   4.841  15.914  0.00  0.00    +0.000 C 
ATOM     30  C   UNL     1       5.276   5.277  15.892  0.00  0.00    +0.000 C 
ENDBRANCH  26  28
ENDBRANCH  23  26
ENDBRANCH  21  23
ENDBRANCH  10  17
TORSDOF 4
ENDMDL
MODEL 7
REMARK VINA RESULT:      -8.1      2.498      3.230
REMARK  Name = 
REMARK  6 active torsions:
REMARK  status: ('A' for Active; 'I' for Inactive)
REMARK    1  A    between atoms: C_1  and  C_2
REMARK    2  A    between atoms: C_10  and  C_12
REMARK    3  A    between atoms: C_16  and  S_17
REMARK    4  A    between atoms: S_17  and  N_20
REMARK    5  A    between atoms: N_20  and  C_21
REMARK    6  A    between atoms: C_26  and  C_27
REMARK                            x       y       z     vdW  Elec       q    Type
REMARK                         _______ _______ _______ _____ _____    ______ ____
ROOT
ATOM      1  C   UNL     1       2.972   2.511  20.641  0.00  0.00    +0.000 C 
ATOM      2  C   UNL     1       3.188   3.722  19.802  0.00  0.00    +0.000 A 
ATOM      3  N   UNL     1       4.186   3.778  18.868  0.00  0.00    +0.000 N 
ATOM      4  C   UNL     1       4.172   4.988  18.238  0.00  0.00    +0.000 A 
ATOM      5  N   UNL     1       5.035   5.325  17.271  0.00  0.00    +0.000 NA
ATOM      6  C   UNL     1       4.807   6.565  16.819  0.00  0.00    +0.000 A 
ATOM      7  N   UNL     1       3.861   7.422  17.225  0.00  0.00    +0.000 NA
ATOM      8  C   UNL     1       3.016   7.052  18.209  0.00  0.00    +0.000 A 
ATOM      9  N   UNL     1       2.023   7.937  18.645  0.00  0.00    +0.000 N 
ATOM     10  C   UNL     1       1.813   9.217  18.174  0.00  0.00    +0.000 C 
ATOM     11  O   UNL     1       2.492   9.843  17.370  0.00  0.00    +0.000 OA
ATOM     12  C   UNL     1       3.143   5.760  18.771  0.00  0.00    +0.000 A 
ATOM     13  C   UNL     1       2.506   4.935  19.777  0.00  0.00    +0.000 A 
ATOM     14  C   UNL     1       1.345   5.225  20.667  0.00  0.00    +0.000 C 
ATOM     15  H   UNL     1       4.851   3.048  18.654  0.00  0.00    +0.000 HD
ATOM     16  H   UNL     1       1.446   7.603  19.394  0.00  0.00    +0.000 HD
ENDROOT
BRANCH  10  17
ATOM     17  C   UNL     1       0.610   9.893  18.744  0.00  0.00    +0.000 A 
ATOM     18  C   UNL     1      -0.544  10.033  17.959  0.00  0.00    +0.000 A 
ATOM     19  C   UNL     1      -1.690  10.641  18.485  0.00  0.00    +0.000 A 
ATOM     20  C   UNL     1      -1.691  11.104  19.803  0.00  0.00    +0.000 A 
ATOM     21  C   UNL     1      -0.543  10.950  20.583  0.00  0.00    +0.000 A 
ATOM     22  C   UNL     1       0.603  10.343  20.067  0.00  0.00    +0.000 A 
BRANCH  21  23
ATOM     23  S   UNL     1      -0.505  11.512  22.262  0.00  0.00    +0.000 S 
ATOM     24  O   UNL     1       0.150  10.478  23.040  0.00  0.00    +0.000 OA
ATOM     25  O   UNL     1      -0.059  12.884  22.291  0.00  0.00    +0.000 OA
BRANCH  23  26
ATOM     26  N   UNL     1      -2.144  11.475  22.692  0.00  0.00    +0.000 NA
ATOM     27  H   UNL     1      -2.357  10.613  23.196  0.00  0.00    +0.000 HD
BRANCH  26  28
ATOM     28  C   UNL     1      -2.707  12.707  23.248  0.00  0.00    +0.000 C 
ATOM     29  C   UNL     1      -3.851  12.647  24.221  0.00  0.00    +0.000 C 
ATOM     30  C   UNL     1      -4.071  13.188  22.839  0.00  0.00    +0.000 C 
ENDBRANCH  26  28
ENDBRANCH  23  26
ENDBRANCH  21  23
ENDBRANCH  10  17
TORSDOF 4
ENDMDL
MODEL 8
REMARK VINA RESULT:      -8.0      2.013      2.340
REMARK  Name = 
REMARK  6 active torsions:
REMARK  status: ('A' for Active; 'I' for Inactive)
REMARK    1  A    between atoms: C_1  and  C_2
REMARK    2  A    between atoms: C_10  and  C_12
REMARK    3  A    between atoms: C_16  and  S_17
REMARK    4  A    between atoms: S_17  and  N_20
REMARK    5  A    between atoms: N_20  and  C_21
REMARK    6  A    between atoms: C_26  and  C_27
REMARK                            x       y       z     vdW  Elec       q    Type
REMARK                         _______ _______ _______ _____ _____    ______ ____
ROOT
ATOM      1  C   UNL     1       2.718   2.609  20.998  0.00  0.00    +0.000 C 
ATOM      2  C   UNL     1       3.018   3.753  20.093  0.00  0.00    +0.000 A 
ATOM      3  N   UNL     1       4.042   3.701  19.187  0.00  0.00    +0.000 N 
ATOM      4  C   UNL     1       4.105   4.868  18.484  0.00  0.00    +0.000 A 
ATOM      5  N   UNL     1       5.009   5.102  17.523  0.00  0.00    +0.000 NA
ATOM      6  C   UNL     1       4.856   6.320  16.989  0.00  0.00    +0.000 A 
ATOM      7  N   UNL     1       3.944   7.246  17.314  0.00  0.00    +0.000 NA
ATOM      8  C   UNL     1       3.056   6.980  18.294  0.00  0.00    +0.000 A 
ATOM      9  N   UNL     1       2.097   7.938  18.644  0.00  0.00    +0.000 N 
ATOM     10  C   UNL     1       1.963   9.195  18.089  0.00  0.00    +0.000 C 
ATOM     11  O   UNL     1       2.694   9.735  17.269  0.00  0.00    +0.000 OA
ATOM     12  C   UNL     1       3.102   5.721  18.937  0.00  0.00    +0.000 A 
ATOM     13  C   UNL     1       2.398   4.993  19.972  0.00  0.00    +0.000 A 
ATOM     14  C   UNL     1       1.230   5.394  20.808  0.00  0.00    +0.000 C 
ATOM     15  H   UNL     1       4.674   2.928  19.038  0.00  0.00    +0.000 HD
ATOM     16  H   UNL     1       1.484   7.680  19.394  0.00  0.00    +0.000 HD
ENDROOT
BRANCH  10  17
ATOM     17  C   UNL     1       0.781   9.962  18.581  0.00  0.00    +0.000 A 
ATOM     18  C   UNL     1       0.902  10.766  19.725  0.00  0.00    +0.000 A 
ATOM     19  C   UNL     1      -0.188  11.512  20.186  0.00  0.00    +0.000 A 
ATOM     20  C   UNL     1      -1.404  11.466  19.500  0.00  0.00    +0.000 A 
ATOM     21  C   UNL     1      -1.514  10.674  18.356  0.00  0.00    +0.000 A 
ATOM     22  C   UNL     1      -0.431   9.928  17.888  0.00  0.00    +0.000 A 
BRANCH  21  23
ATOM     23  S   UNL     1      -3.034  10.595  17.450  0.00  0.00    +0.000 S 
ATOM     24  O   UNL     1      -2.761  11.102  16.119  0.00  0.00    +0.000 OA
ATOM     25  O   UNL     1      -3.645   9.305  17.663  0.00  0.00    +0.000 OA
BRANCH  23  26
ATOM     26  N   UNL     1      -3.980  11.767  18.229  0.00  0.00    +0.000 NA
ATOM     27  H   UNL     1      -3.428  12.610  18.397  0.00  0.00    +0.000 HD
BRANCH  26  28
ATOM     28  C   UNL     1      -5.334  11.970  17.713  0.00  0.00    +0.000 C 
ATOM     29  C   UNL     1      -6.398  12.571  18.589  0.00  0.00    +0.000 C 
ATOM     30  C   UNL     1      -6.481  11.126  18.194  0.00  0.00    +0.000 C 
ENDBRANCH  26  28
ENDBRANCH  23  26
ENDBRANCH  21  23
ENDBRANCH  10  17
TORSDOF 4
ENDMDL
MODEL 9
REMARK VINA RESULT:      -7.9      1.061      1.079
REMARK  Name = 
REMARK  6 active torsions:
REMARK  status: ('A' for Active; 'I' for Inactive)
REMARK    1  A    between atoms: C_1  and  C_2
REMARK    2  A    between atoms: C_10  and  C_12
REMARK    3  A    between atoms: C_16  and  S_17
REMARK    4  A    between atoms: S_17  and  N_20
REMARK    5  A    between atoms: N_20  and  C_21
REMARK    6  A    between atoms: C_26  and  C_27
REMARK                            x       y       z     vdW  Elec       q    Type
REMARK                         _______ _______ _______ _____ _____    ______ ____
ROOT
ATOM      1  C   UNL     1       2.393   1.658  19.324  0.00  0.00    +0.000 C 
ATOM      2  C   UNL     1       2.758   3.003  18.801  0.00  0.00    +0.000 A 
ATOM      3  N   UNL     1       3.725   3.161  17.845  0.00  0.00    +0.000 N 
ATOM      4  C   UNL     1       3.869   4.483  17.539  0.00  0.00    +0.000 A 
ATOM      5  N   UNL     1       4.742   4.938  16.631  0.00  0.00    +0.000 NA
ATOM      6  C   UNL     1       4.684   6.271  16.518  0.00  0.00    +0.000 A 
ATOM      7  N   UNL     1       3.887   7.114  17.187  0.00  0.00    +0.000 NA
ATOM      8  C   UNL     1       3.027   6.621  18.102  0.00  0.00    +0.000 A 
ATOM      9  N   UNL     1       2.188   7.490  18.809  0.00  0.00    +0.000 N 
ATOM     10  C   UNL     1       2.152   8.864  18.687  0.00  0.00    +0.000 C 
ATOM     11  O   UNL     1       2.891   9.578  18.021  0.00  0.00    +0.000 OA
ATOM     12  C   UNL     1       2.980   5.223  18.315  0.00  0.00    +0.000 A 
ATOM     13  C   UNL     1       2.260   4.262  19.123  0.00  0.00    +0.000 A 
ATOM     14  C   UNL     1       1.182   4.467  20.132  0.00  0.00    +0.000 C 
ATOM     15  H   UNL     1       4.269   2.429  17.413  0.00  0.00    +0.000 HD
ATOM     16  H   UNL     1       1.591   7.056  19.488  0.00  0.00    +0.000 HD
ENDROOT
BRANCH  10  17
ATOM     17  C   UNL     1       1.079   9.526  19.486  0.00  0.00    +0.000 A 
ATOM     18  C   UNL     1       0.724   9.003  20.739  0.00  0.00    +0.000 A 
ATOM     19  C   UNL     1      -0.261   9.624  21.513  0.00  0.00    +0.000 A 
ATOM     20  C   UNL     1      -0.893  10.778  21.043  0.00  0.00    +0.000 A 
ATOM     21  C   UNL     1      -0.527  11.300  19.802  0.00  0.00    +0.000 A 
ATOM     22  C   UNL     1       0.457  10.688  19.023  0.00  0.00    +0.000 A 
BRANCH  21  23
ATOM     23  S   UNL     1      -1.293  12.768  19.172  0.00  0.00    +0.000 S 
ATOM     24  O   UNL     1      -1.533  13.640  20.305  0.00  0.00    +0.000 OA
ATOM     25  O   UNL     1      -0.571  13.215  18.006  0.00  0.00    +0.000 OA
BRANCH  23  26
ATOM     26  N   UNL     1      -2.810  12.197  18.672  0.00  0.00    +0.000 NA
ATOM     27  H   UNL     1      -3.509  12.936  18.756  0.00  0.00    +0.000 HD
BRANCH  26  28
ATOM     28  C   UNL     1      -2.843  11.407  17.441  0.00  0.00    +0.000 C 
ATOM     29  C   UNL     1      -4.134  10.808  16.958  0.00  0.00    +0.000 C 
ATOM     30  C   UNL     1      -3.045   9.918  17.481  0.00  0.00    +0.000 C 
ENDBRANCH  26  28
ENDBRANCH  23  26
ENDBRANCH  21  23
ENDBRANCH  10  17
TORSDOF 4
ENDMDL
