MODEL 1
REMARK VINA RESULT:      -7.7      0.000      0.000
REMARK  Name = 
REMARK  6 active torsions:
REMARK  status: ('A' for Active; 'I' for Inactive)
REMARK    1  A    between atoms: C_2  and  C_16
REMARK    2  A    between atoms: N_3  and  C_4
REMARK    3  A    between atoms: C_7  and  N_8
REMARK    4  A    between atoms: C_21  and  S_22
REMARK    5  A    between atoms: S_22  and  C_23
REMARK    6  A    between atoms: C_23  and  C_24
REMARK                            x       y       z     vdW  Elec       q    Type
REMARK                         _______ _______ _______ _____ _____    ______ ____
ROOT
ATOM      1  O   UNL     1       1.822   9.422  22.611  0.00  0.00    +0.000 OA
ATOM      2  C   UNL     1       0.923   9.667  21.808  0.00  0.00    +0.000 C 
ATOM      3  N   UNL     1       0.651   8.904  20.693  0.00  0.00    +0.000 N 
ATOM      4  H   UNL     1      -0.105   9.209  20.089  0.00  0.00    +0.000 HD
ENDROOT
BRANCH   3   5
ATOM      5  C   UNL     1       1.324   7.728  20.294  0.00  0.00    +0.000 A 
ATOM      6  C   UNL     1       2.221   7.662  19.228  0.00  0.00    +0.000 A 
ATOM      7  C   UNL     1       2.833   6.454  18.872  0.00  0.00    +0.000 A 
ATOM      8  C   UNL     1       2.545   5.269  19.550  0.00  0.00    +0.000 A 
ATOM      9  C   UNL     1       1.669   5.348  20.643  0.00  0.00    +0.000 A 
ATOM     10  C   UNL     1       1.070   6.561  21.013  0.00  0.00    +0.000 A 
BRANCH   8  11
ATOM     11  N   UNL     1       3.068   4.019  19.124  0.00  0.00    +0.000 N 
ATOM     12  C   UNL     1       3.901   3.212  19.985  0.00  0.00    +0.000 C 
ATOM     13  C   UNL     1       4.367   2.072  19.108  0.00  0.00    +0.000 C 
ATOM     14  C   UNL     1       3.234   1.894  18.119  0.00  0.00    +0.000 C 
ATOM     15  C   UNL     1       2.646   3.281  18.004  0.00  0.00    +0.000 C 
ATOM     16  O   UNL     1       1.909   3.609  17.088  0.00  0.00    +0.000 OA
ENDBRANCH   8  11
ENDBRANCH   3   5
BRANCH   2  17
ATOM     17  C   UNL     1       0.091  10.880  22.079  0.00  0.00    +0.000 A 
ATOM     18  C   UNL     1      -0.984  10.663  22.972  0.00  0.00    +0.000 A 
ATOM     19  C   UNL     1      -1.859  11.682  23.317  0.00  0.00    +0.000 A 
ATOM     20  C   UNL     1      -1.640  12.917  22.761  0.00  0.00    +0.000 A 
ATOM     21  N   UNL     1      -0.624  13.177  21.912  0.00  0.00    +0.000 NA
ATOM     22  C   UNL     1       0.240  12.175  21.573  0.00  0.00    +0.000 A 
BRANCH  22  23
ATOM     23  S   UNL     1       1.516  12.711  20.418  0.00  0.00    +0.000 S 
BRANCH  23  24
ATOM     24  C   UNL     1       0.495  12.928  18.923  0.00  0.00    +0.000 C 
BRANCH  24  25
ATOM     25  C   UNL     1      -0.523  11.855  18.591  0.00  0.00    +0.000 A 
ATOM     26  C   UNL     1      -1.887  12.208  18.690  0.00  0.00    +0.000 A 
ATOM     27  C   UNL     1      -2.894  11.335  18.279  0.00  0.00    +0.000 A 
ATOM     28  C   UNL     1      -2.548  10.096  17.765  0.00  0.00    +0.000 A 
ATOM     29  F   UNL     1      -3.509   9.264  17.343  0.00  0.00    +0.000 F 
ATOM     30  C   UNL     1      -1.215   9.715  17.664  0.00  0.00    +0.000 A 
ATOM     31  C   UNL     1      -0.202  10.594  18.068  0.00  0.00    +0.000 A 
ENDBRANCH  24  25
ENDBRANCH  23  24
ENDBRANCH  22  23
ENDBRANCH   2  17
TORSDOF 6
ENDMDL
MODEL 2
REMARK VINA RESULT:      -7.7      6.641     10.181
REMARK  Name = 
REMARK  6 active torsions:
REMARK  status: ('A' for Active; 'I' for Inactive)
REMARK    1  A    between atoms: C_2  and  C_16
REMARK    2  A    between atoms: N_3  and  C_4
REMARK    3  A    between atoms: C_7  and  N_8
REMARK    4  A    between atoms: C_21  and  S_22
REMARK    5  A    between atoms: S_22  and  C_23
REMARK    6  A    between atoms: C_23  and  C_24
REMARK                            x       y       z     vdW  Elec       q    Type
REMARK                         _______ _______ _______ _____ _____    ______ ____
ROOT
ATOM      1  O   UNL     1       8.034   6.753  18.737  0.00  0.00    +0.000 OA
ATOM      2  C   UNL     1       7.429   7.188  17.758  0.00  0.00    +0.000 C 
ATOM      3  N   UNL     1       7.470   8.502  17.343  0.00  0.00    +0.000 N 
ATOM      4  H   UNL     1       6.918   8.754  16.530  0.00  0.00    +0.000 HD
ENDROOT
BRANCH   3   5
ATOM      5  C   UNL     1       8.207   9.550  17.939  0.00  0.00    +0.000 A 
ATOM      6  C   UNL     1       9.041   9.391  19.044  0.00  0.00    +0.000 A 
ATOM      7  C   UNL     1       9.722  10.482  19.599  0.00  0.00    +0.000 A 
ATOM      8  C   UNL     1       9.566  11.770  19.085  0.00  0.00    +0.000 A 
ATOM      9  C   UNL     1       8.753  11.917  17.951  0.00  0.00    +0.000 A 
ATOM     10  C   UNL     1       8.086  10.823  17.382  0.00  0.00    +0.000 A 
BRANCH   8  11
ATOM     11  N   UNL     1      10.158  12.900  19.710  0.00  0.00    +0.000 N 
ATOM     12  C   UNL     1      10.846  13.914  18.948  0.00  0.00    +0.000 C 
ATOM     13  C   UNL     1      11.453  14.829  19.988  0.00  0.00    +0.000 C 
ATOM     14  C   UNL     1      10.494  14.730  21.155  0.00  0.00    +0.000 C 
ATOM     15  C   UNL     1       9.925  13.336  21.026  0.00  0.00    +0.000 C 
ATOM     16  O   UNL     1       9.342  12.776  21.940  0.00  0.00    +0.000 OA
ENDBRANCH   8  11
ENDBRANCH   3   5
BRANCH   2  17
ATOM     17  C   UNL     1       6.598   6.210  16.991  0.00  0.00    +0.000 A 
ATOM     18  C   UNL     1       7.334   5.379  16.116  0.00  0.00    +0.000 A 
ATOM     19  C   UNL     1       6.712   4.426  15.322  0.00  0.00    +0.000 A 
ATOM     20  C   UNL     1       5.348   4.317  15.421  0.00  0.00    +0.000 A 
ATOM     21  N   UNL     1       4.601   5.080  16.247  0.00  0.00    +0.000 NA
ATOM     22  C   UNL     1       5.213   6.015  17.032  0.00  0.00    +0.000 A 
BRANCH  22  23
ATOM     23  S   UNL     1       4.051   6.943  18.051  0.00  0.00    +0.000 S 
BRANCH  23  24
ATOM     24  C   UNL     1       2.569   5.902  17.838  0.00  0.00    +0.000 C 
BRANCH  24  25
ATOM     25  C   UNL     1       2.203   4.943  18.954  0.00  0.00    +0.000 A 
ATOM     26  C   UNL     1       1.989   3.592  18.598  0.00  0.00    +0.000 A 
ATOM     27  C   UNL     1       1.779   2.612  19.567  0.00  0.00    +0.000 A 
ATOM     28  C   UNL     1       1.781   2.971  20.905  0.00  0.00    +0.000 A 
ATOM     29  F   UNL     1       1.608   2.029  21.841  0.00  0.00    +0.000 F 
ATOM     30  C   UNL     1       1.979   4.293  21.287  0.00  0.00    +0.000 A 
ATOM     31  C   UNL     1       2.198   5.278  20.315  0.00  0.00    +0.000 A 
ENDBRANCH  24  25
ENDBRANCH  23  24
ENDBRANCH  22  23
ENDBRANCH   2  17
TORSDOF 6
ENDMDL
MODEL 3
REMARK VINA RESULT:      -7.7      3.839      9.085
REMARK  Name = 
REMARK  6 active torsions:
REMARK  status: ('A' for Active; 'I' for Inactive)
REMARK    1  A    between atoms: C_2  and  C_16
REMARK    2  A    between atoms: N_3  and  C_4
REMARK    3  A    between atoms: C_7  and  N_8
REMARK    4  A    between atoms: C_21  and  S_22
REMARK    5  A    between atoms: S_22  and  C_23
REMARK    6  A    between atoms: C_23  and  C_24
REMARK                            x       y       z     vdW  Elec       q    Type
REMARK                         _______ _______ _______ _____ _____    ______ ____
ROOT
ATOM      1  O   UNL     1       0.689   5.140  20.323  0.00  0.00    +0.000 OA
ATOM      2  C   UNL     1       1.893   5.317  20.140  0.00  0.00    +0.000 C 
ATOM      3  N   UNL     1       2.492   6.556  20.069  0.00  0.00    +0.000 N 
ATOM      4  H   UNL     1       3.492   6.585  19.897  0.00  0.00    +0.000 HD
ENDROOT
BRANCH   3   5
ATOM      5  C   UNL     1       1.853   7.808  20.205  0.00  0.00    +0.000 A 
ATOM      6  C   UNL     1       1.319   8.289  21.400  0.00  0.00    +0.000 A 
ATOM      7  C   UNL     1       0.675   9.532  21.456  0.00  0.00    +0.000 A 
ATOM      8  C   UNL     1       0.518  10.318  20.314  0.00  0.00    +0.000 A 
ATOM      9  C   UNL     1       1.087   9.844  19.123  0.00  0.00    +0.000 A 
ATOM     10  C   UNL     1       1.750   8.610  19.069  0.00  0.00    +0.000 A 
BRANCH   8  11
ATOM     11  N   UNL     1      -0.235  11.522  20.335  0.00  0.00    +0.000 N 
ATOM     12  C   UNL     1      -1.610  11.565  19.895  0.00  0.00    +0.000 C 
ATOM     13  C   UNL     1      -1.976  13.031  19.924  0.00  0.00    +0.000 C 
ATOM     14  C   UNL     1      -1.113  13.594  21.033  0.00  0.00    +0.000 C 
ATOM     15  C   UNL     1       0.107  12.703  21.016  0.00  0.00    +0.000 C 
ATOM     16  O   UNL     1       1.155  13.012  21.561  0.00  0.00    +0.000 OA
ENDBRANCH   8  11
ENDBRANCH   3   5
BRANCH   2  17
ATOM     17  C   UNL     1       2.737   4.092  19.983  0.00  0.00    +0.000 A 
ATOM     18  C   UNL     1       2.814   3.284  21.141  0.00  0.00    +0.000 A 
ATOM     19  C   UNL     1       3.568   2.119  21.166  0.00  0.00    +0.000 A 
ATOM     20  C   UNL     1       4.235   1.776  20.017  0.00  0.00    +0.000 A 
ATOM     21  N   UNL     1       4.186   2.508  18.885  0.00  0.00    +0.000 NA
ATOM     22  C   UNL     1       3.443   3.653  18.858  0.00  0.00    +0.000 A 
BRANCH  22  23
ATOM     23  S   UNL     1       3.516   4.499  17.268  0.00  0.00    +0.000 S 
BRANCH  23  24
ATOM     24  C   UNL     1       5.263   4.191  16.844  0.00  0.00    +0.000 C 
BRANCH  24  25
ATOM     25  C   UNL     1       6.309   5.144  17.388  0.00  0.00    +0.000 A 
ATOM     26  C   UNL     1       6.493   6.362  16.697  0.00  0.00    +0.000 A 
ATOM     27  C   UNL     1       7.334   7.357  17.193  0.00  0.00    +0.000 A 
ATOM     28  C   UNL     1       8.002   7.146  18.388  0.00  0.00    +0.000 A 
ATOM     29  F   UNL     1       8.789   8.110  18.883  0.00  0.00    +0.000 F 
ATOM     30  C   UNL     1       7.849   5.954  19.087  0.00  0.00    +0.000 A 
ATOM     31  C   UNL     1       6.999   4.956  18.594  0.00  0.00    +0.000 A 
ENDBRANCH  24  25
ENDBRANCH  23  24
ENDBRANCH  22  23
ENDBRANCH   2  17
TORSDOF 6
ENDMDL
MODEL 4
REMARK VINA RESULT:      -7.5      3.802      8.959
REMARK  Name = 
REMARK  6 active torsions:
REMARK  status: ('A' for Active; 'I' for Inactive)
REMARK    1  A    between atoms: C_2  and  C_16
REMARK    2  A    between atoms: N_3  and  C_4
REMARK    3  A    between atoms: C_7  and  N_8
REMARK    4  A    between atoms: C_21  and  S_22
REMARK    5  A    between atoms: S_22  and  C_23
REMARK    6  A    between atoms: C_23  and  C_24
REMARK                            x       y       z     vdW  Elec       q    Type
REMARK                         _______ _______ _______ _____ _____    ______ ____
ROOT
ATOM      1  O   UNL     1       3.307   6.801  19.040  0.00  0.00    +0.000 OA
ATOM      2  C   UNL     1       2.393   6.368  19.740  0.00  0.00    +0.000 C 
ATOM      3  N   UNL     1       1.425   7.155  20.326  0.00  0.00    +0.000 N 
ATOM      4  H   UNL     1       0.727   6.692  20.898  0.00  0.00    +0.000 HD
ENDROOT
BRANCH   3   5
ATOM      5  C   UNL     1       1.302   8.558  20.216  0.00  0.00    +0.000 A 
ATOM      6  C   UNL     1       1.061   9.410  21.293  0.00  0.00    +0.000 A 
ATOM      7  C   UNL     1       0.925  10.791  21.106  0.00  0.00    +0.000 A 
ATOM      8  C   UNL     1       0.995  11.360  19.834  0.00  0.00    +0.000 A 
ATOM      9  C   UNL     1       1.271  10.502  18.759  0.00  0.00    +0.000 A 
ATOM     10  C   UNL     1       1.428   9.121  18.946  0.00  0.00    +0.000 A 
BRANCH   8  11
ATOM     11  N   UNL     1       0.741  12.741  19.618  0.00  0.00    +0.000 N 
ATOM     12  C   UNL     1       1.814  13.700  19.509  0.00  0.00    +0.000 C 
ATOM     13  C   UNL     1       1.122  15.044  19.451  0.00  0.00    +0.000 C 
ATOM     14  C   UNL     1      -0.206  14.734  18.794  0.00  0.00    +0.000 C 
ATOM     15  C   UNL     1      -0.478  13.306  19.204  0.00  0.00    +0.000 C 
ATOM     16  O   UNL     1      -1.584  12.796  19.120  0.00  0.00    +0.000 OA
ENDBRANCH   8  11
ENDBRANCH   3   5
BRANCH   2  17
ATOM     17  C   UNL     1       2.357   4.889  19.959  0.00  0.00    +0.000 A 
ATOM     18  C   UNL     1       2.158   4.503  21.304  0.00  0.00    +0.000 A 
ATOM     19  C   UNL     1       2.113   3.167  21.678  0.00  0.00    +0.000 A 
ATOM     20  C   UNL     1       2.265   2.230  20.688  0.00  0.00    +0.000 A 
ATOM     21  N   UNL     1       2.448   2.547  19.389  0.00  0.00    +0.000 NA
ATOM     22  C   UNL     1       2.490   3.861  19.019  0.00  0.00    +0.000 A 
BRANCH  22  23
ATOM     23  S   UNL     1       2.759   4.082  17.251  0.00  0.00    +0.000 S 
BRANCH  23  24
ATOM     24  C   UNL     1       4.480   3.489  17.133  0.00  0.00    +0.000 C 
BRANCH  24  25
ATOM     25  C   UNL     1       5.591   4.430  17.557  0.00  0.00    +0.000 A 
ATOM     26  C   UNL     1       6.154   5.254  16.557  0.00  0.00    +0.000 A 
ATOM     27  C   UNL     1       7.086   6.242  16.872  0.00  0.00    +0.000 A 
ATOM     28  C   UNL     1       7.465   6.419  18.193  0.00  0.00    +0.000 A 
ATOM     29  F   UNL     1       8.339   7.385  18.506  0.00  0.00    +0.000 F 
ATOM     30  C   UNL     1       6.936   5.618  19.199  0.00  0.00    +0.000 A 
ATOM     31  C   UNL     1       5.994   4.630  18.885  0.00  0.00    +0.000 A 
ENDBRANCH  24  25
ENDBRANCH  23  24
ENDBRANCH  22  23
ENDBRANCH   2  17
TORSDOF 6
ENDMDL
MODEL 5
REMARK VINA RESULT:      -7.5      6.626      9.699
REMARK  Name = 
REMARK  6 active torsions:
REMARK  status: ('A' for Active; 'I' for Inactive)
REMARK    1  A    between atoms: C_2  and  C_16
REMARK    2  A    between atoms: N_3  and  C_4
REMARK    3  A    between atoms: C_7  and  N_8
REMARK    4  A    between atoms: C_21  and  S_22
REMARK    5  A    between atoms: S_22  and  C_23
REMARK    6  A    between atoms: C_23  and  C_24
REMARK                            x       y       z     vdW  Elec       q    Type
REMARK                         _______ _______ _______ _____ _____    ______ ____
ROOT
ATOM      1  O   UNL     1       8.206   6.543  18.823  0.00  0.00    +0.000 OA
ATOM      2  C   UNL     1       7.526   6.929  17.872  0.00  0.00    +0.000 C 
ATOM      3  N   UNL     1       7.470   8.236  17.440  0.00  0.00    +0.000 N 
ATOM      4  H   UNL     1       6.862   8.445  16.655  0.00  0.00    +0.000 HD
ENDROOT
BRANCH   3   5
ATOM      5  C   UNL     1       8.175   9.333  17.983  0.00  0.00    +0.000 A 
ATOM      6  C   UNL     1       9.010   9.254  19.097  0.00  0.00    +0.000 A 
ATOM      7  C   UNL     1       9.659  10.390  19.597  0.00  0.00    +0.000 A 
ATOM      8  C   UNL     1       9.469  11.645  19.018  0.00  0.00    +0.000 A 
ATOM      9  C   UNL     1       8.656  11.712  17.877  0.00  0.00    +0.000 A 
ATOM     10  C   UNL     1       8.021  10.572  17.363  0.00  0.00    +0.000 A 
BRANCH   8  11
ATOM     11  N   UNL     1      10.027  12.821  19.587  0.00  0.00    +0.000 N 
ATOM     12  C   UNL     1       9.795  13.180  20.966  0.00  0.00    +0.000 C 
ATOM     13  C   UNL     1      10.415  14.551  21.115  0.00  0.00    +0.000 C 
ATOM     14  C   UNL     1      11.548  14.542  20.110  0.00  0.00    +0.000 C 
ATOM     15  C   UNL     1      11.058  13.600  19.036  0.00  0.00    +0.000 C 
ATOM     16  O   UNL     1      11.556  13.558  17.921  0.00  0.00    +0.000 OA
ENDBRANCH   8  11
ENDBRANCH   3   5
BRANCH   2  17
ATOM     17  C   UNL     1       6.714   5.893  17.162  0.00  0.00    +0.000 A 
ATOM     18  C   UNL     1       7.095   5.673  15.819  0.00  0.00    +0.000 A 
ATOM     19  C   UNL     1       6.433   4.755  15.016  0.00  0.00    +0.000 A 
ATOM     20  C   UNL     1       5.392   4.061  15.579  0.00  0.00    +0.000 A 
ATOM     21  N   UNL     1       4.996   4.228  16.859  0.00  0.00    +0.000 NA
ATOM     22  C   UNL     1       5.649   5.129  17.650  0.00  0.00    +0.000 A 
BRANCH  22  23
ATOM     23  S   UNL     1       4.966   5.222  19.316  0.00  0.00    +0.000 S 
BRANCH  23  24
ATOM     24  C   UNL     1       3.205   5.462  18.905  0.00  0.00    +0.000 C 
BRANCH  24  25
ATOM     25  C   UNL     1       2.630   6.861  19.012  0.00  0.00    +0.000 A 
ATOM     26  C   UNL     1       2.677   7.667  17.852  0.00  0.00    +0.000 A 
ATOM     27  C   UNL     1       2.057   8.915  17.812  0.00  0.00    +0.000 A 
ATOM     28  C   UNL     1       1.383   9.373  18.933  0.00  0.00    +0.000 A 
ATOM     29  F   UNL     1       0.762  10.559  18.891  0.00  0.00    +0.000 F 
ATOM     30  C   UNL     1       1.327   8.608  20.092  0.00  0.00    +0.000 A 
ATOM     31  C   UNL     1       1.943   7.349  20.131  0.00  0.00    +0.000 A 
ENDBRANCH  24  25
ENDBRANCH  23  24
ENDBRANCH  22  23
ENDBRANCH   2  17
TORSDOF 6
ENDMDL
MODEL 6
REMARK VINA RESULT:      -7.5      3.834      8.979
REMARK  Name = 
REMARK  6 active torsions:
REMARK  status: ('A' for Active; 'I' for Inactive)
REMARK    1  A    between atoms: C_2  and  C_16
REMARK    2  A    between atoms: N_3  and  C_4
REMARK    3  A    between atoms: C_7  and  N_8
REMARK    4  A    between atoms: C_21  and  S_22
REMARK    5  A    between atoms: S_22  and  C_23
REMARK    6  A    between atoms: C_23  and  C_24
REMARK                            x       y       z     vdW  Elec       q    Type
REMARK                         _______ _______ _______ _____ _____    ______ ____
ROOT
ATOM      1  O   UNL     1       0.770   4.900  20.262  0.00  0.00    +0.000 OA
ATOM      2  C   UNL     1       1.970   5.094  20.070  0.00  0.00    +0.000 C 
ATOM      3  N   UNL     1       2.553   6.341  20.013  0.00  0.00    +0.000 N 
ATOM      4  H   UNL     1       3.551   6.385  19.833  0.00  0.00    +0.000 HD
ENDROOT
BRANCH   3   5
ATOM      5  C   UNL     1       1.901   7.584  20.178  0.00  0.00    +0.000 A 
ATOM      6  C   UNL     1       1.334   8.018  21.376  0.00  0.00    +0.000 A 
ATOM      7  C   UNL     1       0.679   9.253  21.460  0.00  0.00    +0.000 A 
ATOM      8  C   UNL     1       0.544  10.078  20.342  0.00  0.00    +0.000 A 
ATOM      9  C   UNL     1       1.147   9.652  19.150  0.00  0.00    +0.000 A 
ATOM     10  C   UNL     1       1.820   8.424  19.068  0.00  0.00    +0.000 A 
BRANCH   8  11
ATOM     11  N   UNL     1      -0.219  11.276  20.387  0.00  0.00    +0.000 N 
ATOM     12  C   UNL     1       0.253  12.449  21.083  0.00  0.00    +0.000 C 
ATOM     13  C   UNL     1      -0.905  13.420  21.026  0.00  0.00    +0.000 C 
ATOM     14  C   UNL     1      -1.609  13.062  19.734  0.00  0.00    +0.000 C 
ATOM     15  C   UNL     1      -1.321  11.588  19.573  0.00  0.00    +0.000 C 
ATOM     16  O   UNL     1      -1.957  10.873  18.814  0.00  0.00    +0.000 OA
ENDBRANCH   8  11
ENDBRANCH   3   5
BRANCH   2  17
ATOM     17  C   UNL     1       2.827   3.883  19.883  0.00  0.00    +0.000 A 
ATOM     18  C   UNL     1       3.116   3.182  21.077  0.00  0.00    +0.000 A 
ATOM     19  C   UNL     1       3.909   2.044  21.078  0.00  0.00    +0.000 A 
ATOM     20  C   UNL     1       4.402   1.618  19.870  0.00  0.00    +0.000 A 
ATOM     21  N   UNL     1       4.147   2.246  18.703  0.00  0.00    +0.000 NA
ATOM     22  C   UNL     1       3.364   3.364  18.700  0.00  0.00    +0.000 A 
BRANCH  22  23
ATOM     23  S   UNL     1       3.154   4.068  17.054  0.00  0.00    +0.000 S 
BRANCH  23  24
ATOM     24  C   UNL     1       4.899   4.122  16.526  0.00  0.00    +0.000 C 
BRANCH  24  25
ATOM     25  C   UNL     1       5.807   5.157  17.161  0.00  0.00    +0.000 A 
ATOM     26  C   UNL     1       6.755   4.694  18.100  0.00  0.00    +0.000 A 
ATOM     27  C   UNL     1       7.719   5.546  18.639  0.00  0.00    +0.000 A 
ATOM     28  C   UNL     1       7.745   6.874  18.243  0.00  0.00    +0.000 A 
ATOM     29  F   UNL     1       8.686   7.690  18.735  0.00  0.00    +0.000 F 
ATOM     30  C   UNL     1       6.820   7.362  17.328  0.00  0.00    +0.000 A 
ATOM     31  C   UNL     1       5.856   6.505  16.781  0.00  0.00    +0.000 A 
ENDBRANCH  24  25
ENDBRANCH  23  24
ENDBRANCH  22  23
ENDBRANCH   2  17
TORSDOF 6
ENDMDL
MODEL 7
REMARK VINA RESULT:      -7.4      4.133      9.217
REMARK  Name = 
REMARK  6 active torsions:
REMARK  status: ('A' for Active; 'I' for Inactive)
REMARK    1  A    between atoms: C_2  and  C_16
REMARK    2  A    between atoms: N_3  and  C_4
REMARK    3  A    between atoms: C_7  and  N_8
REMARK    4  A    between atoms: C_21  and  S_22
REMARK    5  A    between atoms: S_22  and  C_23
REMARK    6  A    between atoms: C_23  and  C_24
REMARK                            x       y       z     vdW  Elec       q    Type
REMARK                         _______ _______ _______ _____ _____    ______ ____
ROOT
ATOM      1  O   UNL     1       3.950   6.845  17.769  0.00  0.00    +0.000 OA
ATOM      2  C   UNL     1       3.177   6.287  18.547  0.00  0.00    +0.000 C 
ATOM      3  N   UNL     1       2.157   6.926  19.217  0.00  0.00    +0.000 N 
ATOM      4  H   UNL     1       1.590   6.370  19.849  0.00  0.00    +0.000 HD
ENDROOT
BRANCH   3   5
ATOM      5  C   UNL     1       1.814   8.293  19.121  0.00  0.00    +0.000 A 
ATOM      6  C   UNL     1       2.109   9.100  18.023  0.00  0.00    +0.000 A 
ATOM      7  C   UNL     1       1.760  10.456  18.007  0.00  0.00    +0.000 A 
ATOM      8  C   UNL     1       1.133  11.055  19.101  0.00  0.00    +0.000 A 
ATOM      9  C   UNL     1       0.808  10.230  20.188  0.00  0.00    +0.000 A 
ATOM     10  C   UNL     1       1.139   8.868  20.198  0.00  0.00    +0.000 A 
BRANCH   8  11
ATOM     11  N   UNL     1       0.881  12.452  19.144  0.00  0.00    +0.000 N 
ATOM     12  C   UNL     1       1.956  13.415  19.191  0.00  0.00    +0.000 C 
ATOM     13  C   UNL     1       1.270  14.747  19.389  0.00  0.00    +0.000 C 
ATOM     14  C   UNL     1      -0.072  14.563  18.711  0.00  0.00    +0.000 C 
ATOM     15  C   UNL     1      -0.342  13.084  18.861  0.00  0.00    +0.000 C 
ATOM     16  O   UNL     1      -1.451  12.599  18.705  0.00  0.00    +0.000 OA
ENDBRANCH   8  11
ENDBRANCH   3   5
BRANCH   2  17
ATOM     17  C   UNL     1       3.385   4.822  18.766  0.00  0.00    +0.000 A 
ATOM     18  C   UNL     1       3.041   4.372  20.061  0.00  0.00    +0.000 A 
ATOM     19  C   UNL     1       3.187   3.042  20.431  0.00  0.00    +0.000 A 
ATOM     20  C   UNL     1       3.676   2.176  19.486  0.00  0.00    +0.000 A 
ATOM     21  N   UNL     1       4.010   2.555  18.235  0.00  0.00    +0.000 NA
ATOM     22  C   UNL     1       3.864   3.862  17.869  0.00  0.00    +0.000 A 
BRANCH  22  23
ATOM     23  S   UNL     1       4.378   4.175  16.170  0.00  0.00    +0.000 S 
BRANCH  23  24
ATOM     24  C   UNL     1       6.181   3.975  16.360  0.00  0.00    +0.000 C 
BRANCH  24  25
ATOM     25  C   UNL     1       6.947   5.062  17.089  0.00  0.00    +0.000 A 
ATOM     26  C   UNL     1       7.031   6.324  16.460  0.00  0.00    +0.000 A 
ATOM     27  C   UNL     1       7.599   7.420  17.107  0.00  0.00    +0.000 A 
ATOM     28  C   UNL     1       8.090   7.267  18.394  0.00  0.00    +0.000 A 
ATOM     29  F   UNL     1       8.611   8.323  19.032  0.00  0.00    +0.000 F 
ATOM     30  C   UNL     1       8.031   6.036  19.036  0.00  0.00    +0.000 A 
ATOM     31  C   UNL     1       7.454   4.935  18.390  0.00  0.00    +0.000 A 
ENDBRANCH  24  25
ENDBRANCH  23  24
ENDBRANCH  22  23
ENDBRANCH   2  17
TORSDOF 6
ENDMDL
MODEL 8
REMARK VINA RESULT:      -7.4      4.299      9.280
REMARK  Name = 
REMARK  6 active torsions:
REMARK  status: ('A' for Active; 'I' for Inactive)
REMARK    1  A    between atoms: C_2  and  C_16
REMARK    2  A    between atoms: N_3  and  C_4
REMARK    3  A    between atoms: C_7  and  N_8
REMARK    4  A    between atoms: C_21  and  S_22
REMARK    5  A    between atoms: S_22  and  C_23
REMARK    6  A    between atoms: C_23  and  C_24
REMARK                            x       y       z     vdW  Elec       q    Type
REMARK                         _______ _______ _______ _____ _____    ______ ____
ROOT
ATOM      1  O   UNL     1       2.104   5.790  18.037  0.00  0.00    +0.000 OA
ATOM      2  C   UNL     1       2.488   5.773  19.205  0.00  0.00    +0.000 C 
ATOM      3  N   UNL     1       2.413   6.851  20.062  0.00  0.00    +0.000 N 
ATOM      4  H   UNL     1       2.775   6.729  21.002  0.00  0.00    +0.000 HD
ENDROOT
BRANCH   3   5
ATOM      5  C   UNL     1       1.882   8.125  19.764  0.00  0.00    +0.000 A 
ATOM      6  C   UNL     1       1.997   8.753  18.525  0.00  0.00    +0.000 A 
ATOM      7  C   UNL     1       1.467  10.031  18.309  0.00  0.00    +0.000 A 
ATOM      8  C   UNL     1       0.833  10.734  19.334  0.00  0.00    +0.000 A 
ATOM      9  C   UNL     1       0.690  10.084  20.569  0.00  0.00    +0.000 A 
ATOM     10  C   UNL     1       1.202   8.796  20.781  0.00  0.00    +0.000 A 
BRANCH   8  11
ATOM     11  N   UNL     1       0.397  12.075  19.161  0.00  0.00    +0.000 N 
ATOM     12  C   UNL     1      -0.767  12.588  19.844  0.00  0.00    +0.000 C 
ATOM     13  C   UNL     1      -0.971  13.971  19.268  0.00  0.00    +0.000 C 
ATOM     14  C   UNL     1       0.429  14.416  18.901  0.00  0.00    +0.000 C 
ATOM     15  C   UNL     1       1.140  13.121  18.586  0.00  0.00    +0.000 C 
ATOM     16  O   UNL     1       2.193  13.081  17.971  0.00  0.00    +0.000 OA
ENDBRANCH   8  11
ENDBRANCH   3   5
BRANCH   2  17
ATOM     17  C   UNL     1       3.074   4.490  19.702  0.00  0.00    +0.000 A 
ATOM     18  C   UNL     1       2.266   3.802  20.636  0.00  0.00    +0.000 A 
ATOM     19  C   UNL     1       2.671   2.602  21.204  0.00  0.00    +0.000 A 
ATOM     20  C   UNL     1       3.890   2.104  20.820  0.00  0.00    +0.000 A 
ATOM     21  N   UNL     1       4.694   2.718  19.927  0.00  0.00    +0.000 NA
ATOM     22  C   UNL     1       4.296   3.897  19.365  0.00  0.00    +0.000 A 
BRANCH  22  23
ATOM     23  S   UNL     1       5.508   4.569  18.214  0.00  0.00    +0.000 S 
BRANCH  23  24
ATOM     24  C   UNL     1       4.918   3.794  16.672  0.00  0.00    +0.000 C 
BRANCH  24  25
ATOM     25  C   UNL     1       5.611   4.165  15.375  0.00  0.00    +0.000 A 
ATOM     26  C   UNL     1       6.691   5.072  15.458  0.00  0.00    +0.000 A 
ATOM     27  C   UNL     1       7.474   5.371  14.343  0.00  0.00    +0.000 A 
ATOM     28  C   UNL     1       7.185   4.766  13.131  0.00  0.00    +0.000 A 
ATOM     29  F   UNL     1       7.950   5.028  12.063  0.00  0.00    +0.000 F 
ATOM     30  C   UNL     1       6.123   3.876  13.014  0.00  0.00    +0.000 A 
ATOM     31  C   UNL     1       5.340   3.569  14.135  0.00  0.00    +0.000 A 
ENDBRANCH  24  25
ENDBRANCH  23  24
ENDBRANCH  22  23
ENDBRANCH   2  17
TORSDOF 6
ENDMDL
MODEL 9
REMARK VINA RESULT:      -7.4      1.707      2.468
REMARK  Name = 
REMARK  6 active torsions:
REMARK  status: ('A' for Active; 'I' for Inactive)
REMARK    1  A    between atoms: C_2  and  C_16
REMARK    2  A    between atoms: N_3  and  C_4
REMARK    3  A    between atoms: C_7  and  N_8
REMARK    4  A    between atoms: C_21  and  S_22
REMARK    5  A    between atoms: S_22  and  C_23
REMARK    6  A    between atoms: C_23  and  C_24
REMARK                            x       y       z     vdW  Elec       q    Type
REMARK                         _______ _______ _______ _____ _____    ______ ____
ROOT
ATOM      1  O   UNL     1       1.056  10.588  21.944  0.00  0.00    +0.000 OA
ATOM      2  C   UNL     1       0.939  11.152  20.857  0.00  0.00    +0.000 C 
ATOM      3  N   UNL     1       1.167  10.545  19.641  0.00  0.00    +0.000 N 
ATOM      4  H   UNL     1       1.057  11.111  18.806  0.00  0.00    +0.000 HD
ENDROOT
BRANCH   3   5
ATOM      5  C   UNL     1       1.546   9.201  19.430  0.00  0.00    +0.000 A 
ATOM      6  C   UNL     1       1.545   8.221  20.422  0.00  0.00    +0.000 A 
ATOM      7  C   UNL     1       1.959   6.912  20.146  0.00  0.00    +0.000 A 
ATOM      8  C   UNL     1       2.415   6.549  18.879  0.00  0.00    +0.000 A 
ATOM      9  C   UNL     1       2.381   7.530  17.876  0.00  0.00    +0.000 A 
ATOM     10  C   UNL     1       1.948   8.836  18.145  0.00  0.00    +0.000 A 
BRANCH   8  11
ATOM     11  N   UNL     1       2.947   5.258  18.618  0.00  0.00    +0.000 N 
ATOM     12  C   UNL     1       4.153   4.791  19.261  0.00  0.00    +0.000 C 
ATOM     13  C   UNL     1       4.453   3.466  18.597  0.00  0.00    +0.000 C 
ATOM     14  C   UNL     1       3.086   2.942  18.211  0.00  0.00    +0.000 C 
ATOM     15  C   UNL     1       2.278   4.198  17.983  0.00  0.00    +0.000 C 
ATOM     16  O   UNL     1       1.219   4.197  17.377  0.00  0.00    +0.000 OA
ENDBRANCH   8  11
ENDBRANCH   3   5
BRANCH   2  17
ATOM     17  C   UNL     1       0.530  12.590  20.886  0.00  0.00    +0.000 A 
ATOM     18  C   UNL     1       1.591  13.503  20.684  0.00  0.00    +0.000 A 
ATOM     19  C   UNL     1       1.382  14.875  20.695  0.00  0.00    +0.000 A 
ATOM     20  C   UNL     1       0.100  15.315  20.905  0.00  0.00    +0.000 A 
ATOM     21  N   UNL     1      -0.947  14.485  21.093  0.00  0.00    +0.000 NA
ATOM     22  C   UNL     1      -0.744  13.135  21.080  0.00  0.00    +0.000 A 
BRANCH  22  23
ATOM     23  S   UNL     1      -2.255  12.196  21.365  0.00  0.00    +0.000 S 
BRANCH  23  24
ATOM     24  C   UNL     1      -3.139  12.572  19.814  0.00  0.00    +0.000 C 
BRANCH  24  25
ATOM     25  C   UNL     1      -3.014  11.591  18.664  0.00  0.00    +0.000 A 
ATOM     26  C   UNL     1      -4.034  11.611  17.687  0.00  0.00    +0.000 A 
ATOM     27  C   UNL     1      -3.941  10.842  16.527  0.00  0.00    +0.000 A 
ATOM     28  C   UNL     1      -2.826  10.044  16.331  0.00  0.00    +0.000 A 
ATOM     29  F   UNL     1      -2.718   9.325  15.206  0.00  0.00    +0.000 F 
ATOM     30  C   UNL     1      -1.810   9.995  17.278  0.00  0.00    +0.000 A 
ATOM     31  C   UNL     1      -1.898  10.773  18.441  0.00  0.00    +0.000 A 
ENDBRANCH  24  25
ENDBRANCH  23  24
ENDBRANCH  22  23
ENDBRANCH   2  17
TORSDOF 6
ENDMDL
