MODEL 1
REMARK VINA RESULT:      -8.6      0.000      0.000
REMARK  Name = 
REMARK  5 active torsions:
REMARK  status: ('A' for Active; 'I' for Inactive)
REMARK    1  A    between atoms: C_1  and  C_2
REMARK    2  A    between atoms: C_5  and  C_6
REMARK    3  A    between atoms: C_10  and  N_11
REMARK    4  A    between atoms: C_12  and  C_14
REMARK    5  A    between atoms: C_14  and  C_15
REMARK                            x       y       z     vdW  Elec       q    Type
REMARK                         _______ _______ _______ _____ _____    ______ ____
ROOT
ATOM      1  N   UNL     1       3.311   6.501  19.032  0.00  0.00    +0.000 N 
ATOM      2  C   UNL     1       2.955   5.167  19.206  0.00  0.00    +0.000 C 
ATOM      3  O   UNL     1       1.812   4.744  19.368  0.00  0.00    +0.000 OA
ATOM      4  H   UNL     1       4.271   6.703  18.774  0.00  0.00    +0.000 HD
ENDROOT
BRANCH   1   9
ATOM      5  C   UNL     1       1.045   9.185  20.301  0.00  0.00    +0.000 A 
ATOM      6  C   UNL     1       0.736   9.845  19.102  0.00  0.00    +0.000 A 
ATOM      7  C   UNL     1       1.201   9.363  17.885  0.00  0.00    +0.000 A 
ATOM      8  C   UNL     1       2.017   8.236  17.856  0.00  0.00    +0.000 A 
ATOM      9  C   UNL     1       2.405   7.593  19.033  0.00  0.00    +0.000 A 
ATOM     10  C   UNL     1       1.883   8.051  20.256  0.00  0.00    +0.000 A 
BRANCH   5  15
ATOM     11  C   UNL     1      -2.006  11.663  23.057  0.00  0.00    +0.000 C 
ATOM     12  C   UNL     1      -0.862  10.775  22.783  0.00  0.00    +0.000 A 
ATOM     13  N   UNL     1      -0.099  10.089  23.605  0.00  0.00    +0.000 NA
ATOM     14  N   UNL     1       0.781   9.371  22.811  0.00  0.00    +0.000 NA
ATOM     15  C   UNL     1       0.492   9.676  21.559  0.00  0.00    +0.000 A 
ATOM     16  O   UNL     1      -0.541  10.577  21.471  0.00  0.00    +0.000 OA
ENDBRANCH   5  15
ENDBRANCH   1   9
BRANCH   2  17
ATOM     17  C   UNL     1       4.114   4.189  19.157  0.00  0.00    +0.000 C 
BRANCH  17  18
ATOM     18  C   UNL     1       4.992   4.402  17.951  0.00  0.00    +0.000 A 
ATOM     19  C   UNL     1       4.535   4.003  16.687  0.00  0.00    +0.000 A 
ATOM     20  F   UNL     1       3.312   3.470  16.557  0.00  0.00    +0.000 F 
ATOM     21  C   UNL     1       5.311   4.153  15.540  0.00  0.00    +0.000 A 
ATOM     22  C   UNL     1       6.582   4.710  15.636  0.00  0.00    +0.000 A 
ATOM     23  C   UNL     1       7.063   5.110  16.882  0.00  0.00    +0.000 A 
ATOM     24  C   UNL     1       6.279   4.957  18.031  0.00  0.00    +0.000 A 
ATOM     25 CL   UNL     1       6.945   5.479  19.535  0.00  0.00    +0.000 Cl
ENDBRANCH  17  18
ENDBRANCH   2  17
TORSDOF 4
ENDMDL
MODEL 2
REMARK VINA RESULT:      -8.4      1.518      1.807
REMARK  Name = 
REMARK  5 active torsions:
REMARK  status: ('A' for Active; 'I' for Inactive)
REMARK    1  A    between atoms: C_1  and  C_2
REMARK    2  A    between atoms: C_5  and  C_6
REMARK    3  A    between atoms: C_10  and  N_11
REMARK    4  A    between atoms: C_12  and  C_14
REMARK    5  A    between atoms: C_14  and  C_15
REMARK                            x       y       z     vdW  Elec       q    Type
REMARK                         _______ _______ _______ _____ _____    ______ ____
ROOT
ATOM      1  N   UNL     1       3.226   6.403  19.286  0.00  0.00    +0.000 N 
ATOM      2  C   UNL     1       2.818   5.095  19.531  0.00  0.00    +0.000 C 
ATOM      3  O   UNL     1       1.659   4.724  19.703  0.00  0.00    +0.000 OA
ATOM      4  H   UNL     1       4.194   6.555  19.028  0.00  0.00    +0.000 HD
ENDROOT
BRANCH   1   9
ATOM      5  C   UNL     1       1.005   9.203  20.373  0.00  0.00    +0.000 A 
ATOM      6  C   UNL     1       0.773   9.836  19.142  0.00  0.00    +0.000 A 
ATOM      7  C   UNL     1       1.272   9.299  17.962  0.00  0.00    +0.000 A 
ATOM      8  C   UNL     1       2.047   8.144  18.003  0.00  0.00    +0.000 A 
ATOM      9  C   UNL     1       2.361   7.525  19.215  0.00  0.00    +0.000 A 
ATOM     10  C   UNL     1       1.802   8.040  20.399  0.00  0.00    +0.000 A 
BRANCH   5  15
ATOM     11  C   UNL     1      -2.093  11.844  22.917  0.00  0.00    +0.000 C 
ATOM     12  C   UNL     1      -0.958  10.923  22.720  0.00  0.00    +0.000 A 
ATOM     13  N   UNL     1      -0.240  10.254  23.596  0.00  0.00    +0.000 NA
ATOM     14  N   UNL     1       0.653   9.489  22.863  0.00  0.00    +0.000 NA
ATOM     15  C   UNL     1       0.417   9.752  21.590  0.00  0.00    +0.000 A 
ATOM     16  O   UNL     1      -0.593  10.669  21.429  0.00  0.00    +0.000 OA
ENDBRANCH   5  15
ENDBRANCH   1   9
BRANCH   2  17
ATOM     17  C   UNL     1       3.941   4.074  19.551  0.00  0.00    +0.000 C 
BRANCH  17  18
ATOM     18  C   UNL     1       4.843   4.191  18.349  0.00  0.00    +0.000 A 
ATOM     19  C   UNL     1       6.121   4.746  18.498  0.00  0.00    +0.000 A 
ATOM     20  F   UNL     1       6.543   5.134  19.710  0.00  0.00    +0.000 F 
ATOM     21  C   UNL     1       6.989   4.902  17.420  0.00  0.00    +0.000 A 
ATOM     22  C   UNL     1       6.588   4.503  16.150  0.00  0.00    +0.000 A 
ATOM     23  C   UNL     1       5.319   3.952  15.972  0.00  0.00    +0.000 A 
ATOM     24  C   UNL     1       4.451   3.798  17.060  0.00  0.00    +0.000 A 
ATOM     25 CL   UNL     1       2.899   3.106  16.759  0.00  0.00    +0.000 Cl
ENDBRANCH  17  18
ENDBRANCH   2  17
TORSDOF 4
ENDMDL
MODEL 3
REMARK VINA RESULT:      -7.6      4.265      8.491
REMARK  Name = 
REMARK  5 active torsions:
REMARK  status: ('A' for Active; 'I' for Inactive)
REMARK    1  A    between atoms: C_1  and  C_2
REMARK    2  A    between atoms: C_5  and  C_6
REMARK    3  A    between atoms: C_10  and  N_11
REMARK    4  A    between atoms: C_12  and  C_14
REMARK    5  A    between atoms: C_14  and  C_15
REMARK                            x       y       z     vdW  Elec       q    Type
REMARK                         _______ _______ _______ _____ _____    ______ ____
ROOT
ATOM      1  N   UNL     1       4.123   5.045  18.405  0.00  0.00    +0.000 N 
ATOM      2  C   UNL     1       3.419   6.245  18.445  0.00  0.00    +0.000 C 
ATOM      3  O   UNL     1       3.713   7.271  17.834  0.00  0.00    +0.000 OA
ATOM      4  H   UNL     1       3.701   4.237  18.848  0.00  0.00    +0.000 HD
ENDROOT
BRANCH   1   9
ATOM      5  C   UNL     1       6.380   4.399  15.501  0.00  0.00    +0.000 A 
ATOM      6  C   UNL     1       7.633   4.530  16.119  0.00  0.00    +0.000 A 
ATOM      7  C   UNL     1       7.732   4.747  17.487  0.00  0.00    +0.000 A 
ATOM      8  C   UNL     1       6.575   4.875  18.250  0.00  0.00    +0.000 A 
ATOM      9  C   UNL     1       5.310   4.822  17.661  0.00  0.00    +0.000 A 
ATOM     10  C   UNL     1       5.217   4.544  16.286  0.00  0.00    +0.000 A 
BRANCH   5  15
ATOM     11  C   UNL     1       4.196   3.195  11.399  0.00  0.00    +0.000 C 
ATOM     12  C   UNL     1       5.338   3.575  12.251  0.00  0.00    +0.000 A 
ATOM     13  N   UNL     1       6.579   3.870  11.934  0.00  0.00    +0.000 NA
ATOM     14  N   UNL     1       7.210   4.221  13.116  0.00  0.00    +0.000 NA
ATOM     15  C   UNL     1       6.306   4.109  14.073  0.00  0.00    +0.000 A 
ATOM     16  O   UNL     1       5.090   3.690  13.589  0.00  0.00    +0.000 OA
ENDBRANCH   5  15
ENDBRANCH   1   9
BRANCH   2  17
ATOM     17  C   UNL     1       2.175   6.223  19.314  0.00  0.00    +0.000 C 
BRANCH  17  18
ATOM     18  C   UNL     1       1.807   4.828  19.750  0.00  0.00    +0.000 A 
ATOM     19  C   UNL     1       2.015   4.446  21.082  0.00  0.00    +0.000 A 
ATOM     20  F   UNL     1       2.504   5.331  21.962  0.00  0.00    +0.000 F 
ATOM     21  C   UNL     1       1.717   3.164  21.538  0.00  0.00    +0.000 A 
ATOM     22  C   UNL     1       1.201   2.222  20.655  0.00  0.00    +0.000 A 
ATOM     23  C   UNL     1       0.989   2.574  19.323  0.00  0.00    +0.000 A 
ATOM     24  C   UNL     1       1.290   3.864  18.870  0.00  0.00    +0.000 A 
ATOM     25 CL   UNL     1       0.998   4.223  17.208  0.00  0.00    +0.000 Cl
ENDBRANCH  17  18
ENDBRANCH   2  17
TORSDOF 4
ENDMDL
MODEL 4
REMARK VINA RESULT:      -7.6      5.098      8.923
REMARK  Name = 
REMARK  5 active torsions:
REMARK  status: ('A' for Active; 'I' for Inactive)
REMARK    1  A    between atoms: C_1  and  C_2
REMARK    2  A    between atoms: C_5  and  C_6
REMARK    3  A    between atoms: C_10  and  N_11
REMARK    4  A    between atoms: C_12  and  C_14
REMARK    5  A    between atoms: C_14  and  C_15
REMARK                            x       y       z     vdW  Elec       q    Type
REMARK                         _______ _______ _______ _____ _____    ______ ____
ROOT
ATOM      1  N   UNL     1       5.864   3.914  17.524  0.00  0.00    +0.000 N 
ATOM      2  C   UNL     1       4.991   4.708  18.262  0.00  0.00    +0.000 C 
ATOM      3  O   UNL     1       4.505   5.775  17.892  0.00  0.00    +0.000 OA
ATOM      4  H   UNL     1       6.085   2.994  17.888  0.00  0.00    +0.000 HD
ENDROOT
BRANCH   1   9
ATOM      5  C   UNL     1       6.175   3.933  13.802  0.00  0.00    +0.000 A 
ATOM      6  C   UNL     1       7.160   4.918  13.634  0.00  0.00    +0.000 A 
ATOM      7  C   UNL     1       7.771   5.507  14.735  0.00  0.00    +0.000 A 
ATOM      8  C   UNL     1       7.374   5.146  16.019  0.00  0.00    +0.000 A 
ATOM      9  C   UNL     1       6.347   4.223  16.227  0.00  0.00    +0.000 A 
ATOM     10  C   UNL     1       5.775   3.587  15.110  0.00  0.00    +0.000 A 
BRANCH   5  15
ATOM     11  C   UNL     1       3.068   3.441  10.176  0.00  0.00    +0.000 C 
ATOM     12  C   UNL     1       4.216   3.066  11.021  0.00  0.00    +0.000 A 
ATOM     13  N   UNL     1       5.102   2.104  10.878  0.00  0.00    +0.000 NA
ATOM     14  N   UNL     1       6.001   2.247  11.923  0.00  0.00    +0.000 NA
ATOM     15  C   UNL     1       5.594   3.285  12.631  0.00  0.00    +0.000 A 
ATOM     16  O   UNL     1       4.452   3.847  12.115  0.00  0.00    +0.000 OA
ENDBRANCH   5  15
ENDBRANCH   1   9
BRANCH   2  17
ATOM     17  C   UNL     1       4.621   4.149  19.624  0.00  0.00    +0.000 C 
BRANCH  17  18
ATOM     18  C   UNL     1       3.182   3.704  19.687  0.00  0.00    +0.000 A 
ATOM     19  C   UNL     1       2.223   4.552  20.258  0.00  0.00    +0.000 A 
ATOM     20  F   UNL     1       2.586   5.762  20.709  0.00  0.00    +0.000 F 
ATOM     21  C   UNL     1       0.884   4.186  20.366  0.00  0.00    +0.000 A 
ATOM     22  C   UNL     1       0.470   2.942  19.901  0.00  0.00    +0.000 A 
ATOM     23  C   UNL     1       1.405   2.077  19.333  0.00  0.00    +0.000 A 
ATOM     24  C   UNL     1       2.750   2.450  19.227  0.00  0.00    +0.000 A 
ATOM     25 CL   UNL     1       3.844   1.325  18.510  0.00  0.00    +0.000 Cl
ENDBRANCH  17  18
ENDBRANCH   2  17
TORSDOF 4
ENDMDL
MODEL 5
REMARK VINA RESULT:      -7.6      3.509      4.243
REMARK  Name = 
REMARK  5 active torsions:
REMARK  status: ('A' for Active; 'I' for Inactive)
REMARK    1  A    between atoms: C_1  and  C_2
REMARK    2  A    between atoms: C_5  and  C_6
REMARK    3  A    between atoms: C_10  and  N_11
REMARK    4  A    between atoms: C_12  and  C_14
REMARK    5  A    between atoms: C_14  and  C_15
REMARK                            x       y       z     vdW  Elec       q    Type
REMARK                         _______ _______ _______ _____ _____    ______ ____
ROOT
ATOM      1  N   UNL     1       1.913   8.436  17.844  0.00  0.00    +0.000 N 
ATOM      2  C   UNL     1       2.487   7.406  18.583  0.00  0.00    +0.000 C 
ATOM      3  O   UNL     1       2.268   7.163  19.768  0.00  0.00    +0.000 OA
ATOM      4  H   UNL     1       2.074   8.446  16.844  0.00  0.00    +0.000 HD
ENDROOT
BRANCH   1   9
ATOM      5  C   UNL     1      -1.174  10.515  18.164  0.00  0.00    +0.000 A 
ATOM      6  C   UNL     1      -0.935  11.136  19.400  0.00  0.00    +0.000 A 
ATOM      7  C   UNL     1       0.262  10.936  20.076  0.00  0.00    +0.000 A 
ATOM      8  C   UNL     1       1.220  10.079  19.544  0.00  0.00    +0.000 A 
ATOM      9  C   UNL     1       0.990   9.386  18.353  0.00  0.00    +0.000 A 
ATOM     10  C   UNL     1      -0.198   9.639  17.645  0.00  0.00    +0.000 A 
BRANCH   5  15
ATOM     11  C   UNL     1      -5.844  11.544  17.747  0.00  0.00    +0.000 C 
ATOM     12  C   UNL     1      -4.485  11.248  17.258  0.00  0.00    +0.000 A 
ATOM     13  N   UNL     1      -3.995  11.267  16.038  0.00  0.00    +0.000 NA
ATOM     14  N   UNL     1      -2.645  10.974  16.157  0.00  0.00    +0.000 NA
ATOM     15  C   UNL     1      -2.413  10.791  17.444  0.00  0.00    +0.000 A 
ATOM     16  O   UNL     1      -3.548  10.941  18.202  0.00  0.00    +0.000 OA
ENDBRANCH   5  15
ENDBRANCH   1   9
BRANCH   2  17
ATOM     17  C   UNL     1       3.441   6.520  17.802  0.00  0.00    +0.000 C 
BRANCH  17  18
ATOM     18  C   UNL     1       3.376   5.081  18.243  0.00  0.00    +0.000 A 
ATOM     19  C   UNL     1       2.231   4.324  17.958  0.00  0.00    +0.000 A 
ATOM     20  F   UNL     1       1.223   4.874  17.266  0.00  0.00    +0.000 F 
ATOM     21  C   UNL     1       2.104   2.997  18.362  0.00  0.00    +0.000 A 
ATOM     22  C   UNL     1       3.134   2.391  19.073  0.00  0.00    +0.000 A 
ATOM     23  C   UNL     1       4.282   3.123  19.376  0.00  0.00    +0.000 A 
ATOM     24  C   UNL     1       4.404   4.457  18.968  0.00  0.00    +0.000 A 
ATOM     25 CL   UNL     1       5.856   5.294  19.378  0.00  0.00    +0.000 Cl
ENDBRANCH  17  18
ENDBRANCH   2  17
TORSDOF 4
ENDMDL
MODEL 6
REMARK VINA RESULT:      -7.5      2.358      3.099
REMARK  Name = 
REMARK  5 active torsions:
REMARK  status: ('A' for Active; 'I' for Inactive)
REMARK    1  A    between atoms: C_1  and  C_2
REMARK    2  A    between atoms: C_5  and  C_6
REMARK    3  A    between atoms: C_10  and  N_11
REMARK    4  A    between atoms: C_12  and  C_14
REMARK    5  A    between atoms: C_14  and  C_15
REMARK                            x       y       z     vdW  Elec       q    Type
REMARK                         _______ _______ _______ _____ _____    ______ ____
ROOT
ATOM      1  N   UNL     1       2.512   7.032  19.820  0.00  0.00    +0.000 N 
ATOM      2  C   UNL     1       3.504   6.514  18.993  0.00  0.00    +0.000 C 
ATOM      3  O   UNL     1       3.903   7.018  17.946  0.00  0.00    +0.000 OA
ATOM      4  H   UNL     1       2.371   6.590  20.721  0.00  0.00    +0.000 HD
ENDROOT
BRANCH   1   9
ATOM      5  C   UNL     1       0.435  10.075  20.434  0.00  0.00    +0.000 A 
ATOM      6  C   UNL     1       0.469  10.667  19.162  0.00  0.00    +0.000 A 
ATOM      7  C   UNL     1       1.097  10.031  18.099  0.00  0.00    +0.000 A 
ATOM      8  C   UNL     1       1.736   8.812  18.304  0.00  0.00    +0.000 A 
ATOM      9  C   UNL     1       1.786   8.225  19.571  0.00  0.00    +0.000 A 
ATOM     10  C   UNL     1       1.097   8.845  20.629  0.00  0.00    +0.000 A 
BRANCH   5  15
ATOM     11  C   UNL     1      -3.051  12.751  22.367  0.00  0.00    +0.000 C 
ATOM     12  C   UNL     1      -1.832  11.921  22.378  0.00  0.00    +0.000 A 
ATOM     13  N   UNL     1      -1.128  11.453  23.384  0.00  0.00    +0.000 NA
ATOM     14  N   UNL     1      -0.122  10.677  22.828  0.00  0.00    +0.000 NA
ATOM     15  C   UNL     1      -0.285  10.734  21.518  0.00  0.00    +0.000 A 
ATOM     16  O   UNL     1      -1.353  11.521  21.163  0.00  0.00    +0.000 OA
ENDBRANCH   5  15
ENDBRANCH   1   9
BRANCH   2  17
ATOM     17  C   UNL     1       4.133   5.224  19.489  0.00  0.00    +0.000 C 
BRANCH  17  18
ATOM     18  C   UNL     1       3.237   4.031  19.274  0.00  0.00    +0.000 A 
ATOM     19  C   UNL     1       2.423   3.584  20.324  0.00  0.00    +0.000 A 
ATOM     20  F   UNL     1       2.421   4.240  21.493  0.00  0.00    +0.000 F 
ATOM     21  C   UNL     1       1.592   2.474  20.193  0.00  0.00    +0.000 A 
ATOM     22  C   UNL     1       1.561   1.775  18.991  0.00  0.00    +0.000 A 
ATOM     23  C   UNL     1       2.366   2.194  17.932  0.00  0.00    +0.000 A 
ATOM     24  C   UNL     1       3.199   3.311  18.070  0.00  0.00    +0.000 A 
ATOM     25 CL   UNL     1       4.162   3.769  16.713  0.00  0.00    +0.000 Cl
ENDBRANCH  17  18
ENDBRANCH   2  17
TORSDOF 4
ENDMDL
MODEL 7
REMARK VINA RESULT:      -7.5      2.800      3.600
REMARK  Name = 
REMARK  5 active torsions:
REMARK  status: ('A' for Active; 'I' for Inactive)
REMARK    1  A    between atoms: C_1  and  C_2
REMARK    2  A    between atoms: C_5  and  C_6
REMARK    3  A    between atoms: C_10  and  N_11
REMARK    4  A    between atoms: C_12  and  C_14
REMARK    5  A    between atoms: C_14  and  C_15
REMARK                            x       y       z     vdW  Elec       q    Type
REMARK                         _______ _______ _______ _____ _____    ______ ____
ROOT
ATOM      1  N   UNL     1       2.862   7.035  18.407  0.00  0.00    +0.000 N 
ATOM      2  C   UNL     1       2.759   5.648  18.361  0.00  0.00    +0.000 C 
ATOM      3  O   UNL     1       1.898   4.972  18.920  0.00  0.00    +0.000 OA
ATOM      4  H   UNL     1       3.536   7.479  17.794  0.00  0.00    +0.000 HD
ENDROOT
BRANCH   1   9
ATOM      5  C   UNL     1       0.182   9.540  19.108  0.00  0.00    +0.000 A 
ATOM      6  C   UNL     1       0.143   9.486  20.510  0.00  0.00    +0.000 A 
ATOM      7  C   UNL     1       1.044   8.697  21.215  0.00  0.00    +0.000 A 
ATOM      8  C   UNL     1       1.969   7.920  20.525  0.00  0.00    +0.000 A 
ATOM      9  C   UNL     1       1.992   7.892  19.129  0.00  0.00    +0.000 A 
ATOM     10  C   UNL     1       1.117   8.737  18.423  0.00  0.00    +0.000 A 
BRANCH   5  15
ATOM     11  C   UNL     1      -2.944  10.729  15.664  0.00  0.00    +0.000 C 
ATOM     12  C   UNL     1      -2.121  10.953  16.866  0.00  0.00    +0.000 A 
ATOM     13  N   UNL     1      -2.076  11.977  17.690  0.00  0.00    +0.000 NA
ATOM     14  N   UNL     1      -1.176  11.634  18.687  0.00  0.00    +0.000 NA
ATOM     15  C   UNL     1      -0.733  10.425  18.394  0.00  0.00    +0.000 A 
ATOM     16  O   UNL     1      -1.288   9.936  17.237  0.00  0.00    +0.000 OA
ENDBRANCH   5  15
ENDBRANCH   1   9
BRANCH   2  17
ATOM     17  C   UNL     1       3.814   4.962  17.511  0.00  0.00    +0.000 C 
BRANCH  17  18
ATOM     18  C   UNL     1       5.197   5.499  17.772  0.00  0.00    +0.000 A 
ATOM     19  C   UNL     1       5.871   5.125  18.943  0.00  0.00    +0.000 A 
ATOM     20  F   UNL     1       5.297   4.269  19.799  0.00  0.00    +0.000 F 
ATOM     21  C   UNL     1       7.141   5.608  19.250  0.00  0.00    +0.000 A 
ATOM     22  C   UNL     1       7.771   6.492  18.380  0.00  0.00    +0.000 A 
ATOM     23  C   UNL     1       7.121   6.884  17.211  0.00  0.00    +0.000 A 
ATOM     24  C   UNL     1       5.844   6.396  16.907  0.00  0.00    +0.000 A 
ATOM     25 CL   UNL     1       5.107   6.927  15.440  0.00  0.00    +0.000 Cl
ENDBRANCH  17  18
ENDBRANCH   2  17
TORSDOF 4
ENDMDL
MODEL 8
REMARK VINA RESULT:      -7.5      2.156      2.854
REMARK  Name = 
REMARK  5 active torsions:
REMARK  status: ('A' for Active; 'I' for Inactive)
REMARK    1  A    between atoms: C_1  and  C_2
REMARK    2  A    between atoms: C_5  and  C_6
REMARK    3  A    between atoms: C_10  and  N_11
REMARK    4  A    between atoms: C_12  and  C_14
REMARK    5  A    between atoms: C_14  and  C_15
REMARK                            x       y       z     vdW  Elec       q    Type
REMARK                         _______ _______ _______ _____ _____    ______ ____
ROOT
ATOM      1  N   UNL     1       2.599   6.920  19.775  0.00  0.00    +0.000 N 
ATOM      2  C   UNL     1       3.568   6.381  18.934  0.00  0.00    +0.000 C 
ATOM      3  O   UNL     1       3.957   6.875  17.877  0.00  0.00    +0.000 OA
ATOM      4  H   UNL     1       2.466   6.484  20.681  0.00  0.00    +0.000 HD
ENDROOT
BRANCH   1   9
ATOM      5  C   UNL     1       0.551   9.979  20.406  0.00  0.00    +0.000 A 
ATOM      6  C   UNL     1       0.606  10.587  19.142  0.00  0.00    +0.000 A 
ATOM      7  C   UNL     1       1.238   9.957  18.077  0.00  0.00    +0.000 A 
ATOM      8  C   UNL     1       1.860   8.728  18.274  0.00  0.00    +0.000 A 
ATOM      9  C   UNL     1       1.889   8.124  19.533  0.00  0.00    +0.000 A 
ATOM     10  C   UNL     1       1.196   8.739  20.592  0.00  0.00    +0.000 A 
BRANCH   5  15
ATOM     11  C   UNL     1      -2.908  12.695  22.331  0.00  0.00    +0.000 C 
ATOM     12  C   UNL     1      -1.709  11.837  22.346  0.00  0.00    +0.000 A 
ATOM     13  N   UNL     1      -1.034  11.332  23.355  0.00  0.00    +0.000 NA
ATOM     14  N   UNL     1      -0.037  10.545  22.801  0.00  0.00    +0.000 NA
ATOM     15  C   UNL     1      -0.174  10.632  21.490  0.00  0.00    +0.000 A 
ATOM     16  O   UNL     1      -1.217  11.451  21.132  0.00  0.00    +0.000 OA
ENDBRANCH   5  15
ENDBRANCH   1   9
BRANCH   2  17
ATOM     17  C   UNL     1       4.183   5.083  19.424  0.00  0.00    +0.000 C 
BRANCH  17  18
ATOM     18  C   UNL     1       3.288   3.896  19.174  0.00  0.00    +0.000 A 
ATOM     19  C   UNL     1       3.268   3.303  17.904  0.00  0.00    +0.000 A 
ATOM     20  F   UNL     1       4.069   3.771  16.937  0.00  0.00    +0.000 F 
ATOM     21  C   UNL     1       2.444   2.219  17.608  0.00  0.00    +0.000 A 
ATOM     22  C   UNL     1       1.607   1.702  18.590  0.00  0.00    +0.000 A 
ATOM     23  C   UNL     1       1.602   2.277  19.860  0.00  0.00    +0.000 A 
ATOM     24  C   UNL     1       2.432   3.366  20.153  0.00  0.00    +0.000 A 
ATOM     25 CL   UNL     1       2.370   4.019  21.748  0.00  0.00    +0.000 Cl
ENDBRANCH  17  18
ENDBRANCH   2  17
TORSDOF 4
ENDMDL
MODEL 9
REMARK VINA RESULT:      -7.4      2.653      3.308
REMARK  Name = 
REMARK  5 active torsions:
REMARK  status: ('A' for Active; 'I' for Inactive)
REMARK    1  A    between atoms: C_1  and  C_2
REMARK    2  A    between atoms: C_5  and  C_6
REMARK    3  A    between atoms: C_10  and  N_11
REMARK    4  A    between atoms: C_12  and  C_14
REMARK    5  A    between atoms: C_14  and  C_15
REMARK                            x       y       z     vdW  Elec       q    Type
REMARK                         _______ _______ _______ _____ _____    ______ ____
ROOT
ATOM      1  N   UNL     1       2.967   7.142  18.415  0.00  0.00    +0.000 N 
ATOM      2  C   UNL     1       2.782   5.817  18.030  0.00  0.00    +0.000 C 
ATOM      3  O   UNL     1       1.804   5.121  18.296  0.00  0.00    +0.000 OA
ATOM      4  H   UNL     1       3.753   7.643  18.017  0.00  0.00    +0.000 HD
ENDROOT
BRANCH   1   9
ATOM      5  C   UNL     1       0.322   9.622  19.313  0.00  0.00    +0.000 A 
ATOM      6  C   UNL     1       0.128   9.308  20.667  0.00  0.00    +0.000 A 
ATOM      7  C   UNL     1       0.916   8.350  21.294  0.00  0.00    +0.000 A 
ATOM      8  C   UNL     1       1.881   7.664  20.563  0.00  0.00    +0.000 A 
ATOM      9  C   UNL     1       2.055   7.897  19.197  0.00  0.00    +0.000 A 
ATOM     10  C   UNL     1       1.296   8.909  18.583  0.00  0.00    +0.000 A 
BRANCH   5  15
ATOM     11  C   UNL     1      -3.520  11.461  17.100  0.00  0.00    +0.000 C 
ATOM     12  C   UNL     1      -2.180  11.493  17.712  0.00  0.00    +0.000 A 
ATOM     13  N   UNL     1      -1.385  12.508  17.972  0.00  0.00    +0.000 NA
ATOM     14  N   UNL     1      -0.276  11.979  18.614  0.00  0.00    +0.000 NA
ATOM     15  C   UNL     1      -0.475  10.676  18.695  0.00  0.00    +0.000 A 
ATOM     16  O   UNL     1      -1.667  10.298  18.127  0.00  0.00    +0.000 OA
ENDBRANCH   5  15
ENDBRANCH   1   9
BRANCH   2  17
ATOM     17  C   UNL     1       3.905   5.238  17.189  0.00  0.00    +0.000 C 
BRANCH  17  18
ATOM     18  C   UNL     1       5.266   5.636  17.700  0.00  0.00    +0.000 A 
ATOM     19  C   UNL     1       6.002   6.611  17.012  0.00  0.00    +0.000 A 
ATOM     20  F   UNL     1       5.476   7.205  15.931  0.00  0.00    +0.000 F 
ATOM     21  C   UNL     1       7.274   7.002  17.423  0.00  0.00    +0.000 A 
ATOM     22  C   UNL     1       7.847   6.414  18.545  0.00  0.00    +0.000 A 
ATOM     23  C   UNL     1       7.139   5.437  19.244  0.00  0.00    +0.000 A 
ATOM     24  C   UNL     1       5.861   5.047  18.827  0.00  0.00    +0.000 A 
ATOM     25 CL   UNL     1       5.048   3.834  19.747  0.00  0.00    +0.000 Cl
ENDBRANCH  17  18
ENDBRANCH   2  17
TORSDOF 4
ENDMDL
