MODEL 1
REMARK VINA RESULT:      -9.4      0.000      0.000
REMARK  Name = 
REMARK  7 active torsions:
REMARK  status: ('A' for Active; 'I' for Inactive)
REMARK    1  A    between atoms: C_2  and  C_4
REMARK    2  A    between atoms: C_8  and  O_9
REMARK    3  A    between atoms: O_9  and  C_10
REMARK    4  A    between atoms: C_10  and  C_11
REMARK    5  A    between atoms: N_13  and  C_14
REMARK    6  A    between atoms: C_18  and  C_19
REMARK    7  A    between atoms: C_20  and  C_21
REMARK                            x       y       z     vdW  Elec       q    Type
REMARK                         _______ _______ _______ _____ _____    ______ ____
ROOT
ATOM      1  C   UNL     1       2.333   5.763  19.667  0.00  0.00    +0.000 C 
ATOM      2  O   UNL     1       1.723   5.709  20.750  0.00  0.00    +0.000 OA
ATOM      3  N   UNL     1       2.338   7.087  18.845  0.00  0.00    +0.000 N 
ATOM      4  H   UNL     1       2.819   7.069  17.956  0.00  0.00    +0.000 HD
ENDROOT
BRANCH   3   5
ATOM      5  C   UNL     1       1.603   8.601  19.216  0.00  0.00    +0.000 A 
ATOM      6  C   UNL     1       1.766   9.532  18.222  0.00  0.00    +0.000 A 
ATOM      7  C   UNL     1       1.229  10.854  18.419  0.00  0.00    +0.000 A 
ATOM      8  C   UNL     1       0.420  11.454  19.594  0.00  0.00    +0.000 A 
ATOM      9  C   UNL     1       0.035  10.793  20.781  0.00  0.00    +0.000 A 
ATOM     10  C   UNL     1       0.746   9.291  20.533  0.00  0.00    +0.000 A 
BRANCH   9  11
ATOM     11  C   UNL     1      -1.052  11.725  22.049  0.00  0.00    +0.000 C 
ATOM     12  C   UNL     1      -1.936  12.328  22.979  0.00  0.00    +0.000 C 
BRANCH  12  13
ATOM     13  C   UNL     1      -3.188  13.434  23.978  0.00  0.00    +0.000 A 
ATOM     14  C   UNL     1      -4.192  14.953  24.255  0.00  0.00    +0.000 A 
ATOM     15  C   UNL     1      -5.037  15.034  23.175  0.00  0.00    +0.000 A 
ATOM     16  C   UNL     1      -4.823  14.065  22.164  0.00  0.00    +0.000 A 
ATOM     17  C   UNL     1      -4.680  12.738  22.590  0.00  0.00    +0.000 A 
ATOM     18  N   UNL     1      -4.071  12.458  23.747  0.00  0.00    +0.000 NA
ENDBRANCH  12  13
ENDBRANCH   9  11
ENDBRANCH   3   5
BRANCH   1  19
ATOM     19  C   UNL     1       3.086   4.130  19.224  0.00  0.00    +0.000 C 
BRANCH  19  20
ATOM     20  O   UNL     1       4.438   3.570  18.867  0.00  0.00    +0.000 OA
BRANCH  20  25
ATOM     21  C   UNL     1       6.713   4.789  15.970  0.00  0.00    +0.000 A 
ATOM     22  C   UNL     1       7.370   5.832  16.619  0.00  0.00    +0.000 A 
ATOM     23  C   UNL     1       7.190   5.988  18.014  0.00  0.00    +0.000 A 
ATOM     24  C   UNL     1       6.301   5.186  18.797  0.00  0.00    +0.000 A 
ATOM     25  C   UNL     1       5.525   4.199  18.207  0.00  0.00    +0.000 A 
ATOM     26  C   UNL     1       5.816   3.954  16.787  0.00  0.00    +0.000 A 
BRANCH  21  28
ATOM     27  N   UNL     1       6.307   3.606  13.739  0.00  0.00    +0.000 N 
ATOM     28  C   UNL     1       6.958   4.744  14.403  0.00  0.00    +0.000 C 
ATOM     29  O   UNL     1       7.580   5.611  13.713  0.00  0.00    +0.000 OA
ATOM     30  H   UNL     1       6.352   3.516  12.759  0.00  0.00    +0.000 HD
ATOM     31  H   UNL     1       5.739   2.948  14.252  0.00  0.00    +0.000 HD
ENDBRANCH  21  28
ENDBRANCH  20  25
ENDBRANCH  19  20
ENDBRANCH   1  19
TORSDOF 7
ENDMDL
MODEL 2
REMARK VINA RESULT:      -9.1      1.207      1.298
REMARK  Name = 
REMARK  7 active torsions:
REMARK  status: ('A' for Active; 'I' for Inactive)
REMARK    1  A    between atoms: C_2  and  C_4
REMARK    2  A    between atoms: C_8  and  O_9
REMARK    3  A    between atoms: O_9  and  C_10
REMARK    4  A    between atoms: C_10  and  C_11
REMARK    5  A    between atoms: N_13  and  C_14
REMARK    6  A    between atoms: C_18  and  C_19
REMARK    7  A    between atoms: C_20  and  C_21
REMARK                            x       y       z     vdW  Elec       q    Type
REMARK                         _______ _______ _______ _____ _____    ______ ____
ROOT
ATOM      1  C   UNL     1       2.388   5.727  19.618  0.00  0.00    +0.000 C 
ATOM      2  O   UNL     1       1.684   5.703  18.592  0.00  0.00    +0.000 OA
ATOM      3  N   UNL     1       2.342   6.966  20.562  0.00  0.00    +0.000 N 
ATOM      4  H   UNL     1       2.958   6.951  21.363  0.00  0.00    +0.000 HD
ENDROOT
BRANCH   3   5
ATOM      5  C   UNL     1       1.403   8.404  20.425  0.00  0.00    +0.000 A 
ATOM      6  C   UNL     1       1.526   9.009  19.200  0.00  0.00    +0.000 A 
ATOM      7  C   UNL     1       0.819  10.241  18.964  0.00  0.00    +0.000 A 
ATOM      8  C   UNL     1      -0.144  11.046  19.869  0.00  0.00    +0.000 A 
ATOM      9  C   UNL     1      -0.535  10.724  21.187  0.00  0.00    +0.000 A 
ATOM     10  C   UNL     1       0.371   9.331  21.437  0.00  0.00    +0.000 A 
BRANCH   9  11
ATOM     11  C   UNL     1      -1.819  11.832  22.070  0.00  0.00    +0.000 C 
ATOM     12  C   UNL     1      -2.836  12.650  22.625  0.00  0.00    +0.000 C 
BRANCH  12  13
ATOM     13  C   UNL     1      -3.955  14.052  23.381  0.00  0.00    +0.000 A 
ATOM     14  C   UNL     1      -5.524  15.003  23.547  0.00  0.00    +0.000 A 
ATOM     15  C   UNL     1      -6.466  14.085  23.944  0.00  0.00    +0.000 A 
ATOM     16  C   UNL     1      -6.023  12.740  23.986  0.00  0.00    +0.000 A 
ATOM     17  C   UNL     1      -4.796  12.505  24.621  0.00  0.00    +0.000 A 
ATOM     18  N   UNL     1      -3.807  13.400  24.538  0.00  0.00    +0.000 NA
ENDBRANCH  12  13
ENDBRANCH   9  11
ENDBRANCH   3   5
BRANCH   1  19
ATOM     19  C   UNL     1       3.446   4.213  19.756  0.00  0.00    +0.000 C 
BRANCH  19  20
ATOM     20  O   UNL     1       4.832   3.766  19.376  0.00  0.00    +0.000 OA
BRANCH  20  25
ATOM     21  C   UNL     1       6.681   4.918  16.164  0.00  0.00    +0.000 A 
ATOM     22  C   UNL     1       7.328   6.044  16.665  0.00  0.00    +0.000 A 
ATOM     23  C   UNL     1       7.292   6.289  18.058  0.00  0.00    +0.000 A 
ATOM     24  C   UNL     1       6.555   5.490  18.988  0.00  0.00    +0.000 A 
ATOM     25  C   UNL     1       5.792   4.414  18.556  0.00  0.00    +0.000 A 
ATOM     26  C   UNL     1       5.942   4.087  17.131  0.00  0.00    +0.000 A 
BRANCH  21  28
ATOM     27  N   UNL     1       7.871   5.513  13.979  0.00  0.00    +0.000 N 
ATOM     28  C   UNL     1       6.754   4.775  14.586  0.00  0.00    +0.000 C 
ATOM     29  O   UNL     1       6.003   4.052  13.860  0.00  0.00    +0.000 OA
ATOM     30  H   UNL     1       8.038   5.446  13.011  0.00  0.00    +0.000 HD
ATOM     31  H   UNL     1       8.531   6.029  14.542  0.00  0.00    +0.000 HD
ENDBRANCH  21  28
ENDBRANCH  20  25
ENDBRANCH  19  20
ENDBRANCH   1  19
TORSDOF 7
ENDMDL
MODEL 3
REMARK VINA RESULT:      -8.9      6.759      8.965
REMARK  Name = 
REMARK  7 active torsions:
REMARK  status: ('A' for Active; 'I' for Inactive)
REMARK    1  A    between atoms: C_2  and  C_4
REMARK    2  A    between atoms: C_8  and  O_9
REMARK    3  A    between atoms: O_9  and  C_10
REMARK    4  A    between atoms: C_10  and  C_11
REMARK    5  A    between atoms: N_13  and  C_14
REMARK    6  A    between atoms: C_18  and  C_19
REMARK    7  A    between atoms: C_20  and  C_21
REMARK                            x       y       z     vdW  Elec       q    Type
REMARK                         _______ _______ _______ _____ _____    ______ ____
ROOT
ATOM      1  C   UNL     1       7.738   7.250  18.110  0.00  0.00    +0.000 C 
ATOM      2  O   UNL     1       7.001   7.871  17.323  0.00  0.00    +0.000 OA
ATOM      3  N   UNL     1       8.735   8.030  19.019  0.00  0.00    +0.000 N 
ATOM      4  H   UNL     1       9.335   7.477  19.616  0.00  0.00    +0.000 HD
ENDROOT
BRANCH   3   5
ATOM      5  C   UNL     1       8.999   9.729  19.137  0.00  0.00    +0.000 A 
ATOM      6  C   UNL     1       9.021  10.353  17.916  0.00  0.00    +0.000 A 
ATOM      7  C   UNL     1       9.268  11.771  17.870  0.00  0.00    +0.000 A 
ATOM      8  C   UNL     1       9.490  12.798  19.006  0.00  0.00    +0.000 A 
ATOM      9  C   UNL     1       9.508  12.536  20.393  0.00  0.00    +0.000 A 
ATOM     10  C   UNL     1       9.293  10.869  20.386  0.00  0.00    +0.000 A 
BRANCH   9  11
ATOM     11  C   UNL     1       9.705  13.998  21.610  0.00  0.00    +0.000 C 
ATOM     12  C   UNL     1       9.784  15.021  22.589  0.00  0.00    +0.000 C 
BRANCH  12  13
ATOM     13  C   UNL     1       9.684  16.636  23.671  0.00  0.00    +0.000 A 
ATOM     14  C   UNL     1       8.908  18.217  24.209  0.00  0.00    +0.000 A 
ATOM     15  C   UNL     1       7.660  17.873  24.669  0.00  0.00    +0.000 A 
ATOM     16  C   UNL     1       7.302  16.514  24.493  0.00  0.00    +0.000 A 
ATOM     17  C   UNL     1       8.256  15.561  24.874  0.00  0.00    +0.000 A 
ATOM     18  N   UNL     1       9.561  15.805  24.710  0.00  0.00    +0.000 NA
ENDBRANCH  12  13
ENDBRANCH   9  11
ENDBRANCH   3   5
BRANCH   1  19
ATOM     19  C   UNL     1       7.507   5.418  17.961  0.00  0.00    +0.000 C 
BRANCH  19  20
ATOM     20  O   UNL     1       6.381   4.419  17.950  0.00  0.00    +0.000 OA
BRANCH  20  25
ATOM     21  C   UNL     1       3.011   4.001  19.830  0.00  0.00    +0.000 A 
ATOM     22  C   UNL     1       2.394   5.192  19.459  0.00  0.00    +0.000 A 
ATOM     23  C   UNL     1       3.008   6.001  18.474  0.00  0.00    +0.000 A 
ATOM     24  C   UNL     1       4.280   5.713  17.886  0.00  0.00    +0.000 A 
ATOM     25  C   UNL     1       5.014   4.604  18.283  0.00  0.00    +0.000 A 
ATOM     26  C   UNL     1       4.311   3.700  19.205  0.00  0.00    +0.000 A 
BRANCH  21  28
ATOM     27  N   UNL     1       0.798   3.129  20.771  0.00  0.00    +0.000 N 
ATOM     28  C   UNL     1       2.252   3.204  20.973  0.00  0.00    +0.000 C 
ATOM     29  O   UNL     1       2.789   2.600  21.953  0.00  0.00    +0.000 OA
ATOM     30  H   UNL     1       0.240   2.610  21.395  0.00  0.00    +0.000 HD
ATOM     31  H   UNL     1       0.356   3.531  19.957  0.00  0.00    +0.000 HD
ENDBRANCH  21  28
ENDBRANCH  20  25
ENDBRANCH  19  20
ENDBRANCH   1  19
TORSDOF 7
ENDMDL
MODEL 4
REMARK VINA RESULT:      -8.9      3.922     12.007
REMARK  Name = 
REMARK  7 active torsions:
REMARK  status: ('A' for Active; 'I' for Inactive)
REMARK    1  A    between atoms: C_2  and  C_4
REMARK    2  A    between atoms: C_8  and  O_9
REMARK    3  A    between atoms: O_9  and  C_10
REMARK    4  A    between atoms: C_10  and  C_11
REMARK    5  A    between atoms: N_13  and  C_14
REMARK    6  A    between atoms: C_18  and  C_19
REMARK    7  A    between atoms: C_20  and  C_21
REMARK                            x       y       z     vdW  Elec       q    Type
REMARK                         _______ _______ _______ _____ _____    ______ ____
ROOT
ATOM      1  C   UNL     1       1.665   8.046  20.590  0.00  0.00    +0.000 C 
ATOM      2  O   UNL     1       1.606   8.559  19.458  0.00  0.00    +0.000 OA
ATOM      3  N   UNL     1       2.157   6.576  20.751  0.00  0.00    +0.000 N 
ATOM      4  H   UNL     1       2.154   6.195  21.688  0.00  0.00    +0.000 HD
ENDROOT
BRANCH   3   5
ATOM      5  C   UNL     1       2.686   5.467  19.543  0.00  0.00    +0.000 A 
ATOM      6  C   UNL     1       2.273   4.181  19.780  0.00  0.00    +0.000 A 
ATOM      7  C   UNL     1       2.676   3.145  18.864  0.00  0.00    +0.000 A 
ATOM      8  C   UNL     1       3.507   3.215  17.560  0.00  0.00    +0.000 A 
ATOM      9  C   UNL     1       4.080   4.368  16.981  0.00  0.00    +0.000 A 
ATOM     10  C   UNL     1       3.646   5.524  18.121  0.00  0.00    +0.000 A 
BRANCH   9  11
ATOM     11  C   UNL     1       4.985   4.211  15.304  0.00  0.00    +0.000 C 
ATOM     12  C   UNL     1       5.580   4.008  14.032  0.00  0.00    +0.000 C 
BRANCH  12  13
ATOM     13  C   UNL     1       6.705   3.602  12.497  0.00  0.00    +0.000 A 
ATOM     14  C   UNL     1       7.664   2.469  11.406  0.00  0.00    +0.000 A 
ATOM     15  C   UNL     1       6.750   1.558  10.934  0.00  0.00    +0.000 A 
ATOM     16  C   UNL     1       5.448   1.665  11.481  0.00  0.00    +0.000 A 
ATOM     17  C   UNL     1       4.894   2.951  11.531  0.00  0.00    +0.000 A 
ATOM     18  N   UNL     1       5.669   4.015  11.762  0.00  0.00    +0.000 NA
ENDBRANCH  12  13
ENDBRANCH   9  11
ENDBRANCH   3   5
BRANCH   1  19
ATOM     19  C   UNL     1       1.050   9.204  21.898  0.00  0.00    +0.000 C 
BRANCH  19  20
ATOM     20  O   UNL     1       0.613  10.640  22.019  0.00  0.00    +0.000 OA
BRANCH  20  25
ATOM     21  C   UNL     1       1.145  13.276  19.221  0.00  0.00    +0.000 A 
ATOM     22  C   UNL     1      -0.066  13.140  18.547  0.00  0.00    +0.000 A 
ATOM     23  C   UNL     1      -1.081  12.339  19.121  0.00  0.00    +0.000 A 
ATOM     24  C   UNL     1      -0.913  11.582  20.324  0.00  0.00    +0.000 A 
ATOM     25  C   UNL     1       0.301  11.573  20.997  0.00  0.00    +0.000 A 
ATOM     26  C   UNL     1       1.303  12.510  20.470  0.00  0.00    +0.000 A 
BRANCH  21  28
ATOM     27  N   UNL     1       3.283  13.375  17.819  0.00  0.00    +0.000 N 
ATOM     28  C   UNL     1       2.217  14.161  18.457  0.00  0.00    +0.000 C 
ATOM     29  O   UNL     1       2.182  15.422  18.306  0.00  0.00    +0.000 OA
ATOM     30  H   UNL     1       3.968  13.826  17.274  0.00  0.00    +0.000 HD
ATOM     31  H   UNL     1       3.290  12.366  17.855  0.00  0.00    +0.000 HD
ENDBRANCH  21  28
ENDBRANCH  20  25
ENDBRANCH  19  20
ENDBRANCH   1  19
TORSDOF 7
ENDMDL
MODEL 5
REMARK VINA RESULT:      -8.8      4.558     12.673
REMARK  Name = 
REMARK  7 active torsions:
REMARK  status: ('A' for Active; 'I' for Inactive)
REMARK    1  A    between atoms: C_2  and  C_4
REMARK    2  A    between atoms: C_8  and  O_9
REMARK    3  A    between atoms: O_9  and  C_10
REMARK    4  A    between atoms: C_10  and  C_11
REMARK    5  A    between atoms: N_13  and  C_14
REMARK    6  A    between atoms: C_18  and  C_19
REMARK    7  A    between atoms: C_20  and  C_21
REMARK                            x       y       z     vdW  Elec       q    Type
REMARK                         _______ _______ _______ _____ _____    ______ ____
ROOT
ATOM      1  C   UNL     1      -3.297  11.271  17.200  0.00  0.00    +0.000 C 
ATOM      2  O   UNL     1      -2.731  11.118  16.103  0.00  0.00    +0.000 OA
ATOM      3  N   UNL     1      -2.525  10.971  18.520  0.00  0.00    +0.000 N 
ATOM      4  H   UNL     1      -3.040  11.078  19.383  0.00  0.00    +0.000 HD
ENDROOT
BRANCH   3   5
ATOM      5  C   UNL     1      -0.898  10.443  18.733  0.00  0.00    +0.000 A 
ATOM      6  C   UNL     1      -0.261  11.078  19.767  0.00  0.00    +0.000 A 
ATOM      7  C   UNL     1       1.118  10.755  20.033  0.00  0.00    +0.000 A 
ATOM      8  C   UNL     1       2.066   9.736  19.357  0.00  0.00    +0.000 A 
ATOM      9  C   UNL     1       1.760   8.880  18.277  0.00  0.00    +0.000 A 
ATOM     10  C   UNL     1       0.177   9.350  17.962  0.00  0.00    +0.000 A 
BRANCH   9  11
ATOM     11  C   UNL     1       3.080   7.633  17.679  0.00  0.00    +0.000 C 
ATOM     12  C   UNL     1       3.976   6.626  17.238  0.00  0.00    +0.000 C 
BRANCH  12  13
ATOM     13  C   UNL     1       5.379   5.301  16.981  0.00  0.00    +0.000 A 
ATOM     14  C   UNL     1       7.134   4.746  16.918  0.00  0.00    +0.000 A 
ATOM     15  C   UNL     1       7.637   4.986  18.173  0.00  0.00    +0.000 A 
ATOM     16  C   UNL     1       6.762   5.661  19.060  0.00  0.00    +0.000 A 
ATOM     17  C   UNL     1       5.449   5.178  19.131  0.00  0.00    +0.000 A 
ATOM     18  N   UNL     1       4.847   4.687  18.042  0.00  0.00    +0.000 NA
ENDBRANCH  12  13
ENDBRANCH   9  11
ENDBRANCH   3   5
BRANCH   1  19
ATOM     19  C   UNL     1      -5.064  11.788  16.992  0.00  0.00    +0.000 C 
BRANCH  19  20
ATOM     20  O   UNL     1      -6.406  11.492  17.605  0.00  0.00    +0.000 OA
BRANCH  20  25
ATOM     21  C   UNL     1      -7.316  11.341  21.375  0.00  0.00    +0.000 A 
ATOM     22  C   UNL     1      -7.843  10.053  21.431  0.00  0.00    +0.000 A 
ATOM     23  C   UNL     1      -7.720   9.215  20.297  0.00  0.00    +0.000 A 
ATOM     24  C   UNL     1      -7.156   9.639  19.052  0.00  0.00    +0.000 A 
ATOM     25  C   UNL     1      -6.711  10.941  18.877  0.00  0.00    +0.000 A 
ATOM     26  C   UNL     1      -6.718  11.762  20.096  0.00  0.00    +0.000 A 
BRANCH  21  28
ATOM     27  N   UNL     1      -7.887  13.603  22.423  0.00  0.00    +0.000 N 
ATOM     28  C   UNL     1      -7.554  12.197  22.689  0.00  0.00    +0.000 C 
ATOM     29  O   UNL     1      -7.550  11.760  23.883  0.00  0.00    +0.000 OA
ATOM     30  H   UNL     1      -8.106  14.207  23.170  0.00  0.00    +0.000 HD
ATOM     31  H   UNL     1      -7.977  13.957  21.482  0.00  0.00    +0.000 HD
ENDBRANCH  21  28
ENDBRANCH  20  25
ENDBRANCH  19  20
ENDBRANCH   1  19
TORSDOF 7
ENDMDL
MODEL 6
REMARK VINA RESULT:      -8.7      3.371     12.097
REMARK  Name = 
REMARK  7 active torsions:
REMARK  status: ('A' for Active; 'I' for Inactive)
REMARK    1  A    between atoms: C_2  and  C_4
REMARK    2  A    between atoms: C_8  and  O_9
REMARK    3  A    between atoms: O_9  and  C_10
REMARK    4  A    between atoms: C_10  and  C_11
REMARK    5  A    between atoms: N_13  and  C_14
REMARK    6  A    between atoms: C_18  and  C_19
REMARK    7  A    between atoms: C_20  and  C_21
REMARK                            x       y       z     vdW  Elec       q    Type
REMARK                         _______ _______ _______ _____ _____    ______ ____
ROOT
ATOM      1  C   UNL     1       1.671   8.033  20.871  0.00  0.00    +0.000 C 
ATOM      2  O   UNL     1       1.702   8.638  19.785  0.00  0.00    +0.000 OA
ATOM      3  N   UNL     1       1.984   6.507  20.919  0.00  0.00    +0.000 N 
ATOM      4  H   UNL     1       1.912   6.055  21.821  0.00  0.00    +0.000 HD
ENDROOT
BRANCH   3   5
ATOM      5  C   UNL     1       2.413   5.443  19.633  0.00  0.00    +0.000 A 
ATOM      6  C   UNL     1       1.814   4.214  19.734  0.00  0.00    +0.000 A 
ATOM      7  C   UNL     1       2.114   3.215  18.739  0.00  0.00    +0.000 A 
ATOM      8  C   UNL     1       3.009   3.279  17.479  0.00  0.00    +0.000 A 
ATOM      9  C   UNL     1       3.765   4.385  17.031  0.00  0.00    +0.000 A 
ATOM     10  C   UNL     1       3.440   5.486  18.258  0.00  0.00    +0.000 A 
BRANCH   9  11
ATOM     11  C   UNL     1       4.721   4.246  15.381  0.00  0.00    +0.000 C 
ATOM     12  C   UNL     1       5.369   4.044  14.136  0.00  0.00    +0.000 C 
BRANCH  12  13
ATOM     13  C   UNL     1       6.580   3.709  12.649  0.00  0.00    +0.000 A 
ATOM     14  C   UNL     1       7.627   2.633  11.583  0.00  0.00    +0.000 A 
ATOM     15  C   UNL     1       6.769   1.703  11.049  0.00  0.00    +0.000 A 
ATOM     16  C   UNL     1       5.439   1.755  11.535  0.00  0.00    +0.000 A 
ATOM     17  C   UNL     1       4.840   3.020  11.583  0.00  0.00    +0.000 A 
ATOM     18  N   UNL     1       5.567   4.105  11.873  0.00  0.00    +0.000 NA
ENDBRANCH  12  13
ENDBRANCH   9  11
ENDBRANCH   3   5
BRANCH   1  19
ATOM     19  C   UNL     1       1.160   9.147  22.260  0.00  0.00    +0.000 C 
BRANCH  19  20
ATOM     20  O   UNL     1       0.120  10.199  22.539  0.00  0.00    +0.000 OA
BRANCH  20  25
ATOM     21  C   UNL     1      -1.656  11.343  19.283  0.00  0.00    +0.000 A 
ATOM     22  C   UNL     1      -2.425  12.384  19.796  0.00  0.00    +0.000 A 
ATOM     23  C   UNL     1      -2.209  12.798  21.132  0.00  0.00    +0.000 A 
ATOM     24  C   UNL     1      -1.298  12.153  22.028  0.00  0.00    +0.000 A 
ATOM     25  C   UNL     1      -0.575  11.038  21.629  0.00  0.00    +0.000 A 
ATOM     26  C   UNL     1      -0.705  10.698  20.205  0.00  0.00    +0.000 A 
BRANCH  21  28
ATOM     27  N   UNL     1      -3.031  11.813  17.177  0.00  0.00    +0.000 N 
ATOM     28  C   UNL     1      -2.020  10.941  17.792  0.00  0.00    +0.000 C 
ATOM     29  O   UNL     1      -1.477  10.018  17.108  0.00  0.00    +0.000 OA
ATOM     30  H   UNL     1      -3.287  11.682  16.235  0.00  0.00    +0.000 HD
ATOM     31  H   UNL     1      -3.418  12.603  17.671  0.00  0.00    +0.000 HD
ENDBRANCH  21  28
ENDBRANCH  20  25
ENDBRANCH  19  20
ENDBRANCH   1  19
TORSDOF 7
ENDMDL
MODEL 7
REMARK VINA RESULT:      -8.7      7.498      9.716
REMARK  Name = 
REMARK  7 active torsions:
REMARK  status: ('A' for Active; 'I' for Inactive)
REMARK    1  A    between atoms: C_2  and  C_4
REMARK    2  A    between atoms: C_8  and  O_9
REMARK    3  A    between atoms: O_9  and  C_10
REMARK    4  A    between atoms: C_10  and  C_11
REMARK    5  A    between atoms: N_13  and  C_14
REMARK    6  A    between atoms: C_18  and  C_19
REMARK    7  A    between atoms: C_20  and  C_21
REMARK                            x       y       z     vdW  Elec       q    Type
REMARK                         _______ _______ _______ _____ _____    ______ ____
ROOT
ATOM      1  C   UNL     1       7.801   7.329  18.041  0.00  0.00    +0.000 C 
ATOM      2  O   UNL     1       7.163   7.952  17.174  0.00  0.00    +0.000 OA
ATOM      3  N   UNL     1       8.718   8.103  19.036  0.00  0.00    +0.000 N 
ATOM      4  H   UNL     1       9.241   7.548  19.699  0.00  0.00    +0.000 HD
ENDROOT
BRANCH   3   5
ATOM      5  C   UNL     1       9.004   9.798  19.158  0.00  0.00    +0.000 A 
ATOM      6  C   UNL     1       9.083  10.416  17.936  0.00  0.00    +0.000 A 
ATOM      7  C   UNL     1       9.354  11.830  17.893  0.00  0.00    +0.000 A 
ATOM      8  C   UNL     1       9.550  12.859  19.033  0.00  0.00    +0.000 A 
ATOM      9  C   UNL     1       9.512  12.603  20.421  0.00  0.00    +0.000 A 
ATOM     10  C   UNL     1       9.270  10.939  20.412  0.00  0.00    +0.000 A 
BRANCH   9  11
ATOM     11  C   UNL     1       9.686  14.067  21.638  0.00  0.00    +0.000 C 
ATOM     12  C   UNL     1       9.892  15.086  22.603  0.00  0.00    +0.000 C 
BRANCH  12  13
ATOM     13  C   UNL     1       9.797  16.418  24.019  0.00  0.00    +0.000 A 
ATOM     14  C   UNL     1      10.252  17.118  25.661  0.00  0.00    +0.000 A 
ATOM     15  C   UNL     1      11.609  17.325  25.605  0.00  0.00    +0.000 A 
ATOM     16  C   UNL     1      12.246  16.856  24.430  0.00  0.00    +0.000 A 
ATOM     17  C   UNL     1      11.639  17.189  23.212  0.00  0.00    +0.000 A 
ATOM     18  N   UNL     1      10.307  17.260  23.116  0.00  0.00    +0.000 NA
ENDBRANCH  12  13
ENDBRANCH   9  11
ENDBRANCH   3   5
BRANCH   1  19
ATOM     19  C   UNL     1       7.548   5.500  17.894  0.00  0.00    +0.000 C 
BRANCH  19  20
ATOM     20  O   UNL     1       6.407   4.524  17.783  0.00  0.00    +0.000 OA
BRANCH  20  25
ATOM     21  C   UNL     1       2.682   3.995  18.735  0.00  0.00    +0.000 A 
ATOM     22  C   UNL     1       2.223   5.302  18.592  0.00  0.00    +0.000 A 
ATOM     23  C   UNL     1       3.083   6.269  18.021  0.00  0.00    +0.000 A 
ATOM     24  C   UNL     1       4.441   6.009  17.652  0.00  0.00    +0.000 A 
ATOM     25  C   UNL     1       5.011   4.762  17.866  0.00  0.00    +0.000 A 
ATOM     26  C   UNL     1       4.074   3.729  18.332  0.00  0.00    +0.000 A 
BRANCH  21  28
ATOM     27  N   UNL     1       1.270   1.867  18.587  0.00  0.00    +0.000 N 
ATOM     28  C   UNL     1       1.645   3.014  19.426  0.00  0.00    +0.000 C 
ATOM     29  O   UNL     1       1.198   3.106  20.612  0.00  0.00    +0.000 OA
ATOM     30  H   UNL     1       0.674   1.170  18.945  0.00  0.00    +0.000 HD
ATOM     31  H   UNL     1       1.674   1.727  17.673  0.00  0.00    +0.000 HD
ENDBRANCH  21  28
ENDBRANCH  20  25
ENDBRANCH  19  20
ENDBRANCH   1  19
TORSDOF 7
ENDMDL
MODEL 8
REMARK VINA RESULT:      -8.6      3.283      4.028
REMARK  Name = 
REMARK  7 active torsions:
REMARK  status: ('A' for Active; 'I' for Inactive)
REMARK    1  A    between atoms: C_2  and  C_4
REMARK    2  A    between atoms: C_8  and  O_9
REMARK    3  A    between atoms: O_9  and  C_10
REMARK    4  A    between atoms: C_10  and  C_11
REMARK    5  A    between atoms: N_13  and  C_14
REMARK    6  A    between atoms: C_18  and  C_19
REMARK    7  A    between atoms: C_20  and  C_21
REMARK                            x       y       z     vdW  Elec       q    Type
REMARK                         _______ _______ _______ _____ _____    ______ ____
ROOT
ATOM      1  C   UNL     1       2.019   5.244  20.079  0.00  0.00    +0.000 C 
ATOM      2  O   UNL     1       0.862   4.943  20.422  0.00  0.00    +0.000 OA
ATOM      3  N   UNL     1       2.436   6.742  19.986  0.00  0.00    +0.000 N 
ATOM      4  H   UNL     1       3.377   6.935  19.670  0.00  0.00    +0.000 HD
ENDROOT
BRANCH   3   5
ATOM      5  C   UNL     1       1.503   8.154  20.316  0.00  0.00    +0.000 A 
ATOM      6  C   UNL     1       0.741   8.038  21.450  0.00  0.00    +0.000 A 
ATOM      7  C   UNL     1      -0.114   9.135  21.823  0.00  0.00    +0.000 A 
ATOM      8  C   UNL     1      -0.324  10.522  21.171  0.00  0.00    +0.000 A 
ATOM      9  C   UNL     1       0.306  11.015  20.007  0.00  0.00    +0.000 A 
ATOM     10  C   UNL     1       1.227   9.677  19.575  0.00  0.00    +0.000 A 
BRANCH   9  11
ATOM     11  C   UNL     1      -0.048  12.810  19.451  0.00  0.00    +0.000 C 
ATOM     12  C   UNL     1      -0.306  14.102  18.926  0.00  0.00    +0.000 C 
BRANCH  12  13
ATOM     13  C   UNL     1      -0.307  15.964  18.358  0.00  0.00    +0.000 A 
ATOM     14  C   UNL     1      -0.977  17.679  18.323  0.00  0.00    +0.000 A 
ATOM     15  C   UNL     1      -0.938  18.112  19.626  0.00  0.00    +0.000 A 
ATOM     16  C   UNL     1      -0.539  17.141  20.577  0.00  0.00    +0.000 A 
ATOM     17  C   UNL     1       0.601  16.390  20.264  0.00  0.00    +0.000 A 
ATOM     18  N   UNL     1       0.863  16.049  18.998  0.00  0.00    +0.000 NA
ENDBRANCH  12  13
ENDBRANCH   9  11
ENDBRANCH   3   5
BRANCH   1  19
ATOM     19  C   UNL     1       3.023   3.742  19.669  0.00  0.00    +0.000 C 
BRANCH  19  20
ATOM     20  O   UNL     1       3.953   3.268  18.584  0.00  0.00    +0.000 OA
BRANCH  20  25
ATOM     21  C   UNL     1       6.503   5.932  17.374  0.00  0.00    +0.000 A 
ATOM     22  C   UNL     1       6.861   5.367  16.152  0.00  0.00    +0.000 A 
ATOM     23  C   UNL     1       6.137   4.246  15.681  0.00  0.00    +0.000 A 
ATOM     24  C   UNL     1       5.102   3.596  16.425  0.00  0.00    +0.000 A 
ATOM     25  C   UNL     1       4.760   4.028  17.699  0.00  0.00    +0.000 A 
ATOM     26  C   UNL     1       5.422   5.271  18.124  0.00  0.00    +0.000 A 
BRANCH  21  28
ATOM     27  N   UNL     1       8.305   6.845  18.943  0.00  0.00    +0.000 N 
ATOM     28  C   UNL     1       7.414   7.153  17.816  0.00  0.00    +0.000 C 
ATOM     29  O   UNL     1       7.477   8.289  17.250  0.00  0.00    +0.000 OA
ATOM     30  H   UNL     1       8.950   7.518  19.259  0.00  0.00    +0.000 HD
ATOM     31  H   UNL     1       8.334   5.925  19.358  0.00  0.00    +0.000 HD
ENDBRANCH  21  28
ENDBRANCH  20  25
ENDBRANCH  19  20
ENDBRANCH   1  19
TORSDOF 7
ENDMDL
MODEL 9
REMARK VINA RESULT:      -8.6      6.645      8.756
REMARK  Name = 
REMARK  7 active torsions:
REMARK  status: ('A' for Active; 'I' for Inactive)
REMARK    1  A    between atoms: C_2  and  C_4
REMARK    2  A    between atoms: C_8  and  O_9
REMARK    3  A    between atoms: O_9  and  C_10
REMARK    4  A    between atoms: C_10  and  C_11
REMARK    5  A    between atoms: N_13  and  C_14
REMARK    6  A    between atoms: C_18  and  C_19
REMARK    7  A    between atoms: C_20  and  C_21
REMARK                            x       y       z     vdW  Elec       q    Type
REMARK                         _______ _______ _______ _____ _____    ______ ____
ROOT
ATOM      1  C   UNL     1       7.759   7.224  18.027  0.00  0.00    +0.000 C 
ATOM      2  O   UNL     1       7.022   7.846  17.241  0.00  0.00    +0.000 OA
ATOM      3  N   UNL     1       8.732   8.004  18.962  0.00  0.00    +0.000 N 
ATOM      4  H   UNL     1       9.333   7.451  19.557  0.00  0.00    +0.000 HD
ENDROOT
BRANCH   3   5
ATOM      5  C   UNL     1       8.965   9.705  19.114  0.00  0.00    +0.000 A 
ATOM      6  C   UNL     1       9.030  10.346  17.904  0.00  0.00    +0.000 A 
ATOM      7  C   UNL     1       9.258  11.768  17.886  0.00  0.00    +0.000 A 
ATOM      8  C   UNL     1       9.415  12.782  19.044  0.00  0.00    +0.000 A 
ATOM      9  C   UNL     1       9.378  12.501  20.427  0.00  0.00    +0.000 A 
ATOM     10  C   UNL     1       9.188  10.832  20.389  0.00  0.00    +0.000 A 
BRANCH   9  11
ATOM     11  C   UNL     1       9.501  13.949  21.671  0.00  0.00    +0.000 C 
ATOM     12  C   UNL     1       9.696  14.976  22.629  0.00  0.00    +0.000 C 
BRANCH  12  13
ATOM     13  C   UNL     1       9.650  16.226  24.120  0.00  0.00    +0.000 A 
ATOM     14  C   UNL     1       9.098  17.765  24.968  0.00  0.00    +0.000 A 
ATOM     15  C   UNL     1       7.732  17.663  25.057  0.00  0.00    +0.000 A 
ATOM     16  C   UNL     1       7.163  16.542  24.403  0.00  0.00    +0.000 A 
ATOM     17  C   UNL     1       7.774  15.304  24.640  0.00  0.00    +0.000 A 
ATOM     18  N   UNL     1       9.098  15.221  24.807  0.00  0.00    +0.000 NA
ENDBRANCH  12  13
ENDBRANCH   9  11
ENDBRANCH   3   5
BRANCH   1  19
ATOM     19  C   UNL     1       7.562   5.391  17.842  0.00  0.00    +0.000 C 
BRANCH  19  20
ATOM     20  O   UNL     1       6.457   4.391  17.628  0.00  0.00    +0.000 OA
BRANCH  20  25
ATOM     21  C   UNL     1       3.080   6.030  18.614  0.00  0.00    +0.000 A 
ATOM     22  C   UNL     1       2.206   5.137  18.001  0.00  0.00    +0.000 A 
ATOM     23  C   UNL     1       2.726   3.943  17.449  0.00  0.00    +0.000 A 
ATOM     24  C   UNL     1       4.121   3.628  17.404  0.00  0.00    +0.000 A 
ATOM     25  C   UNL     1       5.069   4.516  17.892  0.00  0.00    +0.000 A 
ATOM     26  C   UNL     1       4.513   5.688  18.584  0.00  0.00    +0.000 A 
BRANCH  21  28
ATOM     27  N   UNL     1       2.033   7.286  20.581  0.00  0.00    +0.000 N 
ATOM     28  C   UNL     1       2.387   7.350  19.156  0.00  0.00    +0.000 C 
ATOM     29  O   UNL     1       2.193   8.421  18.501  0.00  0.00    +0.000 OA
ATOM     30  H   UNL     1       1.646   8.074  21.028  0.00  0.00    +0.000 HD
ATOM     31  H   UNL     1       2.249   6.477  21.144  0.00  0.00    +0.000 HD
ENDBRANCH  21  28
ENDBRANCH  20  25
ENDBRANCH  19  20
ENDBRANCH   1  19
TORSDOF 7
ENDMDL
