MODEL 1
REMARK VINA RESULT:      -7.8      0.000      0.000
REMARK  Name = 
REMARK  6 active torsions:
REMARK  status: ('A' for Active; 'I' for Inactive)
REMARK    1  A    between atoms: C_2  and  C_4
REMARK    2  A    between atoms: C_8  and  O_9
REMARK    3  A    between atoms: O_9  and  C_10
REMARK    4  A    between atoms: C_13  and  N_14
REMARK    5  A    between atoms: C_15  and  C_17
REMARK    6  A    between atoms: C_19  and  C_20
REMARK                            x       y       z     vdW  Elec       q    Type
REMARK                         _______ _______ _______ _____ _____    ______ ____
ROOT
ATOM      1  C   UNL     1       2.712   5.685  18.568  0.00  0.00    +0.000 A 
ATOM      2  C   UNL     1       2.666   6.942  17.985  0.00  0.00    +0.000 A 
ATOM      3  C   UNL     1       2.210   8.019  18.753  0.00  0.00    +0.000 A 
ATOM      4  C   UNL     1       1.807   7.809  20.070  0.00  0.00    +0.000 A 
ATOM      5  C   UNL     1       1.839   6.496  20.534  0.00  0.00    +0.000 A 
ATOM      6  N   UNL     1       2.267   5.431  19.818  0.00  0.00    +0.000 NA
ENDROOT
BRANCH   4   7
ATOM      7  N   UNL     1       1.372   8.820  20.954  0.00  0.00    +0.000 N 
ATOM      8  C   UNL     1       0.195   8.855  21.672  0.00  0.00    +0.000 C 
ATOM      9  O   UNL     1      -0.708   8.032  21.631  0.00  0.00    +0.000 OA
ATOM     10  H   UNL     1       1.996   9.608  21.068  0.00  0.00    +0.000 HD
BRANCH   8  11
ATOM     11  C   UNL     1       0.107  10.030  22.595  0.00  0.00    +0.000 C 
ATOM     12  C   UNL     1      -1.228  10.414  23.183  0.00  0.00    +0.000 C 
ATOM     13  C   UNL     1      -0.545  11.345  22.213  0.00  0.00    +0.000 C 
BRANCH  13  14
ATOM     14  C   UNL     1      -1.162  11.669  20.853  0.00  0.00    +0.000 C 
ATOM     15  C   UNL     1      -0.569  12.693  19.917  0.00  0.00    +0.000 C 
ATOM     16  C   UNL     1      -1.869  12.983  20.605  0.00  0.00    +0.000 C 
ENDBRANCH  13  14
ENDBRANCH   8  11
ENDBRANCH   4   7
BRANCH   1  17
ATOM     17  O   UNL     1       3.239   4.652  17.805  0.00  0.00    +0.000 OA
BRANCH  17  22
ATOM     18  C   UNL     1       6.391   4.603  15.956  0.00  0.00    +0.000 A 
ATOM     19  C   UNL     1       7.337   4.654  16.990  0.00  0.00    +0.000 A 
ATOM     20  C   UNL     1       6.915   4.711  18.316  0.00  0.00    +0.000 A 
ATOM     21  C   UNL     1       5.552   4.717  18.612  0.00  0.00    +0.000 A 
ATOM     22  C   UNL     1       4.601   4.639  17.588  0.00  0.00    +0.000 A 
ATOM     23  C   UNL     1       5.023   4.615  16.257  0.00  0.00    +0.000 A 
BRANCH  18  25
ATOM     24  N   UNL     1       6.244   3.585  13.749  0.00  0.00    +0.000 N 
ATOM     25  C   UNL     1       6.809   4.555  14.531  0.00  0.00    +0.000 C 
ATOM     26  O   UNL     1       7.597   5.365  14.062  0.00  0.00    +0.000 OA
ATOM     27  H   UNL     1       6.452   3.632  12.760  0.00  0.00    +0.000 HD
ATOM     28  H   UNL     1       5.416   3.079  14.030  0.00  0.00    +0.000 HD
ENDBRANCH  18  25
ENDBRANCH  17  22
ENDBRANCH   1  17
TORSDOF 6
ENDMDL
MODEL 2
REMARK VINA RESULT:      -7.6      3.255      9.250
REMARK  Name = 
REMARK  6 active torsions:
REMARK  status: ('A' for Active; 'I' for Inactive)
REMARK    1  A    between atoms: C_2  and  C_4
REMARK    2  A    between atoms: C_8  and  O_9
REMARK    3  A    between atoms: O_9  and  C_10
REMARK    4  A    between atoms: C_13  and  N_14
REMARK    5  A    between atoms: C_15  and  C_17
REMARK    6  A    between atoms: C_19  and  C_20
REMARK                            x       y       z     vdW  Elec       q    Type
REMARK                         _______ _______ _______ _____ _____    ______ ____
ROOT
ATOM      1  C   UNL     1       1.051   9.849  18.854  0.00  0.00    +0.000 A 
ATOM      2  C   UNL     1       1.853   9.477  17.787  0.00  0.00    +0.000 A 
ATOM      3  C   UNL     1       2.573   8.281  17.876  0.00  0.00    +0.000 A 
ATOM      4  C   UNL     1       2.478   7.500  19.025  0.00  0.00    +0.000 A 
ATOM      5  C   UNL     1       1.690   7.998  20.059  0.00  0.00    +0.000 A 
ATOM      6  N   UNL     1       0.986   9.153  20.011  0.00  0.00    +0.000 NA
ENDROOT
BRANCH   4   7
ATOM      7  N   UNL     1       3.118   6.256  19.213  0.00  0.00    +0.000 N 
ATOM      8  C   UNL     1       2.886   5.082  18.527  0.00  0.00    +0.000 C 
ATOM      9  O   UNL     1       2.044   4.900  17.660  0.00  0.00    +0.000 OA
ATOM     10  H   UNL     1       3.824   6.225  19.938  0.00  0.00    +0.000 HD
BRANCH   8  11
ATOM     11  C   UNL     1       3.824   3.982  18.916  0.00  0.00    +0.000 C 
ATOM     12  C   UNL     1       3.717   2.640  18.233  0.00  0.00    +0.000 C 
ATOM     13  C   UNL     1       3.394   2.758  19.702  0.00  0.00    +0.000 C 
BRANCH  13  14
ATOM     14  C   UNL     1       1.985   2.490  20.231  0.00  0.00    +0.000 C 
ATOM     15  C   UNL     1       1.119   3.578  20.818  0.00  0.00    +0.000 C 
ATOM     16  C   UNL     1       1.685   2.515  21.712  0.00  0.00    +0.000 C 
ENDBRANCH  13  14
ENDBRANCH   8  11
ENDBRANCH   4   7
BRANCH   1  17
ATOM     17  O   UNL     1       0.292  11.002  18.706  0.00  0.00    +0.000 OA
BRANCH  17  22
ATOM     18  C   UNL     1      -3.313  11.601  18.764  0.00  0.00    +0.000 A 
ATOM     19  C   UNL     1      -3.771  10.722  17.773  0.00  0.00    +0.000 A 
ATOM     20  C   UNL     1      -2.864   9.925  17.077  0.00  0.00    +0.000 A 
ATOM     21  C   UNL     1      -1.503  10.006  17.367  0.00  0.00    +0.000 A 
ATOM     22  C   UNL     1      -1.040  10.862  18.373  0.00  0.00    +0.000 A 
ATOM     23  C   UNL     1      -1.943  11.684  19.049  0.00  0.00    +0.000 A 
BRANCH  18  25
ATOM     24  N   UNL     1      -3.709  13.506  20.228  0.00  0.00    +0.000 N 
ATOM     25  C   UNL     1      -4.252  12.473  19.515  0.00  0.00    +0.000 C 
ATOM     26  O   UNL     1      -5.464  12.302  19.476  0.00  0.00    +0.000 OA
ATOM     27  H   UNL     1      -4.363  14.155  20.644  0.00  0.00    +0.000 HD
ATOM     28  H   UNL     1      -2.763  13.828  20.077  0.00  0.00    +0.000 HD
ENDBRANCH  18  25
ENDBRANCH  17  22
ENDBRANCH   1  17
TORSDOF 6
ENDMDL
MODEL 3
REMARK VINA RESULT:      -7.6      2.352      9.546
REMARK  Name = 
REMARK  6 active torsions:
REMARK  status: ('A' for Active; 'I' for Inactive)
REMARK    1  A    between atoms: C_2  and  C_4
REMARK    2  A    between atoms: C_8  and  O_9
REMARK    3  A    between atoms: O_9  and  C_10
REMARK    4  A    between atoms: C_13  and  N_14
REMARK    5  A    between atoms: C_15  and  C_17
REMARK    6  A    between atoms: C_19  and  C_20
REMARK                            x       y       z     vdW  Elec       q    Type
REMARK                         _______ _______ _______ _____ _____    ______ ____
ROOT
ATOM      1  C   UNL     1       3.521   5.449  18.642  0.00  0.00    +0.000 A 
ATOM      2  C   UNL     1       4.829   5.821  18.380  0.00  0.00    +0.000 A 
ATOM      3  C   UNL     1       5.470   5.273  17.264  0.00  0.00    +0.000 A 
ATOM      4  C   UNL     1       4.792   4.367  16.452  0.00  0.00    +0.000 A 
ATOM      5  C   UNL     1       3.501   4.019  16.842  0.00  0.00    +0.000 A 
ATOM      6  N   UNL     1       2.853   4.524  17.918  0.00  0.00    +0.000 NA
ENDROOT
BRANCH   4   7
ATOM      7  N   UNL     1       5.315   3.783  15.278  0.00  0.00    +0.000 N 
ATOM      8  C   UNL     1       6.061   4.401  14.296  0.00  0.00    +0.000 C 
ATOM      9  O   UNL     1       6.362   5.585  14.247  0.00  0.00    +0.000 OA
ATOM     10  H   UNL     1       5.113   2.801  15.143  0.00  0.00    +0.000 HD
BRANCH   8  11
ATOM     11  C   UNL     1       6.541   3.452  13.242  0.00  0.00    +0.000 C 
ATOM     12  C   UNL     1       6.915   3.984  11.880  0.00  0.00    +0.000 C 
ATOM     13  C   UNL     1       5.720   3.074  12.023  0.00  0.00    +0.000 C 
BRANCH  13  14
ATOM     14  C   UNL     1       4.306   3.564  11.717  0.00  0.00    +0.000 C 
ATOM     15  C   UNL     1       3.281   2.700  11.022  0.00  0.00    +0.000 C 
ATOM     16  C   UNL     1       3.872   3.875  10.302  0.00  0.00    +0.000 C 
ENDBRANCH  13  14
ENDBRANCH   8  11
ENDBRANCH   4   7
BRANCH   1  17
ATOM     17  O   UNL     1       2.888   6.067  19.713  0.00  0.00    +0.000 OA
BRANCH  17  22
ATOM     18  C   UNL     1       1.082   9.159  20.446  0.00  0.00    +0.000 A 
ATOM     19  C   UNL     1       0.985   9.748  19.178  0.00  0.00    +0.000 A 
ATOM     20  C   UNL     1       1.533   9.107  18.069  0.00  0.00    +0.000 A 
ATOM     21  C   UNL     1       2.178   7.880  18.225  0.00  0.00    +0.000 A 
ATOM     22  C   UNL     1       2.256   7.272  19.483  0.00  0.00    +0.000 A 
ATOM     23  C   UNL     1       1.736   7.929  20.599  0.00  0.00    +0.000 A 
BRANCH  18  25
ATOM     24  N   UNL     1      -0.614  10.569  21.478  0.00  0.00    +0.000 N 
ATOM     25  C   UNL     1       0.519   9.823  21.650  0.00  0.00    +0.000 C 
ATOM     26  O   UNL     1       1.022   9.686  22.757  0.00  0.00    +0.000 OA
ATOM     27  H   UNL     1      -1.048  10.924  22.319  0.00  0.00    +0.000 HD
ATOM     28  H   UNL     1      -1.190  10.493  20.651  0.00  0.00    +0.000 HD
ENDBRANCH  18  25
ENDBRANCH  17  22
ENDBRANCH   1  17
TORSDOF 6
ENDMDL
MODEL 4
REMARK VINA RESULT:      -7.5      2.896      9.488
REMARK  Name = 
REMARK  6 active torsions:
REMARK  status: ('A' for Active; 'I' for Inactive)
REMARK    1  A    between atoms: C_2  and  C_4
REMARK    2  A    between atoms: C_8  and  O_9
REMARK    3  A    between atoms: O_9  and  C_10
REMARK    4  A    between atoms: C_13  and  N_14
REMARK    5  A    between atoms: C_15  and  C_17
REMARK    6  A    between atoms: C_19  and  C_20
REMARK                            x       y       z     vdW  Elec       q    Type
REMARK                         _______ _______ _______ _____ _____    ______ ____
ROOT
ATOM      1  C   UNL     1       1.095   9.746  19.007  0.00  0.00    +0.000 A 
ATOM      2  C   UNL     1       1.820   9.564  17.840  0.00  0.00    +0.000 A 
ATOM      3  C   UNL     1       2.575   8.395  17.696  0.00  0.00    +0.000 A 
ATOM      4  C   UNL     1       2.589   7.450  18.720  0.00  0.00    +0.000 A 
ATOM      5  C   UNL     1       1.872   7.763  19.872  0.00  0.00    +0.000 A 
ATOM      6  N   UNL     1       1.138   8.886  20.048  0.00  0.00    +0.000 NA
ENDROOT
BRANCH   4   7
ATOM      7  N   UNL     1       3.273   6.216  18.673  0.00  0.00    +0.000 N 
ATOM      8  C   UNL     1       2.820   5.027  18.140  0.00  0.00    +0.000 C 
ATOM      9  O   UNL     1       1.718   4.821  17.653  0.00  0.00    +0.000 OA
ATOM     10  H   UNL     1       4.199   6.206  19.082  0.00  0.00    +0.000 HD
BRANCH   8  11
ATOM     11  C   UNL     1       3.852   3.943  18.166  0.00  0.00    +0.000 C 
ATOM     12  C   UNL     1       5.268   4.277  18.568  0.00  0.00    +0.000 C 
ATOM     13  C   UNL     1       4.977   3.837  17.155  0.00  0.00    +0.000 C 
BRANCH  13  14
ATOM     14  C   UNL     1       5.198   4.774  15.969  0.00  0.00    +0.000 C 
ATOM     15  C   UNL     1       5.586   4.272  14.599  0.00  0.00    +0.000 C 
ATOM     16  C   UNL     1       6.583   5.034  15.420  0.00  0.00    +0.000 C 
ENDBRANCH  13  14
ENDBRANCH   8  11
ENDBRANCH   4   7
BRANCH   1  17
ATOM     17  O   UNL     1       0.299  10.880  19.088  0.00  0.00    +0.000 OA
BRANCH  17  22
ATOM     18  C   UNL     1      -3.276  11.599  18.838  0.00  0.00    +0.000 A 
ATOM     19  C   UNL     1      -3.671  10.755  17.791  0.00  0.00    +0.000 A 
ATOM     20  C   UNL     1      -2.731   9.942  17.161  0.00  0.00    +0.000 A 
ATOM     21  C   UNL     1      -1.400   9.971  17.573  0.00  0.00    +0.000 A 
ATOM     22  C   UNL     1      -1.002  10.791  18.635  0.00  0.00    +0.000 A 
ATOM     23  C   UNL     1      -1.936  11.630  19.246  0.00  0.00    +0.000 A 
BRANCH  18  25
ATOM     24  N   UNL     1      -5.280  12.980  18.767  0.00  0.00    +0.000 N 
ATOM     25  C   UNL     1      -4.251  12.487  19.521  0.00  0.00    +0.000 C 
ATOM     26  O   UNL     1      -4.164  12.744  20.715  0.00  0.00    +0.000 OA
ATOM     27  H   UNL     1      -5.995  13.492  19.267  0.00  0.00    +0.000 HD
ATOM     28  H   UNL     1      -5.526  12.590  17.868  0.00  0.00    +0.000 HD
ENDBRANCH  18  25
ENDBRANCH  17  22
ENDBRANCH   1  17
TORSDOF 6
ENDMDL
MODEL 5
REMARK VINA RESULT:      -7.5      5.050      7.919
REMARK  Name = 
REMARK  6 active torsions:
REMARK  status: ('A' for Active; 'I' for Inactive)
REMARK    1  A    between atoms: C_2  and  C_4
REMARK    2  A    between atoms: C_8  and  O_9
REMARK    3  A    between atoms: O_9  and  C_10
REMARK    4  A    between atoms: C_13  and  N_14
REMARK    5  A    between atoms: C_15  and  C_17
REMARK    6  A    between atoms: C_19  and  C_20
REMARK                            x       y       z     vdW  Elec       q    Type
REMARK                         _______ _______ _______ _____ _____    ______ ____
ROOT
ATOM      1  C   UNL     1       6.432   5.720  17.190  0.00  0.00    +0.000 A 
ATOM      2  C   UNL     1       7.113   5.315  18.328  0.00  0.00    +0.000 A 
ATOM      3  C   UNL     1       7.969   6.227  18.955  0.00  0.00    +0.000 A 
ATOM      4  C   UNL     1       8.125   7.506  18.426  0.00  0.00    +0.000 A 
ATOM      5  C   UNL     1       7.438   7.786  17.248  0.00  0.00    +0.000 A 
ATOM      6  N   UNL     1       6.609   6.928  16.611  0.00  0.00    +0.000 NA
ENDROOT
BRANCH   4   7
ATOM      7  N   UNL     1       8.922   8.524  18.993  0.00  0.00    +0.000 N 
ATOM      8  C   UNL     1       8.875   9.875  18.718  0.00  0.00    +0.000 C 
ATOM      9  O   UNL     1       8.161  10.426  17.892  0.00  0.00    +0.000 OA
ATOM     10  H   UNL     1       9.607   8.224  19.675  0.00  0.00    +0.000 HD
BRANCH   8  11
ATOM     11  C   UNL     1       9.794  10.680  19.583  0.00  0.00    +0.000 C 
ATOM     12  C   UNL     1       9.371  12.056  20.035  0.00  0.00    +0.000 C 
ATOM     13  C   UNL     1      10.540  11.907  19.094  0.00  0.00    +0.000 C 
BRANCH  13  14
ATOM     14  C   UNL     1      10.493  12.468  17.673  0.00  0.00    +0.000 C 
ATOM     15  C   UNL     1      11.736  12.880  16.923  0.00  0.00    +0.000 C 
ATOM     16  C   UNL     1      10.774  13.928  17.396  0.00  0.00    +0.000 C 
ENDBRANCH  13  14
ENDBRANCH   8  11
ENDBRANCH   4   7
BRANCH   1  17
ATOM     17  O   UNL     1       5.535   4.818  16.635  0.00  0.00    +0.000 OA
BRANCH  17  22
ATOM     18  C   UNL     1       2.638   5.645  18.706  0.00  0.00    +0.000 A 
ATOM     19  C   UNL     1       1.813   4.528  18.512  0.00  0.00    +0.000 A 
ATOM     20  C   UNL     1       2.228   3.493  17.678  0.00  0.00    +0.000 A 
ATOM     21  C   UNL     1       3.464   3.570  17.036  0.00  0.00    +0.000 A 
ATOM     22  C   UNL     1       4.306   4.669  17.245  0.00  0.00    +0.000 A 
ATOM     23  C   UNL     1       3.877   5.722  18.055  0.00  0.00    +0.000 A 
BRANCH  18  25
ATOM     24  N   UNL     1       1.891   6.469  20.872  0.00  0.00    +0.000 N 
ATOM     25  C   UNL     1       2.219   6.771  19.579  0.00  0.00    +0.000 C 
ATOM     26  O   UNL     1       2.199   7.927  19.176  0.00  0.00    +0.000 OA
ATOM     27  H   UNL     1       1.715   7.255  21.484  0.00  0.00    +0.000 HD
ATOM     28  H   UNL     1       2.142   5.589  21.301  0.00  0.00    +0.000 HD
ENDBRANCH  18  25
ENDBRANCH  17  22
ENDBRANCH   1  17
TORSDOF 6
ENDMDL
MODEL 6
REMARK VINA RESULT:      -7.5      1.588      2.225
REMARK  Name = 
REMARK  6 active torsions:
REMARK  status: ('A' for Active; 'I' for Inactive)
REMARK    1  A    between atoms: C_2  and  C_4
REMARK    2  A    between atoms: C_8  and  O_9
REMARK    3  A    between atoms: O_9  and  C_10
REMARK    4  A    between atoms: C_13  and  N_14
REMARK    5  A    between atoms: C_15  and  C_17
REMARK    6  A    between atoms: C_19  and  C_20
REMARK                            x       y       z     vdW  Elec       q    Type
REMARK                         _______ _______ _______ _____ _____    ______ ____
ROOT
ATOM      1  C   UNL     1       2.733   6.297  18.758  0.00  0.00    +0.000 A 
ATOM      2  C   UNL     1       2.655   7.244  17.748  0.00  0.00    +0.000 A 
ATOM      3  C   UNL     1       2.100   8.493  18.045  0.00  0.00    +0.000 A 
ATOM      4  C   UNL     1       1.635   8.757  19.331  0.00  0.00    +0.000 A 
ATOM      5  C   UNL     1       1.709   7.714  20.251  0.00  0.00    +0.000 A 
ATOM      6  N   UNL     1       2.232   6.492  19.997  0.00  0.00    +0.000 NA
ENDROOT
BRANCH   4   7
ATOM      7  N   UNL     1       1.099   9.990  19.761  0.00  0.00    +0.000 N 
ATOM      8  C   UNL     1      -0.097  10.562  19.377  0.00  0.00    +0.000 C 
ATOM      9  O   UNL     1      -0.885  10.121  18.554  0.00  0.00    +0.000 OA
ATOM     10  H   UNL     1       1.659  10.511  20.422  0.00  0.00    +0.000 HD
BRANCH   8  11
ATOM     11  C   UNL     1      -0.401  11.830  20.114  0.00  0.00    +0.000 C 
ATOM     12  C   UNL     1      -1.294  12.864  19.474  0.00  0.00    +0.000 C 
ATOM     13  C   UNL     1       0.160  13.182  19.717  0.00  0.00    +0.000 C 
BRANCH  13  14
ATOM     14  C   UNL     1       1.122  13.440  18.559  0.00  0.00    +0.000 C 
ATOM     15  C   UNL     1       2.618  13.288  18.697  0.00  0.00    +0.000 C 
ATOM     16  C   UNL     1       2.022  14.655  18.540  0.00  0.00    +0.000 C 
ENDBRANCH  13  14
ENDBRANCH   8  11
ENDBRANCH   4   7
BRANCH   1  17
ATOM     17  O   UNL     1       3.356   5.095  18.452  0.00  0.00    +0.000 OA
BRANCH  17  22
ATOM     18  C   UNL     1       6.496   4.906  16.589  0.00  0.00    +0.000 A 
ATOM     19  C   UNL     1       7.444   5.162  17.589  0.00  0.00    +0.000 A 
ATOM     20  C   UNL     1       7.028   5.404  18.896  0.00  0.00    +0.000 A 
ATOM     21  C   UNL     1       5.669   5.393  19.206  0.00  0.00    +0.000 A 
ATOM     22  C   UNL     1       4.717   5.111  18.220  0.00  0.00    +0.000 A 
ATOM     23  C   UNL     1       5.130   4.900  16.903  0.00  0.00    +0.000 A 
BRANCH  18  25
ATOM     24  N   UNL     1       6.322   3.597  14.543  0.00  0.00    +0.000 N 
ATOM     25  C   UNL     1       6.905   4.656  15.184  0.00  0.00    +0.000 C 
ATOM     26  O   UNL     1       7.704   5.381  14.605  0.00  0.00    +0.000 OA
ATOM     27  H   UNL     1       6.526   3.504  13.557  0.00  0.00    +0.000 HD
ATOM     28  H   UNL     1       5.487   3.148  14.893  0.00  0.00    +0.000 HD
ENDBRANCH  18  25
ENDBRANCH  17  22
ENDBRANCH   1  17
TORSDOF 6
ENDMDL
MODEL 7
REMARK VINA RESULT:      -7.4      1.955      2.897
REMARK  Name = 
REMARK  6 active torsions:
REMARK  status: ('A' for Active; 'I' for Inactive)
REMARK    1  A    between atoms: C_2  and  C_4
REMARK    2  A    between atoms: C_8  and  O_9
REMARK    3  A    between atoms: O_9  and  C_10
REMARK    4  A    between atoms: C_13  and  N_14
REMARK    5  A    between atoms: C_15  and  C_17
REMARK    6  A    between atoms: C_19  and  C_20
REMARK                            x       y       z     vdW  Elec       q    Type
REMARK                         _______ _______ _______ _____ _____    ______ ____
ROOT
ATOM      1  C   UNL     1       2.463   7.146  19.532  0.00  0.00    +0.000 A 
ATOM      2  C   UNL     1       2.485   7.662  18.246  0.00  0.00    +0.000 A 
ATOM      3  C   UNL     1       1.810   8.861  17.995  0.00  0.00    +0.000 A 
ATOM      4  C   UNL     1       1.128   9.501  19.028  0.00  0.00    +0.000 A 
ATOM      5  C   UNL     1       1.123   8.864  20.266  0.00  0.00    +0.000 A 
ATOM      6  N   UNL     1       1.759   7.702  20.542  0.00  0.00    +0.000 NA
ENDROOT
BRANCH   4   7
ATOM      7  N   UNL     1       0.451  10.734  18.908  0.00  0.00    +0.000 N 
ATOM      8  C   UNL     1      -0.868  10.934  18.553  0.00  0.00    +0.000 C 
ATOM      9  O   UNL     1      -1.673  10.073  18.230  0.00  0.00    +0.000 OA
ATOM     10  H   UNL     1       0.998  11.562  19.102  0.00  0.00    +0.000 HD
BRANCH   8  11
ATOM     11  C   UNL     1      -1.283  12.370  18.630  0.00  0.00    +0.000 C 
ATOM     12  C   UNL     1      -0.398  13.360  19.348  0.00  0.00    +0.000 C 
ATOM     13  C   UNL     1      -1.761  13.034  19.907  0.00  0.00    +0.000 C 
BRANCH  13  14
ATOM     14  C   UNL     1      -1.920  12.344  21.262  0.00  0.00    +0.000 C 
ATOM     15  C   UNL     1      -3.099  12.600  22.168  0.00  0.00    +0.000 C 
ATOM     16  C   UNL     1      -1.742  13.106  22.556  0.00  0.00    +0.000 C 
ENDBRANCH  13  14
ENDBRANCH   8  11
ENDBRANCH   4   7
BRANCH   1  17
ATOM     17  O   UNL     1       3.205   5.995  19.765  0.00  0.00    +0.000 OA
BRANCH  17  22
ATOM     18  C   UNL     1       5.614   4.828  17.277  0.00  0.00    +0.000 A 
ATOM     19  C   UNL     1       4.839   3.944  16.513  0.00  0.00    +0.000 A 
ATOM     20  C   UNL     1       3.501   3.735  16.837  0.00  0.00    +0.000 A 
ATOM     21  C   UNL     1       2.935   4.404  17.921  0.00  0.00    +0.000 A 
ATOM     22  C   UNL     1       3.694   5.308  18.673  0.00  0.00    +0.000 A 
ATOM     23  C   UNL     1       5.044   5.495  18.370  0.00  0.00    +0.000 A 
BRANCH  18  25
ATOM     24  N   UNL     1       7.962   4.275  17.606  0.00  0.00    +0.000 N 
ATOM     25  C   UNL     1       7.047   5.064  16.965  0.00  0.00    +0.000 C 
ATOM     26  O   UNL     1       7.400   5.903  16.147  0.00  0.00    +0.000 OA
ATOM     27  H   UNL     1       8.923   4.370  17.305  0.00  0.00    +0.000 HD
ATOM     28  H   UNL     1       7.702   3.420  18.077  0.00  0.00    +0.000 HD
ENDBRANCH  18  25
ENDBRANCH  17  22
ENDBRANCH   1  17
TORSDOF 6
ENDMDL
MODEL 8
REMARK VINA RESULT:      -7.4      2.880      9.556
REMARK  Name = 
REMARK  6 active torsions:
REMARK  status: ('A' for Active; 'I' for Inactive)
REMARK    1  A    between atoms: C_2  and  C_4
REMARK    2  A    between atoms: C_8  and  O_9
REMARK    3  A    between atoms: O_9  and  C_10
REMARK    4  A    between atoms: C_13  and  N_14
REMARK    5  A    between atoms: C_15  and  C_17
REMARK    6  A    between atoms: C_19  and  C_20
REMARK                            x       y       z     vdW  Elec       q    Type
REMARK                         _______ _______ _______ _____ _____    ______ ____
ROOT
ATOM      1  C   UNL     1       1.216   9.680  18.686  0.00  0.00    +0.000 A 
ATOM      2  C   UNL     1       1.167   8.901  19.831  0.00  0.00    +0.000 A 
ATOM      3  C   UNL     1       1.912   7.718  19.867  0.00  0.00    +0.000 A 
ATOM      4  C   UNL     1       2.674   7.345  18.762  0.00  0.00    +0.000 A 
ATOM      5  C   UNL     1       2.604   8.172  17.644  0.00  0.00    +0.000 A 
ATOM      6  N   UNL     1       1.889   9.319  17.571  0.00  0.00    +0.000 NA
ENDROOT
BRANCH   4   7
ATOM      7  N   UNL     1       3.500   6.202  18.697  0.00  0.00    +0.000 N 
ATOM      8  C   UNL     1       3.189   4.974  18.149  0.00  0.00    +0.000 C 
ATOM      9  O   UNL     1       2.116   4.644  17.663  0.00  0.00    +0.000 OA
ATOM     10  H   UNL     1       4.422   6.296  19.102  0.00  0.00    +0.000 HD
BRANCH   8  11
ATOM     11  C   UNL     1       4.343   4.021  18.158  0.00  0.00    +0.000 C 
ATOM     12  C   UNL     1       5.733   4.541  18.427  0.00  0.00    +0.000 C 
ATOM     13  C   UNL     1       5.397   3.976  17.069  0.00  0.00    +0.000 C 
BRANCH  13  14
ATOM     14  C   UNL     1       5.419   4.850  15.816  0.00  0.00    +0.000 C 
ATOM     15  C   UNL     1       5.509   4.271  14.425  0.00  0.00    +0.000 C 
ATOM     16  C   UNL     1       6.679   5.015  14.996  0.00  0.00    +0.000 C 
ENDBRANCH  13  14
ENDBRANCH   8  11
ENDBRANCH   4   7
BRANCH   1  17
ATOM     17  O   UNL     1       0.526  10.884  18.709  0.00  0.00    +0.000 OA
BRANCH  17  22
ATOM     18  C   UNL     1      -3.017  11.745  18.976  0.00  0.00    +0.000 A 
ATOM     19  C   UNL     1      -3.587  10.951  17.971  0.00  0.00    +0.000 A 
ATOM     20  C   UNL     1      -2.777  10.125  17.195  0.00  0.00    +0.000 A 
ATOM     21  C   UNL     1      -1.402  10.091  17.419  0.00  0.00    +0.000 A 
ATOM     22  C   UNL     1      -0.827  10.859  18.438  0.00  0.00    +0.000 A 
ATOM     23  C   UNL     1      -1.633  11.712  19.195  0.00  0.00    +0.000 A 
BRANCH  18  25
ATOM     24  N   UNL     1      -5.078  12.994  19.321  0.00  0.00    +0.000 N 
ATOM     25  C   UNL     1      -3.850  12.646  19.813  0.00  0.00    +0.000 C 
ATOM     26  O   UNL     1      -3.477  13.037  20.910  0.00  0.00    +0.000 OA
ATOM     27  H   UNL     1      -5.679  13.516  19.945  0.00  0.00    +0.000 HD
ATOM     28  H   UNL     1      -5.517  12.494  18.560  0.00  0.00    +0.000 HD
ENDBRANCH  18  25
ENDBRANCH  17  22
ENDBRANCH   1  17
TORSDOF 6
ENDMDL
MODEL 9
REMARK VINA RESULT:      -7.4      3.208      4.235
REMARK  Name = 
REMARK  6 active torsions:
REMARK  status: ('A' for Active; 'I' for Inactive)
REMARK    1  A    between atoms: C_2  and  C_4
REMARK    2  A    between atoms: C_8  and  O_9
REMARK    3  A    between atoms: O_9  and  C_10
REMARK    4  A    between atoms: C_13  and  N_14
REMARK    5  A    between atoms: C_15  and  C_17
REMARK    6  A    between atoms: C_19  and  C_20
REMARK                            x       y       z     vdW  Elec       q    Type
REMARK                         _______ _______ _______ _____ _____    ______ ____
ROOT
ATOM      1  C   UNL     1       2.395   7.708  18.825  0.00  0.00    +0.000 A 
ATOM      2  C   UNL     1       1.974   8.612  17.863  0.00  0.00    +0.000 A 
ATOM      3  C   UNL     1       1.133   9.659  18.251  0.00  0.00    +0.000 A 
ATOM      4  C   UNL     1       0.732   9.768  19.581  0.00  0.00    +0.000 A 
ATOM      5  C   UNL     1       1.167   8.772  20.451  0.00  0.00    +0.000 A 
ATOM      6  N   UNL     1       1.974   7.742  20.109  0.00  0.00    +0.000 NA
ENDROOT
BRANCH   4   7
ATOM      7  N   UNL     1      -0.076  10.803  20.100  0.00  0.00    +0.000 N 
ATOM      8  C   UNL     1       0.329  11.876  20.867  0.00  0.00    +0.000 C 
ATOM      9  O   UNL     1       1.460  12.095  21.275  0.00  0.00    +0.000 OA
ATOM     10  H   UNL     1      -1.063  10.745  19.887  0.00  0.00    +0.000 HD
BRANCH   8  11
ATOM     11  C   UNL     1      -0.780  12.840  21.156  0.00  0.00    +0.000 C 
ATOM     12  C   UNL     1      -2.024  12.817  20.302  0.00  0.00    +0.000 C 
ATOM     13  C   UNL     1      -1.114  14.020  20.263  0.00  0.00    +0.000 C 
BRANCH  13  14
ATOM     14  C   UNL     1      -0.366  14.411  18.990  0.00  0.00    +0.000 C 
ATOM     15  C   UNL     1       1.063  14.895  19.004  0.00  0.00    +0.000 C 
ATOM     16  C   UNL     1      -0.042  15.856  18.682  0.00  0.00    +0.000 C 
ENDBRANCH  13  14
ENDBRANCH   8  11
ENDBRANCH   4   7
BRANCH   1  17
ATOM     17  O   UNL     1       3.288   6.724  18.424  0.00  0.00    +0.000 OA
BRANCH  17  22
ATOM     18  C   UNL     1       3.130   3.262  19.585  0.00  0.00    +0.000 A 
ATOM     19  C   UNL     1       2.113   2.730  18.781  0.00  0.00    +0.000 A 
ATOM     20  C   UNL     1       1.472   3.539  17.846  0.00  0.00    +0.000 A 
ATOM     21  C   UNL     1       1.843   4.877  17.713  0.00  0.00    +0.000 A 
ATOM     22  C   UNL     1       2.876   5.409  18.493  0.00  0.00    +0.000 A 
ATOM     23  C   UNL     1       3.497   4.608  19.453  0.00  0.00    +0.000 A 
BRANCH  18  25
ATOM     24  N   UNL     1       5.040   1.906  20.253  0.00  0.00    +0.000 N 
ATOM     25  C   UNL     1       3.825   2.429  20.601  0.00  0.00    +0.000 C 
ATOM     26  O   UNL     1       3.354   2.243  21.715  0.00  0.00    +0.000 OA
ATOM     27  H   UNL     1       5.551   1.435  20.987  0.00  0.00    +0.000 HD
ATOM     28  H   UNL     1       5.567   2.245  19.460  0.00  0.00    +0.000 HD
ENDBRANCH  18  25
ENDBRANCH  17  22
ENDBRANCH   1  17
TORSDOF 6
ENDMDL
