MODEL 1
REMARK VINA RESULT:      -8.6      0.000      0.000
REMARK  Name = 
REMARK  3 active torsions:
REMARK  status: ('A' for Active; 'I' for Inactive)
REMARK    1  A    between atoms: C_1  and  C_2
REMARK    2  A    between atoms: N_9  and  C_10
REMARK    3  A    between atoms: C_14  and  C_16
REMARK                            x       y       z     vdW  Elec       q    Type
REMARK                         _______ _______ _______ _____ _____    ______ ____
ROOT
ATOM      1  C   UNL     1       7.126   6.716  17.834  0.00  0.00    +0.000 C 
ATOM      2  C   UNL     1       7.415   5.455  17.004  0.00  0.00    +0.000 C 
ATOM      3  C   UNL     1       6.104   5.168  16.305  0.00  0.00    +0.000 C 
ATOM      4  N   UNL     1       5.117   5.551  17.291  0.00  0.00    +0.000 N 
ATOM      5  C   UNL     1       4.067   4.721  17.578  0.00  0.00    +0.000 C 
ATOM      6  O   UNL     1       3.793   3.751  16.839  0.00  0.00    +0.000 OA
ATOM      7  C   UNL     1       5.609   6.639  18.115  0.00  0.00    +0.000 C 
ENDROOT
BRANCH   1  16
ATOM      8  C   UNL     1       8.338  13.173  17.248  0.00  0.00    +0.000 C 
ATOM      9  C   UNL     1       8.835  12.270  18.329  0.00  0.00    +0.000 A 
ATOM     10  C   UNL     1       9.473  12.766  19.482  0.00  0.00    +0.000 A 
ATOM     11  C   UNL     1       9.924  11.922  20.507  0.00  0.00    +0.000 A 
ATOM     12  C   UNL     1       9.758  10.534  20.424  0.00  0.00    +0.000 A 
ATOM     13  C   UNL     1       9.119  10.015  19.292  0.00  0.00    +0.000 A 
ATOM     14  N   UNL     1       8.800   8.727  18.957  0.00  0.00    +0.000 NA
ATOM     15  C   UNL     1       8.169   8.854  17.811  0.00  0.00    +0.000 A 
ATOM     16  N   UNL     1       7.514   7.916  17.102  0.00  0.00    +0.000 N 
ATOM     17  O   UNL     1       8.071  10.130  17.339  0.00  0.00    +0.000 OA
ATOM     18  C   UNL     1       8.683  10.883  18.303  0.00  0.00    +0.000 A 
ATOM     19  H   UNL     1       6.832   8.282  16.448  0.00  0.00    +0.000 HD
ENDBRANCH   1  16
BRANCH   5  20
ATOM     20  C   UNL     1       3.282   4.906  18.844  0.00  0.00    +0.000 A 
ATOM     21  N   UNL     1       3.398   4.256  20.013  0.00  0.00    +0.000 NA
ATOM     22  N   UNL     1       2.621   4.970  20.877  0.00  0.00    +0.000 N 
ATOM     23  C   UNL     1       2.054   6.078  20.308  0.00  0.00    +0.000 A 
ATOM     24  C   UNL     1       2.349   5.958  18.970  0.00  0.00    +0.000 A 
ATOM     25  C   UNL     1       2.046   6.950  17.907  0.00  0.00    +0.000 C 
ATOM     26  C   UNL     1       2.062   8.449  17.735  0.00  0.00    +0.000 C 
ATOM     27  C   UNL     1       1.446   9.175  18.927  0.00  0.00    +0.000 C 
ATOM     28  C   UNL     1       1.562   8.657  20.401  0.00  0.00    +0.000 C 
ATOM     29  C   UNL     1       1.328   7.208  20.969  0.00  0.00    +0.000 C 
ATOM     30  H   UNL     1       2.564   4.650  21.846  0.00  0.00    +0.000 HD
ENDBRANCH   5  20
TORSDOF 2
ENDMDL
MODEL 2
REMARK VINA RESULT:      -8.3      4.667      6.326
REMARK  Name = 
REMARK  3 active torsions:
REMARK  status: ('A' for Active; 'I' for Inactive)
REMARK    1  A    between atoms: C_1  and  C_2
REMARK    2  A    between atoms: N_9  and  C_10
REMARK    3  A    between atoms: C_14  and  C_16
REMARK                            x       y       z     vdW  Elec       q    Type
REMARK                         _______ _______ _______ _____ _____    ______ ____
ROOT
ATOM      1  C   UNL     1       5.153   4.753  18.013  0.00  0.00    +0.000 C 
ATOM      2  C   UNL     1       4.976   4.156  19.418  0.00  0.00    +0.000 C 
ATOM      3  C   UNL     1       3.479   4.170  19.636  0.00  0.00    +0.000 C 
ATOM      4  N   UNL     1       3.063   5.386  18.971  0.00  0.00    +0.000 N 
ATOM      5  C   UNL     1       2.218   6.263  19.596  0.00  0.00    +0.000 C 
ATOM      6  O   UNL     1       1.594   5.931  20.628  0.00  0.00    +0.000 OA
ATOM      7  C   UNL     1       3.926   5.674  17.840  0.00  0.00    +0.000 C 
ENDROOT
BRANCH   1  16
ATOM      8  C   UNL     1       5.498   2.453  11.841  0.00  0.00    +0.000 C 
ATOM      9  C   UNL     1       6.332   3.543  12.431  0.00  0.00    +0.000 A 
ATOM     10  C   UNL     1       7.171   4.352  11.641  0.00  0.00    +0.000 A 
ATOM     11  C   UNL     1       7.941   5.387  12.190  0.00  0.00    +0.000 A 
ATOM     12  C   UNL     1       7.908   5.661  13.563  0.00  0.00    +0.000 A 
ATOM     13  C   UNL     1       7.076   4.876  14.369  0.00  0.00    +0.000 A 
ATOM     14  N   UNL     1       6.825   4.930  15.714  0.00  0.00    +0.000 NA
ATOM     15  C   UNL     1       5.928   3.986  15.897  0.00  0.00    +0.000 A 
ATOM     16  N   UNL     1       5.226   3.697  17.009  0.00  0.00    +0.000 N 
ATOM     17  O   UNL     1       5.585   3.285  14.779  0.00  0.00    +0.000 OA
ATOM     18  C   UNL     1       6.326   3.866  13.789  0.00  0.00    +0.000 A 
ATOM     19  H   UNL     1       4.372   3.178  16.844  0.00  0.00    +0.000 HD
ENDBRANCH   1  16
BRANCH   5  20
ATOM     20  C   UNL     1       2.100   7.677  19.107  0.00  0.00    +0.000 A 
ATOM     21  N   UNL     1       2.254   8.157  17.863  0.00  0.00    +0.000 NA
ATOM     22  N   UNL     1       1.807   9.443  17.938  0.00  0.00    +0.000 N 
ATOM     23  C   UNL     1       1.330   9.780  19.175  0.00  0.00    +0.000 A 
ATOM     24  C   UNL     1       1.656   8.705  19.967  0.00  0.00    +0.000 A 
ATOM     25  C   UNL     1       1.281   8.512  21.392  0.00  0.00    +0.000 C 
ATOM     26  C   UNL     1       0.084   8.752  22.279  0.00  0.00    +0.000 C 
ATOM     27  C   UNL     1      -0.543  10.122  22.045  0.00  0.00    +0.000 C 
ATOM     28  C   UNL     1      -0.583  10.822  20.645  0.00  0.00    +0.000 C 
ATOM     29  C   UNL     1       0.571  11.002  19.588  0.00  0.00    +0.000 C 
ATOM     30  H   UNL     1       1.830  10.008  17.086  0.00  0.00    +0.000 HD
ENDBRANCH   5  20
TORSDOF 2
ENDMDL
MODEL 3
REMARK VINA RESULT:      -8.1      5.773      9.177
REMARK  Name = 
REMARK  3 active torsions:
REMARK  status: ('A' for Active; 'I' for Inactive)
REMARK    1  A    between atoms: C_1  and  C_2
REMARK    2  A    between atoms: N_9  and  C_10
REMARK    3  A    between atoms: C_14  and  C_16
REMARK                            x       y       z     vdW  Elec       q    Type
REMARK                         _______ _______ _______ _____ _____    ______ ____
ROOT
ATOM      1  C   UNL     1       0.727   9.743  19.479  0.00  0.00    +0.000 C 
ATOM      2  C   UNL     1       1.360  11.110  19.782  0.00  0.00    +0.000 C 
ATOM      3  C   UNL     1       0.307  11.829  20.596  0.00  0.00    +0.000 C 
ATOM      4  N   UNL     1      -0.932  11.373  20.004  0.00  0.00    +0.000 N 
ATOM      5  C   UNL     1      -1.914  12.269  19.679  0.00  0.00    +0.000 C 
ATOM      6  O   UNL     1      -1.880  13.444  20.103  0.00  0.00    +0.000 OA
ATOM      7  C   UNL     1      -0.792  10.021  19.496  0.00  0.00    +0.000 C 
ENDROOT
BRANCH   1  16
ATOM      8  C   UNL     1       2.042   3.619  21.547  0.00  0.00    +0.000 C 
ATOM      9  C   UNL     1       2.515   4.249  20.278  0.00  0.00    +0.000 A 
ATOM     10  C   UNL     1       3.150   3.504  19.266  0.00  0.00    +0.000 A 
ATOM     11  C   UNL     1       3.578   4.090  18.066  0.00  0.00    +0.000 A 
ATOM     12  C   UNL     1       3.392   5.456  17.823  0.00  0.00    +0.000 A 
ATOM     13  C   UNL     1       2.756   6.218  18.810  0.00  0.00    +0.000 A 
ATOM     14  N   UNL     1       2.421   7.545  18.838  0.00  0.00    +0.000 NA
ATOM     15  C   UNL     1       1.803   7.682  19.990  0.00  0.00    +0.000 A 
ATOM     16  N   UNL     1       1.140   8.752  20.467  0.00  0.00    +0.000 N 
ATOM     17  O   UNL     1       1.728   6.551  20.748  0.00  0.00    +0.000 OA
ATOM     18  C   UNL     1       2.342   5.602  19.980  0.00  0.00    +0.000 A 
ATOM     19  H   UNL     1       0.470   8.542  21.197  0.00  0.00    +0.000 HD
ENDBRANCH   1  16
BRANCH   5  20
ATOM     20  C   UNL     1      -3.005  11.880  18.724  0.00  0.00    +0.000 A 
ATOM     21  N   UNL     1      -2.915  11.210  17.565  0.00  0.00    +0.000 NA
ATOM     22  N   UNL     1      -4.207  10.927  17.234  0.00  0.00    +0.000 N 
ATOM     23  C   UNL     1      -5.111  11.352  18.169  0.00  0.00    +0.000 A 
ATOM     24  C   UNL     1      -4.362  12.097  19.049  0.00  0.00    +0.000 A 
ATOM     25  C   UNL     1      -4.841  12.716  20.312  0.00  0.00    +0.000 C 
ATOM     26  C   UNL     1      -5.759  12.362  21.456  0.00  0.00    +0.000 C 
ATOM     27  C   UNL     1      -7.068  11.744  20.976  0.00  0.00    +0.000 C 
ATOM     28  C   UNL     1      -7.173  10.828  19.711  0.00  0.00    +0.000 C 
ATOM     29  C   UNL     1      -6.572  11.044  18.271  0.00  0.00    +0.000 C 
ATOM     30  H   UNL     1      -4.378  10.408  16.371  0.00  0.00    +0.000 HD
ENDBRANCH   5  20
TORSDOF 2
ENDMDL
MODEL 4
REMARK VINA RESULT:      -8.0      4.921      8.777
REMARK  Name = 
REMARK  3 active torsions:
REMARK  status: ('A' for Active; 'I' for Inactive)
REMARK    1  A    between atoms: C_1  and  C_2
REMARK    2  A    between atoms: N_9  and  C_10
REMARK    3  A    between atoms: C_14  and  C_16
REMARK                            x       y       z     vdW  Elec       q    Type
REMARK                         _______ _______ _______ _____ _____    ______ ____
ROOT
ATOM      1  C   UNL     1       1.450   8.419  21.236  0.00  0.00    +0.000 C 
ATOM      2  C   UNL     1       1.826   8.964  22.623  0.00  0.00    +0.000 C 
ATOM      3  C   UNL     1       0.519   9.481  23.180  0.00  0.00    +0.000 C 
ATOM      4  N   UNL     1      -0.150  10.008  22.010  0.00  0.00    +0.000 N 
ATOM      5  C   UNL     1      -0.727  11.249  22.042  0.00  0.00    +0.000 C 
ATOM      6  O   UNL     1      -0.912  11.845  23.126  0.00  0.00    +0.000 OA
ATOM      7  C   UNL     1       0.220   9.257  20.825  0.00  0.00    +0.000 C 
ENDROOT
BRANCH   1  16
ATOM      8  C   UNL     1       0.694   2.400  18.646  0.00  0.00    +0.000 C 
ATOM      9  C   UNL     1       1.818   3.347  18.381  0.00  0.00    +0.000 A 
ATOM     10  C   UNL     1       2.762   3.118  17.361  0.00  0.00    +0.000 A 
ATOM     11  C   UNL     1       3.807   4.014  17.098  0.00  0.00    +0.000 A 
ATOM     12  C   UNL     1       3.959   5.187  17.849  0.00  0.00    +0.000 A 
ATOM     13  C   UNL     1       3.030   5.441  18.863  0.00  0.00    +0.000 A 
ATOM     14  N   UNL     1       2.914   6.499  19.724  0.00  0.00    +0.000 NA
ATOM     15  C   UNL     1       1.830   6.218  20.413  0.00  0.00    +0.000 A 
ATOM     16  N   UNL     1       1.174   6.988  21.302  0.00  0.00    +0.000 N 
ATOM     17  O   UNL     1       1.231   5.034  20.097  0.00  0.00    +0.000 OA
ATOM     18  C   UNL     1       2.007   4.534  19.089  0.00  0.00    +0.000 A 
ATOM     19  H   UNL     1       0.207   6.726  21.454  0.00  0.00    +0.000 HD
ENDBRANCH   1  16
BRANCH   5  20
ATOM     20  C   UNL     1      -1.060  11.960  20.764  0.00  0.00    +0.000 A 
ATOM     21  N   UNL     1      -2.250  12.098  20.158  0.00  0.00    +0.000 NA
ATOM     22  N   UNL     1      -2.027  13.019  19.178  0.00  0.00    +0.000 N 
ATOM     23  C   UNL     1      -0.749  13.506  19.171  0.00  0.00    +0.000 A 
ATOM     24  C   UNL     1      -0.084  12.721  20.083  0.00  0.00    +0.000 A 
ATOM     25  C   UNL     1       1.322  12.887  20.532  0.00  0.00    +0.000 C 
ATOM     26  C   UNL     1       2.263  14.015  20.878  0.00  0.00    +0.000 C 
ATOM     27  C   UNL     1       2.194  15.156  19.868  0.00  0.00    +0.000 C 
ATOM     28  C   UNL     1       0.877  15.570  19.129  0.00  0.00    +0.000 C 
ATOM     29  C   UNL     1      -0.187  14.663  18.405  0.00  0.00    +0.000 C 
ATOM     30  H   UNL     1      -2.814  13.285  18.582  0.00  0.00    +0.000 HD
ENDBRANCH   5  20
TORSDOF 2
ENDMDL
MODEL 5
REMARK VINA RESULT:      -7.9      4.968      8.760
REMARK  Name = 
REMARK  3 active torsions:
REMARK  status: ('A' for Active; 'I' for Inactive)
REMARK    1  A    between atoms: C_1  and  C_2
REMARK    2  A    between atoms: N_9  and  C_10
REMARK    3  A    between atoms: C_14  and  C_16
REMARK                            x       y       z     vdW  Elec       q    Type
REMARK                         _______ _______ _______ _____ _____    ______ ____
ROOT
ATOM      1  C   UNL     1       1.190   8.839  18.621  0.00  0.00    +0.000 C 
ATOM      2  C   UNL     1       2.192   9.644  17.780  0.00  0.00    +0.000 C 
ATOM      3  C   UNL     1       2.285  10.974  18.495  0.00  0.00    +0.000 C 
ATOM      4  N   UNL     1       0.936  11.184  18.973  0.00  0.00    +0.000 N 
ATOM      5  C   UNL     1       0.315  12.389  18.788  0.00  0.00    +0.000 C 
ATOM      6  O   UNL     1       0.963  13.400  18.439  0.00  0.00    +0.000 OA
ATOM      7  C   UNL     1       0.294   9.917  19.269  0.00  0.00    +0.000 C 
ENDROOT
BRANCH   1  16
ATOM      8  C   UNL     1       2.500   3.165  21.720  0.00  0.00    +0.000 C 
ATOM      9  C   UNL     1       2.395   3.368  20.244  0.00  0.00    +0.000 A 
ATOM     10  C   UNL     1       2.370   2.287  19.341  0.00  0.00    +0.000 A 
ATOM     11  C   UNL     1       2.254   2.475  17.957  0.00  0.00    +0.000 A 
ATOM     12  C   UNL     1       2.159   3.759  17.407  0.00  0.00    +0.000 A 
ATOM     13  C   UNL     1       2.173   4.850  18.283  0.00  0.00    +0.000 A 
ATOM     14  N   UNL     1       2.070   6.194  18.040  0.00  0.00    +0.000 NA
ATOM     15  C   UNL     1       2.095   6.727  19.241  0.00  0.00    +0.000 A 
ATOM     16  N   UNL     1       1.886   8.008  19.598  0.00  0.00    +0.000 N 
ATOM     17  O   UNL     1       2.238   5.841  20.268  0.00  0.00    +0.000 OA
ATOM     18  C   UNL     1       2.284   4.625  19.646  0.00  0.00    +0.000 A 
ATOM     19  H   UNL     1       1.618   8.138  20.566  0.00  0.00    +0.000 HD
ENDBRANCH   1  16
BRANCH   5  20
ATOM     20  C   UNL     1      -1.177  12.497  18.909  0.00  0.00    +0.000 A 
ATOM     21  N   UNL     1      -2.128  12.037  18.081  0.00  0.00    +0.000 NA
ATOM     22  N   UNL     1      -3.290  12.196  18.777  0.00  0.00    +0.000 N 
ATOM     23  C   UNL     1      -3.104  12.696  20.037  0.00  0.00    +0.000 A 
ATOM     24  C   UNL     1      -1.772  13.035  20.072  0.00  0.00    +0.000 A 
ATOM     25  C   UNL     1      -1.020  13.540  21.249  0.00  0.00    +0.000 C 
ATOM     26  C   UNL     1      -0.950  13.275  22.733  0.00  0.00    +0.000 C 
ATOM     27  C   UNL     1      -2.333  13.148  23.364  0.00  0.00    +0.000 C 
ATOM     28  C   UNL     1      -3.563  12.529  22.618  0.00  0.00    +0.000 C 
ATOM     29  C   UNL     1      -4.087  12.806  21.160  0.00  0.00    +0.000 C 
ATOM     30  H   UNL     1      -4.160  11.901  18.329  0.00  0.00    +0.000 HD
ENDBRANCH   5  20
TORSDOF 2
ENDMDL
MODEL 6
REMARK VINA RESULT:      -7.6      5.611      8.601
REMARK  Name = 
REMARK  3 active torsions:
REMARK  status: ('A' for Active; 'I' for Inactive)
REMARK    1  A    between atoms: C_1  and  C_2
REMARK    2  A    between atoms: N_9  and  C_10
REMARK    3  A    between atoms: C_14  and  C_16
REMARK                            x       y       z     vdW  Elec       q    Type
REMARK                         _______ _______ _______ _____ _____    ______ ____
ROOT
ATOM      1  C   UNL     1       0.925   9.707  18.382  0.00  0.00    +0.000 C 
ATOM      2  C   UNL     1       1.586  11.071  18.636  0.00  0.00    +0.000 C 
ATOM      3  C   UNL     1       0.652  11.755  19.609  0.00  0.00    +0.000 C 
ATOM      4  N   UNL     1      -0.654  11.305  19.180  0.00  0.00    +0.000 N 
ATOM      5  C   UNL     1      -1.678  12.200  19.021  0.00  0.00    +0.000 C 
ATOM      6  O   UNL     1      -1.592  13.363  19.472  0.00  0.00    +0.000 OA
ATOM      7  C   UNL     1      -0.578   9.969  18.616  0.00  0.00    +0.000 C 
ENDROOT
BRANCH   1  16
ATOM      8  C   UNL     1       3.508   3.796  19.761  0.00  0.00    +0.000 C 
ATOM      9  C   UNL     1       3.925   4.713  18.659  0.00  0.00    +0.000 A 
ATOM     10  C   UNL     1       4.813   4.305  17.644  0.00  0.00    +0.000 A 
ATOM     11  C   UNL     1       5.193   5.158  16.599  0.00  0.00    +0.000 A 
ATOM     12  C   UNL     1       4.700   6.466  16.519  0.00  0.00    +0.000 A 
ATOM     13  C   UNL     1       3.810   6.894  17.510  0.00  0.00    +0.000 A 
ATOM     14  N   UNL     1       3.158   8.087  17.672  0.00  0.00    +0.000 NA
ATOM     15  C   UNL     1       2.422   7.893  18.744  0.00  0.00    +0.000 A 
ATOM     16  N   UNL     1       1.477   8.692  19.273  0.00  0.00    +0.000 N 
ATOM     17  O   UNL     1       2.559   6.668  19.329  0.00  0.00    +0.000 OA
ATOM     18  C   UNL     1       3.454   6.020  18.525  0.00  0.00    +0.000 A 
ATOM     19  H   UNL     1       0.814   8.220  19.876  0.00  0.00    +0.000 HD
ENDBRANCH   1  16
BRANCH   5  20
ATOM     20  C   UNL     1      -2.887  11.829  18.214  0.00  0.00    +0.000 A 
ATOM     21  N   UNL     1      -2.958  11.137  17.066  0.00  0.00    +0.000 NA
ATOM     22  N   UNL     1      -4.289  10.888  16.901  0.00  0.00    +0.000 N 
ATOM     23  C   UNL     1      -5.060  11.356  17.930  0.00  0.00    +0.000 A 
ATOM     24  C   UNL     1      -4.188  12.092  18.697  0.00  0.00    +0.000 A 
ATOM     25  C   UNL     1      -4.491  12.746  19.996  0.00  0.00    +0.000 C 
ATOM     26  C   UNL     1      -5.272  12.439  21.251  0.00  0.00    +0.000 C 
ATOM     27  C   UNL     1      -6.647  11.853  20.946  0.00  0.00    +0.000 C 
ATOM     28  C   UNL     1      -6.932  10.920  19.722  0.00  0.00    +0.000 C 
ATOM     29  C   UNL     1      -6.506  11.093  18.216  0.00  0.00    +0.000 C 
ATOM     30  H   UNL     1      -4.579  10.360  16.075  0.00  0.00    +0.000 HD
ENDBRANCH   5  20
TORSDOF 2
ENDMDL
MODEL 7
REMARK VINA RESULT:      -7.6      5.005      8.578
REMARK  Name = 
REMARK  3 active torsions:
REMARK  status: ('A' for Active; 'I' for Inactive)
REMARK    1  A    between atoms: C_1  and  C_2
REMARK    2  A    between atoms: N_9  and  C_10
REMARK    3  A    between atoms: C_14  and  C_16
REMARK                            x       y       z     vdW  Elec       q    Type
REMARK                         _______ _______ _______ _____ _____    ______ ____
ROOT
ATOM      1  C   UNL     1       1.087   8.533  18.779  0.00  0.00    +0.000 C 
ATOM      2  C   UNL     1       1.916   9.315  17.748  0.00  0.00    +0.000 C 
ATOM      3  C   UNL     1       2.133  10.663  18.399  0.00  0.00    +0.000 C 
ATOM      4  N   UNL     1       0.893  10.886  19.110  0.00  0.00    +0.000 N 
ATOM      5  C   UNL     1       0.243  12.087  19.010  0.00  0.00    +0.000 C 
ATOM      6  O   UNL     1       0.812  13.088  18.522  0.00  0.00    +0.000 OA
ATOM      7  C   UNL     1       0.320   9.628  19.551  0.00  0.00    +0.000 C 
ENDROOT
BRANCH   1  16
ATOM      8  C   UNL     1       3.176   2.879  21.459  0.00  0.00    +0.000 C 
ATOM      9  C   UNL     1       2.885   3.124  20.014  0.00  0.00    +0.000 A 
ATOM     10  C   UNL     1       2.839   2.077  19.074  0.00  0.00    +0.000 A 
ATOM     11  C   UNL     1       2.549   2.302  17.721  0.00  0.00    +0.000 A 
ATOM     12  C   UNL     1       2.293   3.593  17.243  0.00  0.00    +0.000 A 
ATOM     13  C   UNL     1       2.326   4.651  18.158  0.00  0.00    +0.000 A 
ATOM     14  N   UNL     1       2.093   5.989  17.987  0.00  0.00    +0.000 NA
ATOM     15  C   UNL     1       2.216   6.481  19.200  0.00  0.00    +0.000 A 
ATOM     16  N   UNL     1       1.953   7.727  19.633  0.00  0.00    +0.000 N 
ATOM     17  O   UNL     1       2.545   5.574  20.164  0.00  0.00    +0.000 OA
ATOM     18  C   UNL     1       2.610   4.388  19.488  0.00  0.00    +0.000 A 
ATOM     19  H   UNL     1       1.790   7.802  20.630  0.00  0.00    +0.000 HD
ENDBRANCH   1  16
BRANCH   5  20
ATOM     20  C   UNL     1      -1.202  12.199  19.398  0.00  0.00    +0.000 A 
ATOM     21  N   UNL     1      -1.769  12.980  20.332  0.00  0.00    +0.000 NA
ATOM     22  N   UNL     1      -3.108  12.862  20.105  0.00  0.00    +0.000 N 
ATOM     23  C   UNL     1      -3.409  12.072  19.030  0.00  0.00    +0.000 A 
ATOM     24  C   UNL     1      -2.202  11.522  18.667  0.00  0.00    +0.000 A 
ATOM     25  C   UNL     1      -1.946  10.654  17.489  0.00  0.00    +0.000 C 
ATOM     26  C   UNL     1      -2.373  10.569  16.044  0.00  0.00    +0.000 C 
ATOM     27  C   UNL     1      -3.874  10.776  15.872  0.00  0.00    +0.000 C 
ATOM     28  C   UNL     1      -4.718  11.736  16.776  0.00  0.00    +0.000 C 
ATOM     29  C   UNL     1      -4.726  11.878  18.344  0.00  0.00    +0.000 C 
ATOM     30  H   UNL     1      -3.744  13.386  20.710  0.00  0.00    +0.000 HD
ENDBRANCH   5  20
TORSDOF 2
ENDMDL
MODEL 8
REMARK VINA RESULT:      -7.5      5.115      8.469
REMARK  Name = 
REMARK  3 active torsions:
REMARK  status: ('A' for Active; 'I' for Inactive)
REMARK    1  A    between atoms: C_1  and  C_2
REMARK    2  A    between atoms: N_9  and  C_10
REMARK    3  A    between atoms: C_14  and  C_16
REMARK                            x       y       z     vdW  Elec       q    Type
REMARK                         _______ _______ _______ _____ _____    ______ ____
ROOT
ATOM      1  C   UNL     1       1.002  10.417  19.137  0.00  0.00    +0.000 C 
ATOM      2  C   UNL     1      -0.524  10.594  19.095  0.00  0.00    +0.000 C 
ATOM      3  C   UNL     1      -0.716  11.980  18.522  0.00  0.00    +0.000 C 
ATOM      4  N   UNL     1       0.394  12.722  19.080  0.00  0.00    +0.000 N 
ATOM      5  C   UNL     1       0.190  13.949  19.651  0.00  0.00    +0.000 C 
ATOM      6  O   UNL     1      -0.886  14.564  19.487  0.00  0.00    +0.000 OA
ATOM      7  C   UNL     1       1.542  11.856  19.277  0.00  0.00    +0.000 C 
ENDROOT
BRANCH   1  16
ATOM      8  C   UNL     1       5.149   6.570  15.744  0.00  0.00    +0.000 C 
ATOM      9  C   UNL     1       4.545   6.268  17.076  0.00  0.00    +0.000 A 
ATOM     10  C   UNL     1       4.972   5.178  17.859  0.00  0.00    +0.000 A 
ATOM     11  C   UNL     1       4.419   4.903  19.118  0.00  0.00    +0.000 A 
ATOM     12  C   UNL     1       3.407   5.709  19.654  0.00  0.00    +0.000 A 
ATOM     13  C   UNL     1       2.970   6.803  18.899  0.00  0.00    +0.000 A 
ATOM     14  N   UNL     1       2.033   7.762  19.174  0.00  0.00    +0.000 NA
ATOM     15  C   UNL     1       2.087   8.555  18.127  0.00  0.00    +0.000 A 
ATOM     16  N   UNL     1       1.476   9.739  17.936  0.00  0.00    +0.000 N 
ATOM     17  O   UNL     1       2.969   8.178  17.158  0.00  0.00    +0.000 OA
ATOM     18  C   UNL     1       3.545   7.045  17.662  0.00  0.00    +0.000 A 
ATOM     19  H   UNL     1       1.907  10.327  17.232  0.00  0.00    +0.000 HD
ENDBRANCH   1  16
BRANCH   5  20
ATOM     20  C   UNL     1       1.222  14.536  20.568  0.00  0.00    +0.000 A 
ATOM     21  N   UNL     1       1.345  14.405  21.898  0.00  0.00    +0.000 NA
ATOM     22  N   UNL     1       2.568  14.937  22.181  0.00  0.00    +0.000 N 
ATOM     23  C   UNL     1       3.247  15.357  21.070  0.00  0.00    +0.000 A 
ATOM     24  C   UNL     1       2.329  15.245  20.051  0.00  0.00    +0.000 A 
ATOM     25  C   UNL     1       2.580  15.485  18.607  0.00  0.00    +0.000 C 
ATOM     26  C   UNL     1       3.671  15.220  17.599  0.00  0.00    +0.000 C 
ATOM     27  C   UNL     1       5.055  15.553  18.145  0.00  0.00    +0.000 C 
ATOM     28  C   UNL     1       5.456  15.364  19.647  0.00  0.00    +0.000 C 
ATOM     29  C   UNL     1       4.675  15.787  20.947  0.00  0.00    +0.000 C 
ATOM     30  H   UNL     1       2.876  14.939  23.155  0.00  0.00    +0.000 HD
ENDBRANCH   5  20
TORSDOF 2
ENDMDL
MODEL 9
REMARK VINA RESULT:      -7.5      1.726      2.699
REMARK  Name = 
REMARK  3 active torsions:
REMARK  status: ('A' for Active; 'I' for Inactive)
REMARK    1  A    between atoms: C_1  and  C_2
REMARK    2  A    between atoms: N_9  and  C_10
REMARK    3  A    between atoms: C_14  and  C_16
REMARK                            x       y       z     vdW  Elec       q    Type
REMARK                         _______ _______ _______ _____ _____    ______ ____
ROOT
ATOM      1  C   UNL     1       7.225   7.260  17.916  0.00  0.00    +0.000 C 
ATOM      2  C   UNL     1       7.782   5.959  17.318  0.00  0.00    +0.000 C 
ATOM      3  C   UNL     1       6.742   5.549  16.299  0.00  0.00    +0.000 C 
ATOM      4  N   UNL     1       5.499   5.950  16.921  0.00  0.00    +0.000 N 
ATOM      5  C   UNL     1       4.437   5.087  16.964  0.00  0.00    +0.000 C 
ATOM      6  O   UNL     1       4.421   4.051  16.265  0.00  0.00    +0.000 OA
ATOM      7  C   UNL     1       5.696   7.122  17.754  0.00  0.00    +0.000 C 
ENDROOT
BRANCH   1  16
ATOM      8  C   UNL     1       8.947  13.610  17.441  0.00  0.00    +0.000 C 
ATOM      9  C   UNL     1       9.261  12.686  18.572  0.00  0.00    +0.000 A 
ATOM     10  C   UNL     1       9.807  13.149  19.785  0.00  0.00    +0.000 A 
ATOM     11  C   UNL     1      10.086  12.286  20.854  0.00  0.00    +0.000 A 
ATOM     12  C   UNL     1       9.831  10.913  20.759  0.00  0.00    +0.000 A 
ATOM     13  C   UNL     1       9.282  10.428  19.567  0.00  0.00    +0.000 A 
ATOM     14  N   UNL     1       8.909   9.162  19.204  0.00  0.00    +0.000 NA
ATOM     15  C   UNL     1       8.414   9.320  17.997  0.00  0.00    +0.000 A 
ATOM     16  N   UNL     1       7.773   8.422  17.226  0.00  0.00    +0.000 N 
ATOM     17  O   UNL     1       8.457  10.595  17.514  0.00  0.00    +0.000 OA
ATOM     18  C   UNL     1       9.015  11.313  18.534  0.00  0.00    +0.000 A 
ATOM     19  H   UNL     1       7.191   8.828  16.502  0.00  0.00    +0.000 HD
ENDBRANCH   1  16
BRANCH   5  20
ATOM     20  C   UNL     1       3.312   5.322  17.929  0.00  0.00    +0.000 A 
ATOM     21  N   UNL     1       2.174   6.011  17.750  0.00  0.00    +0.000 NA
ATOM     22  N   UNL     1       1.418   5.708  18.843  0.00  0.00    +0.000 N 
ATOM     23  C   UNL     1       2.016   4.812  19.686  0.00  0.00    +0.000 A 
ATOM     24  C   UNL     1       3.291   4.679  19.187  0.00  0.00    +0.000 A 
ATOM     25  C   UNL     1       4.338   3.747  19.677  0.00  0.00    +0.000 C 
ATOM     26  C   UNL     1       4.429   2.326  20.178  0.00  0.00    +0.000 C 
ATOM     27  C   UNL     1       3.321   1.991  21.170  0.00  0.00    +0.000 C 
ATOM     28  C   UNL     1       1.877   2.589  21.080  0.00  0.00    +0.000 C 
ATOM     29  C   UNL     1       1.429   4.082  20.853  0.00  0.00    +0.000 C 
ATOM     30  H   UNL     1       0.489   6.129  18.914  0.00  0.00    +0.000 HD
ENDBRANCH   5  20
TORSDOF 2
ENDMDL
