MODEL 1
REMARK VINA RESULT:      -9.0      0.000      0.000
REMARK  Name = 
REMARK  4 active torsions:
REMARK  status: ('A' for Active; 'I' for Inactive)
REMARK    1  A    between atoms: C_2  and  C_21
REMARK    2  A    between atoms: N_3  and  C_4
REMARK    3  A    between atoms: C_4  and  C_5
REMARK    4  A    between atoms: C_4  and  C_11
REMARK                            x       y       z     vdW  Elec       q    Type
REMARK                         _______ _______ _______ _____ _____    ______ ____
ROOT
ATOM      1  C   UNL     1       3.837   5.970  19.108  0.00  0.00    +0.000 C 
ENDROOT
BRANCH   1   2
ATOM      2  C   UNL     1       5.202   5.648  18.452  0.00  0.00    +0.000 A 
ATOM      3  C   UNL     1       6.314   5.610  19.346  0.00  0.00    +0.000 A 
ATOM      4  C   UNL     1       7.582   5.168  18.947  0.00  0.00    +0.000 A 
ATOM      5  C   UNL     1       7.701   4.574  17.700  0.00  0.00    +0.000 A 
ATOM      6  C   UNL     1       6.636   4.571  16.845  0.00  0.00    +0.000 A 
ATOM      7  C   UNL     1       6.825   3.902  15.636  0.00  0.00    +0.000 A 
ATOM      8  C   UNL     1       6.610   4.684  14.537  0.00  0.00    +0.000 A 
ATOM      9  C   UNL     1       5.541   5.558  14.595  0.00  0.00    +0.000 A 
ATOM     10  C   UNL     1       4.866   5.777  15.835  0.00  0.00    +0.000 A 
ATOM     11  C   UNL     1       5.467   5.323  17.067  0.00  0.00    +0.000 A 
ENDBRANCH   1   2
BRANCH   1  12
ATOM     12  C   UNL     1       2.831   4.771  19.062  0.00  0.00    +0.000 A 
ATOM     13  C   UNL     1       2.106   4.479  17.888  0.00  0.00    +0.000 A 
ATOM     14  C   UNL     1       1.180   3.421  17.847  0.00  0.00    +0.000 A 
ATOM     15  C   UNL     1       0.937   2.650  18.971  0.00  0.00    +0.000 A 
ATOM     16  C   UNL     1       1.639   2.918  20.148  0.00  0.00    +0.000 A 
ATOM     17  C   UNL     1       2.580   3.965  20.189  0.00  0.00    +0.000 A 
ENDBRANCH   1  12
BRANCH   1  20
ATOM     18  O   UNL     1       1.888   7.647  20.361  0.00  0.00    +0.000 OA
ATOM     19  C   UNL     1       2.263   7.898  19.219  0.00  0.00    +0.000 C 
ATOM     20  N   UNL     1       3.186   7.135  18.543  0.00  0.00    +0.000 N 
ATOM     21  H   UNL     1       3.410   7.347  17.586  0.00  0.00    +0.000 HD
BRANCH  19  22
ATOM     22  C   UNL     1       1.737   9.132  18.552  0.00  0.00    +0.000 C 
ATOM     23  C   UNL     1       0.375   9.202  17.902  0.00  0.00    +0.000 C 
ATOM     24  C   UNL     1       0.664  10.066  19.109  0.00  0.00    +0.000 C 
ATOM     25  C   UNL     1       0.777  11.567  18.866  0.00  0.00    +0.000 C 
ATOM     26  C   UNL     1       1.347  12.273  20.098  0.00  0.00    +0.000 C 
ATOM     27  O   UNL     1       0.587  11.958  21.270  0.00  0.00    +0.000 OA
ATOM     28  C   UNL     1       0.616  10.551  21.543  0.00  0.00    +0.000 C 
ATOM     29  C   UNL     1      -0.060   9.784  20.408  0.00  0.00    +0.000 C 
ENDBRANCH  19  22
ENDBRANCH   1  20
TORSDOF 4
ENDMDL
MODEL 2
REMARK VINA RESULT:      -8.6      4.050      6.167
REMARK  Name = 
REMARK  4 active torsions:
REMARK  status: ('A' for Active; 'I' for Inactive)
REMARK    1  A    between atoms: C_2  and  C_21
REMARK    2  A    between atoms: N_3  and  C_4
REMARK    3  A    between atoms: C_4  and  C_5
REMARK    4  A    between atoms: C_4  and  C_11
REMARK                            x       y       z     vdW  Elec       q    Type
REMARK                         _______ _______ _______ _____ _____    ______ ____
ROOT
ATOM      1  C   UNL     1       5.379   5.257  15.668  0.00  0.00    +0.000 C 
ENDROOT
BRANCH   1   2
ATOM      2  C   UNL     1       6.037   4.909  14.311  0.00  0.00    +0.000 A 
ATOM      3  C   UNL     1       7.321   5.492  14.090  0.00  0.00    +0.000 A 
ATOM      4  C   UNL     1       8.124   5.145  12.995  0.00  0.00    +0.000 A 
ATOM      5  C   UNL     1       7.732   4.066  12.218  0.00  0.00    +0.000 A 
ATOM      6  C   UNL     1       6.520   3.474  12.438  0.00  0.00    +0.000 A 
ATOM      7  C   UNL     1       6.233   2.361  11.650  0.00  0.00    +0.000 A 
ATOM      8  C   UNL     1       5.079   2.483  10.929  0.00  0.00    +0.000 A 
ATOM      9  C   UNL     1       4.008   3.079  11.568  0.00  0.00    +0.000 A 
ATOM     10  C   UNL     1       4.199   3.732  12.824  0.00  0.00    +0.000 A 
ATOM     11  C   UNL     1       5.537   4.024  13.281  0.00  0.00    +0.000 A 
ENDBRANCH   1   2
BRANCH   1  12
ATOM     12  C   UNL     1       6.401   5.765  16.739  0.00  0.00    +0.000 A 
ATOM     13  C   UNL     1       6.989   4.871  17.659  0.00  0.00    +0.000 A 
ATOM     14  C   UNL     1       7.887   5.324  18.643  0.00  0.00    +0.000 A 
ATOM     15  C   UNL     1       8.201   6.669  18.749  0.00  0.00    +0.000 A 
ATOM     16  C   UNL     1       7.632   7.576  17.853  0.00  0.00    +0.000 A 
ATOM     17  C   UNL     1       6.745   7.125  16.856  0.00  0.00    +0.000 A 
ENDBRANCH   1  12
BRANCH   1  20
ATOM     18  O   UNL     1       3.170   5.428  17.478  0.00  0.00    +0.000 OA
ATOM     19  C   UNL     1       3.563   4.328  17.099  0.00  0.00    +0.000 C 
ATOM     20  N   UNL     1       4.624   4.160  16.240  0.00  0.00    +0.000 N 
ATOM     21  H   UNL     1       4.945   3.235  16.012  0.00  0.00    +0.000 HD
BRANCH  19  22
ATOM     22  C   UNL     1       2.808   3.112  17.542  0.00  0.00    +0.000 C 
ATOM     23  C   UNL     1       3.484   1.809  17.905  0.00  0.00    +0.000 C 
ATOM     24  C   UNL     1       2.730   2.574  18.970  0.00  0.00    +0.000 C 
ATOM     25  C   UNL     1       1.428   1.954  19.466  0.00  0.00    +0.000 C 
ATOM     26  C   UNL     1       0.640   2.956  20.312  0.00  0.00    +0.000 C 
ATOM     27  O   UNL     1       1.445   3.478  21.376  0.00  0.00    +0.000 OA
ATOM     28  C   UNL     1       2.591   4.171  20.865  0.00  0.00    +0.000 C 
ATOM     29  C   UNL     1       3.499   3.199  20.114  0.00  0.00    +0.000 C 
ENDBRANCH  19  22
ENDBRANCH   1  20
TORSDOF 4
ENDMDL
MODEL 3
REMARK VINA RESULT:      -8.4      1.451      4.395
REMARK  Name = 
REMARK  4 active torsions:
REMARK  status: ('A' for Active; 'I' for Inactive)
REMARK    1  A    between atoms: C_2  and  C_21
REMARK    2  A    between atoms: N_3  and  C_4
REMARK    3  A    between atoms: C_4  and  C_5
REMARK    4  A    between atoms: C_4  and  C_11
REMARK                            x       y       z     vdW  Elec       q    Type
REMARK                         _______ _______ _______ _____ _____    ______ ____
ROOT
ATOM      1  C   UNL     1       3.253   6.766  17.550  0.00  0.00    +0.000 C 
ENDROOT
BRANCH   1   2
ATOM      2  C   UNL     1       2.672   5.767  18.579  0.00  0.00    +0.000 A 
ATOM      3  C   UNL     1       2.357   6.321  19.856  0.00  0.00    +0.000 A 
ATOM      4  C   UNL     1       1.669   5.598  20.839  0.00  0.00    +0.000 A 
ATOM      5  C   UNL     1       1.116   4.378  20.481  0.00  0.00    +0.000 A 
ATOM      6  C   UNL     1       1.379   3.849  19.249  0.00  0.00    +0.000 A 
ATOM      7  C   UNL     1       0.736   2.648  18.951  0.00  0.00    +0.000 A 
ATOM      8  C   UNL     1       1.591   1.635  18.622  0.00  0.00    +0.000 A 
ATOM      9  C   UNL     1       2.672   1.968  17.828  0.00  0.00    +0.000 A 
ATOM     10  C   UNL     1       2.979   3.341  17.580  0.00  0.00    +0.000 A 
ATOM     11  C   UNL     1       2.356   4.369  18.380  0.00  0.00    +0.000 A 
ENDBRANCH   1   2
BRANCH   1  12
ATOM     12  C   UNL     1       4.695   6.389  17.069  0.00  0.00    +0.000 A 
ATOM     13  C   UNL     1       4.898   5.736  15.835  0.00  0.00    +0.000 A 
ATOM     14  C   UNL     1       6.188   5.368  15.409  0.00  0.00    +0.000 A 
ATOM     15  C   UNL     1       7.294   5.618  16.205  0.00  0.00    +0.000 A 
ATOM     16  C   UNL     1       7.122   6.262  17.432  0.00  0.00    +0.000 A 
ATOM     17  C   UNL     1       5.835   6.647  17.855  0.00  0.00    +0.000 A 
ENDBRANCH   1  12
BRANCH   1  20
ATOM     18  O   UNL     1       1.161   8.705  17.336  0.00  0.00    +0.000 OA
ATOM     19  C   UNL     1       2.216   9.005  17.890  0.00  0.00    +0.000 C 
ATOM     20  N   UNL     1       3.273   8.136  18.022  0.00  0.00    +0.000 N 
ATOM     21  H   UNL     1       4.137   8.452  18.427  0.00  0.00    +0.000 HD
BRANCH  19  22
ATOM     22  C   UNL     1       2.332  10.364  18.509  0.00  0.00    +0.000 C 
ATOM     23  C   UNL     1       2.134  11.645  17.731  0.00  0.00    +0.000 C 
ATOM     24  C   UNL     1       1.172  11.300  18.846  0.00  0.00    +0.000 C 
ATOM     25  C   UNL     1       1.245  12.161  20.103  0.00  0.00    +0.000 C 
ATOM     26  C   UNL     1       0.433  11.531  21.237  0.00  0.00    +0.000 C 
ATOM     27  O   UNL     1      -0.912  11.267  20.823  0.00  0.00    +0.000 OA
ATOM     28  C   UNL     1      -0.945  10.348  19.724  0.00  0.00    +0.000 C 
ATOM     29  C   UNL     1      -0.264  10.966  18.504  0.00  0.00    +0.000 C 
ENDBRANCH  19  22
ENDBRANCH   1  20
TORSDOF 4
ENDMDL
MODEL 4
REMARK VINA RESULT:      -8.3      1.813      4.456
REMARK  Name = 
REMARK  4 active torsions:
REMARK  status: ('A' for Active; 'I' for Inactive)
REMARK    1  A    between atoms: C_2  and  C_21
REMARK    2  A    between atoms: N_3  and  C_4
REMARK    3  A    between atoms: C_4  and  C_5
REMARK    4  A    between atoms: C_4  and  C_11
REMARK                            x       y       z     vdW  Elec       q    Type
REMARK                         _______ _______ _______ _____ _____    ______ ____
ROOT
ATOM      1  C   UNL     1       3.590   6.612  17.871  0.00  0.00    +0.000 C 
ENDROOT
BRANCH   1   2
ATOM      2  C   UNL     1       2.862   5.606  18.796  0.00  0.00    +0.000 A 
ATOM      3  C   UNL     1       2.409   6.139  20.039  0.00  0.00    +0.000 A 
ATOM      4  C   UNL     1       1.588   5.413  20.912  0.00  0.00    +0.000 A 
ATOM      5  C   UNL     1       1.052   4.218  20.457  0.00  0.00    +0.000 A 
ATOM      6  C   UNL     1       1.450   3.710  19.253  0.00  0.00    +0.000 A 
ATOM      7  C   UNL     1       0.817   2.535  18.847  0.00  0.00    +0.000 A 
ATOM      8  C   UNL     1       1.680   1.507  18.597  0.00  0.00    +0.000 A 
ATOM      9  C   UNL     1       2.858   1.827  17.948  0.00  0.00    +0.000 A 
ATOM     10  C   UNL     1       3.228   3.197  17.777  0.00  0.00    +0.000 A 
ATOM     11  C   UNL     1       2.537   4.222  18.522  0.00  0.00    +0.000 A 
ENDBRANCH   1   2
BRANCH   1  12
ATOM     12  C   UNL     1       5.148   6.573  18.019  0.00  0.00    +0.000 A 
ATOM     13  C   UNL     1       5.765   5.700  18.939  0.00  0.00    +0.000 A 
ATOM     14  C   UNL     1       7.162   5.678  19.099  0.00  0.00    +0.000 A 
ATOM     15  C   UNL     1       7.971   6.536  18.370  0.00  0.00    +0.000 A 
ATOM     16  C   UNL     1       7.387   7.412  17.454  0.00  0.00    +0.000 A 
ATOM     17  C   UNL     1       5.989   7.425  17.278  0.00  0.00    +0.000 A 
ENDBRANCH   1  12
BRANCH   1  20
ATOM     18  O   UNL     1       0.985   7.675  17.352  0.00  0.00    +0.000 OA
ATOM     19  C   UNL     1       1.868   8.411  17.784  0.00  0.00    +0.000 C 
ATOM     20  N   UNL     1       3.148   7.981  18.047  0.00  0.00    +0.000 N 
ATOM     21  H   UNL     1       3.850   8.639  18.338  0.00  0.00    +0.000 HD
BRANCH  19  22
ATOM     22  C   UNL     1       1.518   9.833  18.101  0.00  0.00    +0.000 C 
ATOM     23  C   UNL     1       0.154  10.425  17.832  0.00  0.00    +0.000 C 
ATOM     24  C   UNL     1       0.639  10.304  19.259  0.00  0.00    +0.000 C 
ATOM     25  C   UNL     1       0.983  11.605  19.977  0.00  0.00    +0.000 C 
ATOM     26  C   UNL     1       1.722  11.321  21.286  0.00  0.00    +0.000 C 
ATOM     27  O   UNL     1       0.981  10.412  22.109  0.00  0.00    +0.000 OA
ATOM     28  C   UNL     1       0.794   9.152  21.452  0.00  0.00    +0.000 C 
ATOM     29  C   UNL     1      -0.054   9.339  20.195  0.00  0.00    +0.000 C 
ENDBRANCH  19  22
ENDBRANCH   1  20
TORSDOF 4
ENDMDL
MODEL 5
REMARK VINA RESULT:      -7.9      1.798      3.003
REMARK  Name = 
REMARK  4 active torsions:
REMARK  status: ('A' for Active; 'I' for Inactive)
REMARK    1  A    between atoms: C_2  and  C_21
REMARK    2  A    between atoms: N_3  and  C_4
REMARK    3  A    between atoms: C_4  and  C_5
REMARK    4  A    between atoms: C_4  and  C_11
REMARK                            x       y       z     vdW  Elec       q    Type
REMARK                         _______ _______ _______ _____ _____    ______ ____
ROOT
ATOM      1  C   UNL     1       2.312   6.464  20.229  0.00  0.00    +0.000 C 
ENDROOT
BRANCH   1   2
ATOM      2  C   UNL     1       2.984   6.597  18.841  0.00  0.00    +0.000 A 
ATOM      3  C   UNL     1       2.788   7.850  18.186  0.00  0.00    +0.000 A 
ATOM      4  C   UNL     1       3.465   8.196  17.010  0.00  0.00    +0.000 A 
ATOM      5  C   UNL     1       4.492   7.368  16.583  0.00  0.00    +0.000 A 
ATOM      6  C   UNL     1       4.715   6.180  17.220  0.00  0.00    +0.000 A 
ATOM      7  C   UNL     1       5.804   5.438  16.764  0.00  0.00    +0.000 A 
ATOM      8  C   UNL     1       5.476   4.176  16.357  0.00  0.00    +0.000 A 
ATOM      9  C   UNL     1       4.547   3.498  17.124  0.00  0.00    +0.000 A 
ATOM     10  C   UNL     1       3.816   4.191  18.137  0.00  0.00    +0.000 A 
ATOM     11  C   UNL     1       3.828   5.634  18.167  0.00  0.00    +0.000 A 
ENDBRANCH   1   2
BRANCH   1  12
ATOM     12  C   UNL     1       1.899   4.994  20.578  0.00  0.00    +0.000 A 
ATOM     13  C   UNL     1       2.553   4.284  21.605  0.00  0.00    +0.000 A 
ATOM     14  C   UNL     1       2.208   2.954  21.906  0.00  0.00    +0.000 A 
ATOM     15  C   UNL     1       1.227   2.296  21.181  0.00  0.00    +0.000 A 
ATOM     16  C   UNL     1       0.565   2.975  20.156  0.00  0.00    +0.000 A 
ATOM     17  C   UNL     1       0.895   4.312  19.863  0.00  0.00    +0.000 A 
ENDBRANCH   1  12
BRANCH   1  20
ATOM     18  O   UNL     1       1.958   8.569  22.133  0.00  0.00    +0.000 OA
ATOM     19  C   UNL     1       1.063   8.318  21.330  0.00  0.00    +0.000 C 
ATOM     20  N   UNL     1       1.151   7.316  20.392  0.00  0.00    +0.000 N 
ATOM     21  H   UNL     1       0.364   7.110  19.800  0.00  0.00    +0.000 HD
BRANCH  19  22
ATOM     22  C   UNL     1      -0.156   9.188  21.328  0.00  0.00    +0.000 C 
ATOM     23  C   UNL     1      -0.433  10.221  22.396  0.00  0.00    +0.000 C 
ATOM     24  C   UNL     1      -0.199  10.674  20.972  0.00  0.00    +0.000 C 
ATOM     25  C   UNL     1      -1.405  11.229  20.222  0.00  0.00    +0.000 C 
ATOM     26  C   UNL     1      -1.096  11.374  18.731  0.00  0.00    +0.000 C 
ATOM     27  O   UNL     1       0.090  12.150  18.524  0.00  0.00    +0.000 OA
ATOM     28  C   UNL     1       1.229  11.525  19.129  0.00  0.00    +0.000 C 
ATOM     29  C   UNL     1       1.049  11.465  20.645  0.00  0.00    +0.000 C 
ENDBRANCH  19  22
ENDBRANCH   1  20
TORSDOF 4
ENDMDL
MODEL 6
REMARK VINA RESULT:      -7.8      5.403      8.347
REMARK  Name = 
REMARK  4 active torsions:
REMARK  status: ('A' for Active; 'I' for Inactive)
REMARK    1  A    between atoms: C_2  and  C_21
REMARK    2  A    between atoms: N_3  and  C_4
REMARK    3  A    between atoms: C_4  and  C_5
REMARK    4  A    between atoms: C_4  and  C_11
REMARK                            x       y       z     vdW  Elec       q    Type
REMARK                         _______ _______ _______ _____ _____    ______ ____
ROOT
ATOM      1  C   UNL     1      -1.957  12.657  19.665  0.00  0.00    +0.000 C 
ENDROOT
BRANCH   1   2
ATOM      2  C   UNL     1      -1.267  11.727  20.693  0.00  0.00    +0.000 A 
ATOM      3  C   UNL     1      -1.560  12.008  22.061  0.00  0.00    +0.000 A 
ATOM      4  C   UNL     1      -1.158  11.162  23.103  0.00  0.00    +0.000 A 
ATOM      5  C   UNL     1      -0.627   9.925  22.769  0.00  0.00    +0.000 A 
ATOM      6  C   UNL     1      -0.372   9.627  21.460  0.00  0.00    +0.000 A 
ATOM      7  C   UNL     1       0.106   8.342  21.209  0.00  0.00    +0.000 A 
ATOM      8  C   UNL     1       1.305   8.320  20.556  0.00  0.00    +0.000 A 
ATOM      9  C   UNL     1       1.480   9.250  19.548  0.00  0.00    +0.000 A 
ATOM     10  C   UNL     1       0.537  10.311  19.384  0.00  0.00    +0.000 A 
ATOM     11  C   UNL     1      -0.421  10.583  20.428  0.00  0.00    +0.000 A 
ENDBRANCH   1   2
BRANCH   1  12
ATOM     12  C   UNL     1      -2.633  11.881  18.485  0.00  0.00    +0.000 A 
ATOM     13  C   UNL     1      -3.991  11.505  18.551  0.00  0.00    +0.000 A 
ATOM     14  C   UNL     1      -4.598  10.783  17.508  0.00  0.00    +0.000 A 
ATOM     15  C   UNL     1      -3.869  10.399  16.394  0.00  0.00    +0.000 A 
ATOM     16  C   UNL     1      -2.522  10.755  16.304  0.00  0.00    +0.000 A 
ATOM     17  C   UNL     1      -1.913  11.493  17.338  0.00  0.00    +0.000 A 
ENDBRANCH   1  12
BRANCH   1  20
ATOM     18  O   UNL     1      -1.619  15.360  20.539  0.00  0.00    +0.000 OA
ATOM     19  C   UNL     1      -0.957  14.938  19.593  0.00  0.00    +0.000 C 
ATOM     20  N   UNL     1      -1.070  13.657  19.106  0.00  0.00    +0.000 N 
ATOM     21  H   UNL     1      -0.552  13.382  18.289  0.00  0.00    +0.000 HD
BRANCH  19  22
ATOM     22  C   UNL     1       0.069  15.843  18.983  0.00  0.00    +0.000 C 
ATOM     23  C   UNL     1       0.632  17.050  19.696  0.00  0.00    +0.000 C 
ATOM     24  C   UNL     1       1.550  15.899  19.352  0.00  0.00    +0.000 C 
ATOM     25  C   UNL     1       2.585  16.151  18.260  0.00  0.00    +0.000 C 
ATOM     26  C   UNL     1       3.238  14.839  17.821  0.00  0.00    +0.000 C 
ATOM     27  O   UNL     1       3.778  14.132  18.943  0.00  0.00    +0.000 OA
ATOM     28  C   UNL     1       2.752  13.794  19.885  0.00  0.00    +0.000 C 
ATOM     29  C   UNL     1       2.139  15.065  20.469  0.00  0.00    +0.000 C 
ENDBRANCH  19  22
ENDBRANCH   1  20
TORSDOF 4
ENDMDL
MODEL 7
REMARK VINA RESULT:      -7.8      2.960      8.486
REMARK  Name = 
REMARK  4 active torsions:
REMARK  status: ('A' for Active; 'I' for Inactive)
REMARK    1  A    between atoms: C_2  and  C_21
REMARK    2  A    between atoms: N_3  and  C_4
REMARK    3  A    between atoms: C_4  and  C_5
REMARK    4  A    between atoms: C_4  and  C_11
REMARK                            x       y       z     vdW  Elec       q    Type
REMARK                         _______ _______ _______ _____ _____    ______ ____
ROOT
ATOM      1  C   UNL     1      -0.431  10.357  18.492  0.00  0.00    +0.000 C 
ENDROOT
BRANCH   1   2
ATOM      2  C   UNL     1      -0.682  10.362  20.020  0.00  0.00    +0.000 A 
ATOM      3  C   UNL     1      -0.306   9.167  20.704  0.00  0.00    +0.000 A 
ATOM      4  C   UNL     1      -0.307   9.071  22.101  0.00  0.00    +0.000 A 
ATOM      5  C   UNL     1      -0.497  10.234  22.833  0.00  0.00    +0.000 A 
ATOM      6  C   UNL     1      -0.824  11.394  22.191  0.00  0.00    +0.000 A 
ATOM      7  C   UNL     1      -0.939  12.526  22.997  0.00  0.00    +0.000 A 
ATOM      8  C   UNL     1      -2.156  13.140  22.910  0.00  0.00    +0.000 A 
ATOM      9  C   UNL     1      -2.723  13.220  21.652  0.00  0.00    +0.000 A 
ATOM     10  C   UNL     1      -2.156  12.485  20.566  0.00  0.00    +0.000 A 
ATOM     11  C   UNL     1      -1.189  11.447  20.833  0.00  0.00    +0.000 A 
ENDBRANCH   1   2
BRANCH   1  12
ATOM     12  C   UNL     1      -1.744  10.490  17.650  0.00  0.00    +0.000 A 
ATOM     13  C   UNL     1      -1.958   9.687  16.510  0.00  0.00    +0.000 A 
ATOM     14  C   UNL     1      -3.122   9.821  15.731  0.00  0.00    +0.000 A 
ATOM     15  C   UNL     1      -4.083  10.766  16.052  0.00  0.00    +0.000 A 
ATOM     16  C   UNL     1      -3.897  11.576  17.174  0.00  0.00    +0.000 A 
ATOM     17  C   UNL     1      -2.741  11.434  17.966  0.00  0.00    +0.000 A 
ENDBRANCH   1  12
BRANCH   1  20
ATOM     18  O   UNL     1       2.387  10.116  18.065  0.00  0.00    +0.000 OA
ATOM     19  C   UNL     1       1.655   9.150  17.861  0.00  0.00    +0.000 C 
ATOM     20  N   UNL     1       0.291   9.188  18.030  0.00  0.00    +0.000 N 
ATOM     21  H   UNL     1      -0.269   8.389  17.788  0.00  0.00    +0.000 HD
BRANCH  19  22
ATOM     22  C   UNL     1       2.286   7.849  17.470  0.00  0.00    +0.000 C 
ATOM     23  C   UNL     1       3.769   7.582  17.595  0.00  0.00    +0.000 C 
ATOM     24  C   UNL     1       2.799   6.776  18.429  0.00  0.00    +0.000 C 
ATOM     25  C   UNL     1       2.637   5.305  18.062  0.00  0.00    +0.000 C 
ATOM     26  C   UNL     1       1.436   4.695  18.785  0.00  0.00    +0.000 C 
ATOM     27  O   UNL     1       1.524   4.906  20.199  0.00  0.00    +0.000 OA
ATOM     28  C   UNL     1       1.538   6.304  20.514  0.00  0.00    +0.000 C 
ATOM     29  C   UNL     1       2.788   6.960  19.931  0.00  0.00    +0.000 C 
ENDBRANCH  19  22
ENDBRANCH   1  20
TORSDOF 4
ENDMDL
MODEL 8
REMARK VINA RESULT:      -7.8      6.382     10.182
REMARK  Name = 
REMARK  4 active torsions:
REMARK  status: ('A' for Active; 'I' for Inactive)
REMARK    1  A    between atoms: C_2  and  C_21
REMARK    2  A    between atoms: N_3  and  C_4
REMARK    3  A    between atoms: C_4  and  C_5
REMARK    4  A    between atoms: C_4  and  C_11
REMARK                            x       y       z     vdW  Elec       q    Type
REMARK                         _______ _______ _______ _____ _____    ______ ____
ROOT
ATOM      1  C   UNL     1      -2.478  13.040  22.032  0.00  0.00    +0.000 C 
ENDROOT
BRANCH   1   2
ATOM      2  C   UNL     1      -1.403  11.939  21.864  0.00  0.00    +0.000 A 
ATOM      3  C   UNL     1      -1.245  11.066  22.982  0.00  0.00    +0.000 A 
ATOM      4  C   UNL     1      -0.442   9.919  22.930  0.00  0.00    +0.000 A 
ATOM      5  C   UNL     1       0.055   9.528  21.696  0.00  0.00    +0.000 A 
ATOM      6  C   UNL     1      -0.117  10.337  20.608  0.00  0.00    +0.000 A 
ATOM      7  C   UNL     1       0.363   9.840  19.397  0.00  0.00    +0.000 A 
ATOM      8  C   UNL     1       1.272  10.660  18.790  0.00  0.00    +0.000 A 
ATOM      9  C   UNL     1       1.015  12.017  18.840  0.00  0.00    +0.000 A 
ATOM     10  C   UNL     1      -0.021  12.516  19.688  0.00  0.00    +0.000 A 
ATOM     11  C   UNL     1      -0.594  11.657  20.697  0.00  0.00    +0.000 A 
ENDBRANCH   1   2
BRANCH   1  12
ATOM     12  C   UNL     1      -2.190  14.008  23.229  0.00  0.00    +0.000 A 
ATOM     13  C   UNL     1      -3.024  14.019  24.367  0.00  0.00    +0.000 A 
ATOM     14  C   UNL     1      -2.789  14.905  25.434  0.00  0.00    +0.000 A 
ATOM     15  C   UNL     1      -1.741  15.809  25.385  0.00  0.00    +0.000 A 
ATOM     16  C   UNL     1      -0.901  15.821  24.270  0.00  0.00    +0.000 A 
ATOM     17  C   UNL     1      -1.122  14.925  23.207  0.00  0.00    +0.000 A 
ENDBRANCH   1  12
BRANCH   1  20
ATOM     18  O   UNL     1      -4.904  14.183  21.035  0.00  0.00    +0.000 OA
ATOM     19  C   UNL     1      -4.940  13.124  21.658  0.00  0.00    +0.000 C 
ATOM     20  N   UNL     1      -3.821  12.517  22.180  0.00  0.00    +0.000 N 
ATOM     21  H   UNL     1      -3.914  11.686  22.737  0.00  0.00    +0.000 HD
BRANCH  19  22
ATOM     22  C   UNL     1      -6.258  12.427  21.801  0.00  0.00    +0.000 C 
ATOM     23  C   UNL     1      -7.578  13.086  21.472  0.00  0.00    +0.000 C 
ATOM     24  C   UNL     1      -7.121  11.896  20.658  0.00  0.00    +0.000 C 
ATOM     25  C   UNL     1      -7.898  10.597  20.848  0.00  0.00    +0.000 C 
ATOM     26  C   UNL     1      -7.161   9.426  20.194  0.00  0.00    +0.000 C 
ATOM     27  O   UNL     1      -6.871   9.703  18.819  0.00  0.00    +0.000 OA
ATOM     28  C   UNL     1      -6.027  10.853  18.689  0.00  0.00    +0.000 C 
ATOM     29  C   UNL     1      -6.752  12.096  19.204  0.00  0.00    +0.000 C 
ENDBRANCH  19  22
ENDBRANCH   1  20
TORSDOF 4
ENDMDL
MODEL 9
REMARK VINA RESULT:      -7.7      2.804      9.075
REMARK  Name = 
REMARK  4 active torsions:
REMARK  status: ('A' for Active; 'I' for Inactive)
REMARK    1  A    between atoms: C_2  and  C_21
REMARK    2  A    between atoms: N_3  and  C_4
REMARK    3  A    between atoms: C_4  and  C_5
REMARK    4  A    between atoms: C_4  and  C_11
REMARK                            x       y       z     vdW  Elec       q    Type
REMARK                         _______ _______ _______ _____ _____    ______ ____
ROOT
ATOM      1  C   UNL     1       0.062  10.284  19.043  0.00  0.00    +0.000 C 
ENDROOT
BRANCH   1   2
ATOM      2  C   UNL     1      -1.281  10.669  18.375  0.00  0.00    +0.000 A 
ATOM      3  C   UNL     1      -1.444  10.220  17.030  0.00  0.00    +0.000 A 
ATOM      4  C   UNL     1      -2.659  10.334  16.343  0.00  0.00    +0.000 A 
ATOM      5  C   UNL     1      -3.779  10.720  17.063  0.00  0.00    +0.000 A 
ATOM      6  C   UNL     1      -3.646  11.121  18.362  0.00  0.00    +0.000 A 
ATOM      7  C   UNL     1      -4.830  11.437  19.027  0.00  0.00    +0.000 A 
ATOM      8  C   UNL     1      -4.852  12.704  19.537  0.00  0.00    +0.000 A 
ATOM      9  C   UNL     1      -3.682  13.162  20.112  0.00  0.00    +0.000 A 
ATOM     10  C   UNL     1      -2.471  12.420  19.954  0.00  0.00    +0.000 A 
ATOM     11  C   UNL     1      -2.401  11.367  18.969  0.00  0.00    +0.000 A 
ENDBRANCH   1   2
BRANCH   1  12
ATOM     12  C   UNL     1       1.014  11.507  19.264  0.00  0.00    +0.000 A 
ATOM     13  C   UNL     1       1.073  12.161  20.512  0.00  0.00    +0.000 A 
ATOM     14  C   UNL     1       1.905  13.278  20.712  0.00  0.00    +0.000 A 
ATOM     15  C   UNL     1       2.675  13.780  19.675  0.00  0.00    +0.000 A 
ATOM     16  C   UNL     1       2.635  13.153  18.428  0.00  0.00    +0.000 A 
ATOM     17  C   UNL     1       1.816  12.025  18.229  0.00  0.00    +0.000 A 
ENDBRANCH   1  12
BRANCH   1  20
ATOM     18  O   UNL     1       1.814   8.307  20.139  0.00  0.00    +0.000 OA
ATOM     19  C   UNL     1       1.610   8.336  18.929  0.00  0.00    +0.000 C 
ATOM     20  N   UNL     1       0.792   9.260  18.323  0.00  0.00    +0.000 N 
ATOM     21  H   UNL     1       0.709   9.279  17.321  0.00  0.00    +0.000 HD
BRANCH  19  22
ATOM     22  C   UNL     1       2.230   7.271  18.077  0.00  0.00    +0.000 C 
ATOM     23  C   UNL     1       3.711   6.968  18.084  0.00  0.00    +0.000 C 
ATOM     24  C   UNL     1       2.739   5.914  18.564  0.00  0.00    +0.000 C 
ATOM     25  C   UNL     1       2.565   4.687  17.676  0.00  0.00    +0.000 C 
ATOM     26  C   UNL     1       1.362   3.858  18.128  0.00  0.00    +0.000 C 
ATOM     27  O   UNL     1       1.458   3.526  19.518  0.00  0.00    +0.000 OA
ATOM     28  C   UNL     1       1.482   4.706  20.331  0.00  0.00    +0.000 C 
ATOM     29  C   UNL     1       2.735   5.525  20.027  0.00  0.00    +0.000 C 
ENDBRANCH  19  22
ENDBRANCH   1  20
TORSDOF 4
ENDMDL
