MODEL 1
REMARK VINA RESULT:      -9.3      0.000      0.000
REMARK  Name = 
REMARK  4 active torsions:
REMARK  status: ('A' for Active; 'I' for Inactive)
REMARK    1  A    between atoms: C_2  and  C_18
REMARK    2  A    between atoms: N_3  and  C_4
REMARK    3  A    between atoms: C_9  and  C_10
REMARK    4  A    between atoms: C_22  and  C_23
REMARK                            x       y       z     vdW  Elec       q    Type
REMARK                         _______ _______ _______ _____ _____    ______ ____
ROOT
ATOM      1  O   UNL     1       1.446   4.806  18.672  0.00  0.00    +0.000 OA
ATOM      2  C   UNL     1       2.387   5.027  19.427  0.00  0.00    +0.000 C 
ATOM      3  N   UNL     1       2.702   6.238  20.023  0.00  0.00    +0.000 N 
ATOM      4  H   UNL     1       3.575   6.272  20.531  0.00  0.00    +0.000 HD
ENDROOT
BRANCH   3   5
ATOM      5  C   UNL     1       2.050   7.476  19.817  0.00  0.00    +0.000 A 
ATOM      6  C   UNL     1       2.125   8.184  18.611  0.00  0.00    +0.000 A 
ATOM      7  C   UNL     1       1.534   9.443  18.450  0.00  0.00    +0.000 A 
ATOM      8  C   UNL     1       0.857   9.957  19.550  0.00  0.00    +0.000 A 
ATOM      9  N   UNL     1       0.207  11.142  19.754  0.00  0.00    +0.000 N 
ATOM     10  C   UNL     1      -0.308  11.143  21.028  0.00  0.00    +0.000 A 
ATOM     11  N   UNL     1      -0.008  10.021  21.654  0.00  0.00    +0.000 NA
ATOM     12  C   UNL     1       0.724   9.278  20.753  0.00  0.00    +0.000 A 
ATOM     13  C   UNL     1       1.319   8.012  20.892  0.00  0.00    +0.000 A 
ATOM     14  H   UNL     1       0.111  11.909  19.102  0.00  0.00    +0.000 HD
BRANCH  10  15
ATOM     15  C   UNL     1      -1.089  12.302  21.546  0.00  0.00    +0.000 C 
ATOM     16  C   UNL     1      -1.588  12.088  22.962  0.00  0.00    +0.000 C 
ATOM     17  C   UNL     1      -2.851  12.911  22.981  0.00  0.00    +0.000 C 
ATOM     18  C   UNL     1      -3.390  12.713  21.581  0.00  0.00    +0.000 C 
ATOM     19  O   UNL     1      -2.267  12.467  20.722  0.00  0.00    +0.000 OA
ENDBRANCH  10  15
ENDBRANCH   3   5
BRANCH   2  20
ATOM     20  C   UNL     1       3.334   3.969  19.743  0.00  0.00    +0.000 A 
ATOM     21  C   UNL     1       3.129   2.927  20.629  0.00  0.00    +0.000 A 
ATOM     22  N   UNL     1       4.232   2.137  20.539  0.00  0.00    +0.000 N 
ATOM     23  N   UNL     1       5.171   2.620  19.722  0.00  0.00    +0.000 NA
ATOM     24  C   UNL     1       4.640   3.737  19.192  0.00  0.00    +0.000 A 
ATOM     25  H   UNL     1       4.415   1.256  21.009  0.00  0.00    +0.000 HD
BRANCH  24  26
ATOM     26  C   UNL     1       5.410   4.549  18.245  0.00  0.00    +0.000 A 
ATOM     27  C   UNL     1       5.136   4.527  16.872  0.00  0.00    +0.000 A 
ATOM     28  F   UNL     1       4.126   3.796  16.373  0.00  0.00    +0.000 F 
ATOM     29  C   UNL     1       5.897   5.267  15.960  0.00  0.00    +0.000 A 
ATOM     30  C   UNL     1       6.942   6.070  16.408  0.00  0.00    +0.000 A 
ATOM     31  C   UNL     1       7.230   6.111  17.769  0.00  0.00    +0.000 A 
ATOM     32  C   UNL     1       6.483   5.342  18.666  0.00  0.00    +0.000 A 
ATOM     33  F   UNL     1       6.869   5.354  19.951  0.00  0.00    +0.000 F 
ENDBRANCH  24  26
ENDBRANCH   2  20
TORSDOF 4
ENDMDL
MODEL 2
REMARK VINA RESULT:      -9.3      0.186      1.521
REMARK  Name = 
REMARK  4 active torsions:
REMARK  status: ('A' for Active; 'I' for Inactive)
REMARK    1  A    between atoms: C_2  and  C_18
REMARK    2  A    between atoms: N_3  and  C_4
REMARK    3  A    between atoms: C_9  and  C_10
REMARK    4  A    between atoms: C_22  and  C_23
REMARK                            x       y       z     vdW  Elec       q    Type
REMARK                         _______ _______ _______ _____ _____    ______ ____
ROOT
ATOM      1  O   UNL     1       1.747   5.030  18.255  0.00  0.00    +0.000 OA
ATOM      2  C   UNL     1       2.488   5.153  19.224  0.00  0.00    +0.000 C 
ATOM      3  N   UNL     1       2.612   6.272  20.032  0.00  0.00    +0.000 N 
ATOM      4  H   UNL     1       3.349   6.245  20.723  0.00  0.00    +0.000 HD
ENDROOT
BRANCH   3   5
ATOM      5  C   UNL     1       1.969   7.520  19.853  0.00  0.00    +0.000 A 
ATOM      6  C   UNL     1       2.078   8.269  18.676  0.00  0.00    +0.000 A 
ATOM      7  C   UNL     1       1.495   9.535  18.543  0.00  0.00    +0.000 A 
ATOM      8  C   UNL     1       0.791  10.014  19.643  0.00  0.00    +0.000 A 
ATOM      9  N   UNL     1       0.139  11.193  19.873  0.00  0.00    +0.000 N 
ATOM     10  C   UNL     1      -0.408  11.151  21.132  0.00  0.00    +0.000 A 
ATOM     11  N   UNL     1      -0.128  10.006  21.725  0.00  0.00    +0.000 NA
ATOM     12  C   UNL     1       0.625   9.293  20.818  0.00  0.00    +0.000 A 
ATOM     13  C   UNL     1       1.212   8.020  20.927  0.00  0.00    +0.000 A 
ATOM     14  H   UNL     1       0.063  11.983  19.246  0.00  0.00    +0.000 HD
BRANCH  10  15
ATOM     15  C   UNL     1      -1.199  12.294  21.670  0.00  0.00    +0.000 C 
ATOM     16  C   UNL     1      -1.784  12.010  23.040  0.00  0.00    +0.000 C 
ATOM     17  C   UNL     1      -3.032  12.857  23.034  0.00  0.00    +0.000 C 
ATOM     18  C   UNL     1      -3.490  12.749  21.596  0.00  0.00    +0.000 C 
ATOM     19  O   UNL     1      -2.323  12.530  20.790  0.00  0.00    +0.000 OA
ENDBRANCH  10  15
ENDBRANCH   3   5
BRANCH   2  20
ATOM     20  C   UNL     1       3.386   4.073  19.600  0.00  0.00    +0.000 A 
ATOM     21  C   UNL     1       3.105   3.047  20.483  0.00  0.00    +0.000 A 
ATOM     22  N   UNL     1       4.187   2.225  20.459  0.00  0.00    +0.000 N 
ATOM     23  N   UNL     1       5.182   2.672  19.689  0.00  0.00    +0.000 NA
ATOM     24  C   UNL     1       4.712   3.798  19.121  0.00  0.00    +0.000 A 
ATOM     25  H   UNL     1       4.320   1.344  20.946  0.00  0.00    +0.000 HD
BRANCH  24  26
ATOM     26  C   UNL     1       5.554   4.578  18.209  0.00  0.00    +0.000 A 
ATOM     27  C   UNL     1       6.596   5.383  18.684  0.00  0.00    +0.000 A 
ATOM     28  F   UNL     1       6.896   5.438  19.991  0.00  0.00    +0.000 F 
ATOM     29  C   UNL     1       7.374   6.163  17.819  0.00  0.00    +0.000 A 
ATOM     30  C   UNL     1       7.139   6.134  16.448  0.00  0.00    +0.000 A 
ATOM     31  C   UNL     1       6.110   5.338  15.952  0.00  0.00    +0.000 A 
ATOM     32  C   UNL     1       5.321   4.589  16.828  0.00  0.00    +0.000 A 
ATOM     33  F   UNL     1       4.288   3.915  16.299  0.00  0.00    +0.000 F 
ENDBRANCH  24  26
ENDBRANCH   2  20
TORSDOF 4
ENDMDL
MODEL 3
REMARK VINA RESULT:      -9.1      0.985      1.977
REMARK  Name = 
REMARK  4 active torsions:
REMARK  status: ('A' for Active; 'I' for Inactive)
REMARK    1  A    between atoms: C_2  and  C_18
REMARK    2  A    between atoms: N_3  and  C_4
REMARK    3  A    between atoms: C_9  and  C_10
REMARK    4  A    between atoms: C_22  and  C_23
REMARK                            x       y       z     vdW  Elec       q    Type
REMARK                         _______ _______ _______ _____ _____    ______ ____
ROOT
ATOM      1  O   UNL     1       1.549   4.853  18.464  0.00  0.00    +0.000 OA
ATOM      2  C   UNL     1       2.442   5.062  19.278  0.00  0.00    +0.000 C 
ATOM      3  N   UNL     1       2.742   6.272  19.882  0.00  0.00    +0.000 N 
ATOM      4  H   UNL     1       3.580   6.294  20.448  0.00  0.00    +0.000 HD
ENDROOT
BRANCH   3   5
ATOM      5  C   UNL     1       2.133   7.522  19.621  0.00  0.00    +0.000 A 
ATOM      6  C   UNL     1       2.191   8.151  18.372  0.00  0.00    +0.000 A 
ATOM      7  C   UNL     1       1.645   9.421  18.152  0.00  0.00    +0.000 A 
ATOM      8  C   UNL     1       1.029  10.029  19.241  0.00  0.00    +0.000 A 
ATOM      9  N   UNL     1       0.434  11.251  19.393  0.00  0.00    +0.000 N 
ATOM     10  C   UNL     1      -0.033  11.351  20.681  0.00  0.00    +0.000 A 
ATOM     11  N   UNL     1       0.246  10.257  21.365  0.00  0.00    +0.000 NA
ATOM     12  C   UNL     1       0.914   9.431  20.488  0.00  0.00    +0.000 A 
ATOM     13  C   UNL     1       1.463   8.152  20.686  0.00  0.00    +0.000 A 
ATOM     14  H   UNL     1       0.345  11.979  18.698  0.00  0.00    +0.000 HD
BRANCH  10  15
ATOM     15  C   UNL     1      -0.748  12.571  21.152  0.00  0.00    +0.000 C 
ATOM     16  C   UNL     1      -0.900  13.618  20.065  0.00  0.00    +0.000 C 
ATOM     17  C   UNL     1      -0.919  14.899  20.860  0.00  0.00    +0.000 C 
ATOM     18  C   UNL     1       0.059  14.604  21.976  0.00  0.00    +0.000 C 
ATOM     19  O   UNL     1       0.036  13.186  22.201  0.00  0.00    +0.000 OA
ENDBRANCH  10  15
ENDBRANCH   3   5
BRANCH   2  20
ATOM     20  C   UNL     1       3.343   3.988  19.666  0.00  0.00    +0.000 A 
ATOM     21  C   UNL     1       3.074   2.989  20.584  0.00  0.00    +0.000 A 
ATOM     22  N   UNL     1       4.153   2.161  20.562  0.00  0.00    +0.000 N 
ATOM     23  N   UNL     1       5.134   2.581  19.760  0.00  0.00    +0.000 NA
ATOM     24  C   UNL     1       4.658   3.693  19.170  0.00  0.00    +0.000 A 
ATOM     25  H   UNL     1       4.291   1.294  21.072  0.00  0.00    +0.000 HD
BRANCH  24  26
ATOM     26  C   UNL     1       5.484   4.442  18.219  0.00  0.00    +0.000 A 
ATOM     27  C   UNL     1       6.532   5.265  18.651  0.00  0.00    +0.000 A 
ATOM     28  F   UNL     1       6.852   5.364  19.951  0.00  0.00    +0.000 F 
ATOM     29  C   UNL     1       7.296   6.015  17.749  0.00  0.00    +0.000 A 
ATOM     30  C   UNL     1       7.040   5.939  16.383  0.00  0.00    +0.000 A 
ATOM     31  C   UNL     1       6.006   5.126  15.930  0.00  0.00    +0.000 A 
ATOM     32  C   UNL     1       5.231   4.407  16.843  0.00  0.00    +0.000 A 
ATOM     33  F   UNL     1       4.191   3.714  16.352  0.00  0.00    +0.000 F 
ENDBRANCH  24  26
ENDBRANCH   2  20
TORSDOF 4
ENDMDL
MODEL 4
REMARK VINA RESULT:      -9.0      1.673      3.111
REMARK  Name = 
REMARK  4 active torsions:
REMARK  status: ('A' for Active; 'I' for Inactive)
REMARK    1  A    between atoms: C_2  and  C_18
REMARK    2  A    between atoms: N_3  and  C_4
REMARK    3  A    between atoms: C_9  and  C_10
REMARK    4  A    between atoms: C_22  and  C_23
REMARK                            x       y       z     vdW  Elec       q    Type
REMARK                         _______ _______ _______ _____ _____    ______ ____
ROOT
ATOM      1  O   UNL     1       3.915   7.190  17.047  0.00  0.00    +0.000 OA
ATOM      2  C   UNL     1       3.802   6.622  18.127  0.00  0.00    +0.000 C 
ATOM      3  N   UNL     1       2.918   6.948  19.144  0.00  0.00    +0.000 N 
ATOM      4  H   UNL     1       3.031   6.445  20.014  0.00  0.00    +0.000 HD
ENDROOT
BRANCH   3   5
ATOM      5  C   UNL     1       2.028   8.047  19.170  0.00  0.00    +0.000 A 
ATOM      6  C   UNL     1       1.662   8.757  18.020  0.00  0.00    +0.000 A 
ATOM      7  C   UNL     1       0.838   9.887  18.075  0.00  0.00    +0.000 A 
ATOM      8  C   UNL     1       0.391  10.271  19.335  0.00  0.00    +0.000 A 
ATOM      9  N   UNL     1      -0.380  11.319  19.754  0.00  0.00    +0.000 N 
ATOM     10  C   UNL     1      -0.537  11.226  21.116  0.00  0.00    +0.000 A 
ATOM     11  N   UNL     1       0.107  10.177  21.590  0.00  0.00    +0.000 NA
ATOM     12  C   UNL     1       0.697   9.579  20.498  0.00  0.00    +0.000 A 
ATOM     13  C   UNL     1       1.520   8.442  20.421  0.00  0.00    +0.000 A 
ATOM     14  H   UNL     1      -0.775  12.055  19.185  0.00  0.00    +0.000 HD
BRANCH  10  15
ATOM     15  C   UNL     1      -1.347  12.225  21.871  0.00  0.00    +0.000 C 
ATOM     16  C   UNL     1      -1.949  11.653  23.140  0.00  0.00    +0.000 C 
ATOM     17  C   UNL     1      -3.205  12.474  23.292  0.00  0.00    +0.000 C 
ATOM     18  C   UNL     1      -3.642  12.669  21.857  0.00  0.00    +0.000 C 
ATOM     19  O   UNL     1      -2.461  12.633  21.042  0.00  0.00    +0.000 OA
ENDBRANCH  10  15
ENDBRANCH   3   5
BRANCH   2  20
ATOM     20  C   UNL     1       4.677   5.510  18.464  0.00  0.00    +0.000 A 
ATOM     21  C   UNL     1       6.057   5.500  18.369  0.00  0.00    +0.000 A 
ATOM     22  N   UNL     1       6.458   4.303  18.872  0.00  0.00    +0.000 N 
ATOM     23  N   UNL     1       5.447   3.502  19.218  0.00  0.00    +0.000 NA
ATOM     24  C   UNL     1       4.333   4.226  19.005  0.00  0.00    +0.000 A 
ATOM     25  H   UNL     1       7.405   3.960  19.005  0.00  0.00    +0.000 HD
BRANCH  24  26
ATOM     26  C   UNL     1       3.011   3.650  19.269  0.00  0.00    +0.000 A 
ATOM     27  C   UNL     1       2.336   2.895  18.301  0.00  0.00    +0.000 A 
ATOM     28  F   UNL     1       2.894   2.629  17.109  0.00  0.00    +0.000 F 
ATOM     29  C   UNL     1       1.055   2.380  18.534  0.00  0.00    +0.000 A 
ATOM     30  C   UNL     1       0.427   2.591  19.757  0.00  0.00    +0.000 A 
ATOM     31  C   UNL     1       1.080   3.335  20.736  0.00  0.00    +0.000 A 
ATOM     32  C   UNL     1       2.345   3.871  20.480  0.00  0.00    +0.000 A 
ATOM     33  F   UNL     1       2.881   4.655  21.427  0.00  0.00    +0.000 F 
ENDBRANCH  24  26
ENDBRANCH   2  20
TORSDOF 4
ENDMDL
MODEL 5
REMARK VINA RESULT:      -8.8      2.774      4.429
REMARK  Name = 
REMARK  4 active torsions:
REMARK  status: ('A' for Active; 'I' for Inactive)
REMARK    1  A    between atoms: C_2  and  C_18
REMARK    2  A    between atoms: N_3  and  C_4
REMARK    3  A    between atoms: C_9  and  C_10
REMARK    4  A    between atoms: C_22  and  C_23
REMARK                            x       y       z     vdW  Elec       q    Type
REMARK                         _______ _______ _______ _____ _____    ______ ____
ROOT
ATOM      1  O   UNL     1       2.177   7.274  19.680  0.00  0.00    +0.000 OA
ATOM      2  C   UNL     1       2.474   7.625  18.544  0.00  0.00    +0.000 C 
ATOM      3  N   UNL     1       1.968   8.718  17.857  0.00  0.00    +0.000 N 
ATOM      4  H   UNL     1       2.239   8.801  16.887  0.00  0.00    +0.000 HD
ENDROOT
BRANCH   3   5
ATOM      5  C   UNL     1       0.951   9.596  18.299  0.00  0.00    +0.000 A 
ATOM      6  C   UNL     1       1.106  10.449  19.398  0.00  0.00    +0.000 A 
ATOM      7  C   UNL     1       0.063  11.258  19.865  0.00  0.00    +0.000 A 
ATOM      8  C   UNL     1      -1.142  11.179  19.175  0.00  0.00    +0.000 A 
ATOM      9  N   UNL     1      -2.351  11.785  19.370  0.00  0.00    +0.000 N 
ATOM     10  C   UNL     1      -3.212  11.367  18.385  0.00  0.00    +0.000 A 
ATOM     11  N   UNL     1      -2.616  10.511  17.576  0.00  0.00    +0.000 NA
ATOM     12  C   UNL     1      -1.333  10.376  18.059  0.00  0.00    +0.000 A 
ATOM     13  C   UNL     1      -0.271   9.577  17.602  0.00  0.00    +0.000 A 
ATOM     14  H   UNL     1      -2.601  12.430  20.108  0.00  0.00    +0.000 HD
BRANCH  10  15
ATOM     15  C   UNL     1      -4.614  11.868  18.319  0.00  0.00    +0.000 C 
ATOM     16  C   UNL     1      -5.168  12.245  19.681  0.00  0.00    +0.000 C 
ATOM     17  C   UNL     1      -6.643  11.987  19.505  0.00  0.00    +0.000 C 
ATOM     18  C   UNL     1      -6.656  10.768  18.609  0.00  0.00    +0.000 C 
ATOM     19  O   UNL     1      -5.459  10.806  17.818  0.00  0.00    +0.000 OA
ENDBRANCH  10  15
ENDBRANCH   3   5
BRANCH   2  20
ATOM     20  C   UNL     1       3.417   6.843  17.760  0.00  0.00    +0.000 A 
ATOM     21  C   UNL     1       4.339   7.340  16.858  0.00  0.00    +0.000 A 
ATOM     22  N   UNL     1       5.063   6.271  16.434  0.00  0.00    +0.000 N 
ATOM     23  N   UNL     1       4.637   5.106  16.929  0.00  0.00    +0.000 NA
ATOM     24  C   UNL     1       3.638   5.424  17.774  0.00  0.00    +0.000 A 
ATOM     25  H   UNL     1       5.859   6.258  15.803  0.00  0.00    +0.000 HD
BRANCH  24  26
ATOM     26  C   UNL     1       2.915   4.375  18.498  0.00  0.00    +0.000 A 
ATOM     27  C   UNL     1       3.535   3.619  19.501  0.00  0.00    +0.000 A 
ATOM     28  F   UNL     1       4.803   3.858  19.872  0.00  0.00    +0.000 F 
ATOM     29  C   UNL     1       2.861   2.587  20.165  0.00  0.00    +0.000 A 
ATOM     30  C   UNL     1       1.535   2.303  19.853  0.00  0.00    +0.000 A 
ATOM     31  C   UNL     1       0.897   3.043  18.862  0.00  0.00    +0.000 A 
ATOM     32  C   UNL     1       1.591   4.049  18.185  0.00  0.00    +0.000 A 
ATOM     33  F   UNL     1       0.950   4.663  17.178  0.00  0.00    +0.000 F 
ENDBRANCH  24  26
ENDBRANCH   2  20
TORSDOF 4
ENDMDL
MODEL 6
REMARK VINA RESULT:      -8.8      1.834      3.266
REMARK  Name = 
REMARK  4 active torsions:
REMARK  status: ('A' for Active; 'I' for Inactive)
REMARK    1  A    between atoms: C_2  and  C_18
REMARK    2  A    between atoms: N_3  and  C_4
REMARK    3  A    between atoms: C_9  and  C_10
REMARK    4  A    between atoms: C_22  and  C_23
REMARK                            x       y       z     vdW  Elec       q    Type
REMARK                         _______ _______ _______ _____ _____    ______ ____
ROOT
ATOM      1  O   UNL     1       3.651   7.365  17.434  0.00  0.00    +0.000 OA
ATOM      2  C   UNL     1       3.631   6.715  18.473  0.00  0.00    +0.000 C 
ATOM      3  N   UNL     1       2.838   6.956  19.584  0.00  0.00    +0.000 N 
ATOM      4  H   UNL     1       3.025   6.388  20.400  0.00  0.00    +0.000 HD
ENDROOT
BRANCH   3   5
ATOM      5  C   UNL     1       1.954   8.045  19.772  0.00  0.00    +0.000 A 
ATOM      6  C   UNL     1       1.538   8.876  18.725  0.00  0.00    +0.000 A 
ATOM      7  C   UNL     1       0.722   9.992  18.941  0.00  0.00    +0.000 A 
ATOM      8  C   UNL     1       0.335  10.235  20.254  0.00  0.00    +0.000 A 
ATOM      9  N   UNL     1      -0.413  11.229  20.821  0.00  0.00    +0.000 N 
ATOM     10  C   UNL     1      -0.507  10.988  22.171  0.00  0.00    +0.000 A 
ATOM     11  N   UNL     1       0.155   9.894  22.497  0.00  0.00    +0.000 NA
ATOM     12  C   UNL     1       0.692   9.420  21.320  0.00  0.00    +0.000 A 
ATOM     13  C   UNL     1       1.506   8.299  21.080  0.00  0.00    +0.000 A 
ATOM     14  H   UNL     1      -0.831  12.023  20.355  0.00  0.00    +0.000 HD
BRANCH  10  15
ATOM     15  C   UNL     1      -1.278  11.896  23.067  0.00  0.00    +0.000 C 
ATOM     16  C   UNL     1      -2.578  12.371  22.445  0.00  0.00    +0.000 C 
ATOM     17  C   UNL     1      -2.766  13.718  23.093  0.00  0.00    +0.000 C 
ATOM     18  C   UNL     1      -1.345  14.229  23.201  0.00  0.00    +0.000 C 
ATOM     19  O   UNL     1      -0.487  13.084  23.307  0.00  0.00    +0.000 OA
ENDBRANCH  10  15
ENDBRANCH   3   5
BRANCH   2  20
ATOM     20  C   UNL     1       4.532   5.586  18.647  0.00  0.00    +0.000 A 
ATOM     21  C   UNL     1       5.905   5.606  18.490  0.00  0.00    +0.000 A 
ATOM     22  N   UNL     1       6.340   4.367  18.840  0.00  0.00    +0.000 N 
ATOM     23  N   UNL     1       5.354   3.518  19.140  0.00  0.00    +0.000 NA
ATOM     24  C   UNL     1       4.224   4.245  19.058  0.00  0.00    +0.000 A 
ATOM     25  H   UNL     1       7.295   4.026  18.893  0.00  0.00    +0.000 HD
BRANCH  24  26
ATOM     26  C   UNL     1       2.921   3.624  19.314  0.00  0.00    +0.000 A 
ATOM     27  C   UNL     1       2.240   2.916  18.316  0.00  0.00    +0.000 A 
ATOM     28  F   UNL     1       2.775   2.737  17.098  0.00  0.00    +0.000 F 
ATOM     29  C   UNL     1       0.976   2.359  18.544  0.00  0.00    +0.000 A 
ATOM     30  C   UNL     1       0.372   2.480  19.793  0.00  0.00    +0.000 A 
ATOM     31  C   UNL     1       1.032   3.176  20.801  0.00  0.00    +0.000 A 
ATOM     32  C   UNL     1       2.279   3.755  20.551  0.00  0.00    +0.000 A 
ATOM     33  F   UNL     1       2.821   4.491  21.534  0.00  0.00    +0.000 F 
ENDBRANCH  24  26
ENDBRANCH   2  20
TORSDOF 4
ENDMDL
MODEL 7
REMARK VINA RESULT:      -8.8      2.740      4.181
REMARK  Name = 
REMARK  4 active torsions:
REMARK  status: ('A' for Active; 'I' for Inactive)
REMARK    1  A    between atoms: C_2  and  C_18
REMARK    2  A    between atoms: N_3  and  C_4
REMARK    3  A    between atoms: C_9  and  C_10
REMARK    4  A    between atoms: C_22  and  C_23
REMARK                            x       y       z     vdW  Elec       q    Type
REMARK                         _______ _______ _______ _____ _____    ______ ____
ROOT
ATOM      1  O   UNL     1       2.204   7.229  19.684  0.00  0.00    +0.000 OA
ATOM      2  C   UNL     1       2.511   7.578  18.550  0.00  0.00    +0.000 C 
ATOM      3  N   UNL     1       2.020   8.677  17.861  0.00  0.00    +0.000 N 
ATOM      4  H   UNL     1       2.298   8.759  16.893  0.00  0.00    +0.000 HD
ENDROOT
BRANCH   3   5
ATOM      5  C   UNL     1       1.010   9.565  18.299  0.00  0.00    +0.000 A 
ATOM      6  C   UNL     1       1.181  10.441  19.377  0.00  0.00    +0.000 A 
ATOM      7  C   UNL     1       0.145  11.260  19.842  0.00  0.00    +0.000 A 
ATOM      8  C   UNL     1      -1.069  11.168  19.170  0.00  0.00    +0.000 A 
ATOM      9  N   UNL     1      -2.275  11.780  19.369  0.00  0.00    +0.000 N 
ATOM     10  C   UNL     1      -3.150  11.342  18.404  0.00  0.00    +0.000 A 
ATOM     11  N   UNL     1      -2.566  10.470  17.605  0.00  0.00    +0.000 NA
ATOM     12  C   UNL     1      -1.276  10.343  18.073  0.00  0.00    +0.000 A 
ATOM     13  C   UNL     1      -0.221   9.534  17.618  0.00  0.00    +0.000 A 
ATOM     14  H   UNL     1      -2.515  12.440  20.096  0.00  0.00    +0.000 HD
BRANCH  10  15
ATOM     15  C   UNL     1      -4.553  11.844  18.347  0.00  0.00    +0.000 C 
ATOM     16  C   UNL     1      -5.062  12.317  19.695  0.00  0.00    +0.000 C 
ATOM     17  C   UNL     1      -6.542  12.054  19.584  0.00  0.00    +0.000 C 
ATOM     18  C   UNL     1      -6.586  10.775  18.777  0.00  0.00    +0.000 C 
ATOM     19  O   UNL     1      -5.415  10.752  17.948  0.00  0.00    +0.000 OA
ENDBRANCH  10  15
ENDBRANCH   3   5
BRANCH   2  20
ATOM     20  C   UNL     1       3.450   6.787  17.770  0.00  0.00    +0.000 A 
ATOM     21  C   UNL     1       4.392   7.276  16.884  0.00  0.00    +0.000 A 
ATOM     22  N   UNL     1       5.102   6.198  16.459  0.00  0.00    +0.000 N 
ATOM     23  N   UNL     1       4.650   5.037  16.938  0.00  0.00    +0.000 NA
ATOM     24  C   UNL     1       3.647   5.364  17.773  0.00  0.00    +0.000 A 
ATOM     25  H   UNL     1       5.905   6.178  15.838  0.00  0.00    +0.000 HD
BRANCH  24  26
ATOM     26  C   UNL     1       2.897   4.321  18.480  0.00  0.00    +0.000 A 
ATOM     27  C   UNL     1       1.565   4.032  18.158  0.00  0.00    +0.000 A 
ATOM     28  F   UNL     1       0.936   4.667  17.156  0.00  0.00    +0.000 F 
ATOM     29  C   UNL     1       0.834   3.067  18.859  0.00  0.00    +0.000 A 
ATOM     30  C   UNL     1       1.431   2.348  19.891  0.00  0.00    +0.000 A 
ATOM     31  C   UNL     1       2.755   2.616  20.226  0.00  0.00    +0.000 A 
ATOM     32  C   UNL     1       3.465   3.604  19.540  0.00  0.00    +0.000 A 
ATOM     33  F   UNL     1       4.705   3.878  19.971  0.00  0.00    +0.000 F 
ENDBRANCH  24  26
ENDBRANCH   2  20
TORSDOF 4
ENDMDL
MODEL 8
REMARK VINA RESULT:      -8.7      1.832      3.541
REMARK  Name = 
REMARK  4 active torsions:
REMARK  status: ('A' for Active; 'I' for Inactive)
REMARK    1  A    between atoms: C_2  and  C_18
REMARK    2  A    between atoms: N_3  and  C_4
REMARK    3  A    between atoms: C_9  and  C_10
REMARK    4  A    between atoms: C_22  and  C_23
REMARK                            x       y       z     vdW  Elec       q    Type
REMARK                         _______ _______ _______ _____ _____    ______ ____
ROOT
ATOM      1  O   UNL     1       3.782   7.479  17.364  0.00  0.00    +0.000 OA
ATOM      2  C   UNL     1       3.679   6.767  18.356  0.00  0.00    +0.000 C 
ATOM      3  N   UNL     1       2.799   6.945  19.413  0.00  0.00    +0.000 N 
ATOM      4  H   UNL     1       2.920   6.328  20.205  0.00  0.00    +0.000 HD
ENDROOT
BRANCH   3   5
ATOM      5  C   UNL     1       1.902   8.024  19.593  0.00  0.00    +0.000 A 
ATOM      6  C   UNL     1       1.491   8.855  18.545  0.00  0.00    +0.000 A 
ATOM      7  C   UNL     1       0.661   9.963  18.755  0.00  0.00    +0.000 A 
ATOM      8  C   UNL     1       0.255  10.196  20.065  0.00  0.00    +0.000 A 
ATOM      9  N   UNL     1      -0.510  11.180  20.627  0.00  0.00    +0.000 N 
ATOM     10  C   UNL     1      -0.619  10.931  21.974  0.00  0.00    +0.000 A 
ATOM     11  N   UNL     1       0.049   9.843  22.304  0.00  0.00    +0.000 NA
ATOM     12  C   UNL     1       0.606   9.379  21.131  0.00  0.00    +0.000 A 
ATOM     13  C   UNL     1       1.434   8.268  20.897  0.00  0.00    +0.000 A 
ATOM     14  H   UNL     1      -0.929  11.972  20.159  0.00  0.00    +0.000 HD
BRANCH  10  15
ATOM     15  C   UNL     1      -1.410  11.828  22.863  0.00  0.00    +0.000 C 
ATOM     16  C   UNL     1      -2.542  12.528  22.136  0.00  0.00    +0.000 C 
ATOM     17  C   UNL     1      -2.675  13.811  22.916  0.00  0.00    +0.000 C 
ATOM     18  C   UNL     1      -1.239  14.122  23.279  0.00  0.00    +0.000 C 
ATOM     19  O   UNL     1      -0.538  12.872  23.356  0.00  0.00    +0.000 OA
ENDBRANCH  10  15
ENDBRANCH   3   5
BRANCH   2  20
ATOM     20  C   UNL     1       4.563   5.626  18.534  0.00  0.00    +0.000 A 
ATOM     21  C   UNL     1       5.935   5.623  18.362  0.00  0.00    +0.000 A 
ATOM     22  N   UNL     1       6.355   4.381  18.722  0.00  0.00    +0.000 N 
ATOM     23  N   UNL     1       5.358   3.552  19.043  0.00  0.00    +0.000 NA
ATOM     24  C   UNL     1       4.239   4.295  18.964  0.00  0.00    +0.000 A 
ATOM     25  H   UNL     1       7.305   4.026  18.768  0.00  0.00    +0.000 HD
BRANCH  24  26
ATOM     26  C   UNL     1       2.930   3.698  19.242  0.00  0.00    +0.000 A 
ATOM     27  C   UNL     1       2.342   3.781  20.510  0.00  0.00    +0.000 A 
ATOM     28  F   UNL     1       2.935   4.451  21.512  0.00  0.00    +0.000 F 
ATOM     29  C   UNL     1       1.112   3.174  20.790  0.00  0.00    +0.000 A 
ATOM     30  C   UNL     1       0.427   2.487  19.793  0.00  0.00    +0.000 A 
ATOM     31  C   UNL     1       0.989   2.395  18.523  0.00  0.00    +0.000 A 
ATOM     32  C   UNL     1       2.233   2.977  18.265  0.00  0.00    +0.000 A 
ATOM     33  F   UNL     1       2.763   2.775  17.049  0.00  0.00    +0.000 F 
ENDBRANCH  24  26
ENDBRANCH   2  20
TORSDOF 4
ENDMDL
MODEL 9
REMARK VINA RESULT:      -8.7      2.226      3.738
REMARK  Name = 
REMARK  4 active torsions:
REMARK  status: ('A' for Active; 'I' for Inactive)
REMARK    1  A    between atoms: C_2  and  C_18
REMARK    2  A    between atoms: N_3  and  C_4
REMARK    3  A    between atoms: C_9  and  C_10
REMARK    4  A    between atoms: C_22  and  C_23
REMARK                            x       y       z     vdW  Elec       q    Type
REMARK                         _______ _______ _______ _____ _____    ______ ____
ROOT
ATOM      1  O   UNL     1       2.276   6.834  19.815  0.00  0.00    +0.000 OA
ATOM      2  C   UNL     1       2.557   7.356  18.742  0.00  0.00    +0.000 C 
ATOM      3  N   UNL     1       2.052   8.547  18.244  0.00  0.00    +0.000 N 
ATOM      4  H   UNL     1       2.307   8.779  17.294  0.00  0.00    +0.000 HD
ENDROOT
BRANCH   3   5
ATOM      5  C   UNL     1       1.053   9.354  18.838  0.00  0.00    +0.000 A 
ATOM      6  C   UNL     1       0.040   9.977  18.100  0.00  0.00    +0.000 A 
ATOM      7  C   UNL     1      -0.896  10.831  18.694  0.00  0.00    +0.000 A 
ATOM      8  C   UNL     1      -0.775  11.028  20.066  0.00  0.00    +0.000 A 
ATOM      9  N   UNL     1      -1.476  11.804  20.946  0.00  0.00    +0.000 N 
ATOM     10  C   UNL     1      -0.951  11.621  22.202  0.00  0.00    +0.000 A 
ATOM     11  N   UNL     1       0.061  10.775  22.167  0.00  0.00    +0.000 NA
ATOM     12  C   UNL     1       0.190  10.405  20.846  0.00  0.00    +0.000 A 
ATOM     13  C   UNL     1       1.115   9.545  20.230  0.00  0.00    +0.000 A 
ATOM     14  H   UNL     1      -2.248  12.423  20.737  0.00  0.00    +0.000 HD
BRANCH  10  15
ATOM     15  C   UNL     1      -1.516  12.326  23.387  0.00  0.00    +0.000 C 
ATOM     16  C   UNL     1      -2.972  12.712  23.202  0.00  0.00    +0.000 C 
ATOM     17  C   UNL     1      -3.084  13.947  24.059  0.00  0.00    +0.000 C 
ATOM     18  C   UNL     1      -1.736  14.605  23.860  0.00  0.00    +0.000 C 
ATOM     19  O   UNL     1      -0.790  13.564  23.575  0.00  0.00    +0.000 OA
ENDBRANCH  10  15
ENDBRANCH   3   5
BRANCH   2  20
ATOM     20  C   UNL     1       3.475   6.697  17.827  0.00  0.00    +0.000 A 
ATOM     21  C   UNL     1       4.353   7.322  16.960  0.00  0.00    +0.000 A 
ATOM     22  N   UNL     1       5.072   6.329  16.373  0.00  0.00    +0.000 N 
ATOM     23  N   UNL     1       4.682   5.103  16.732  0.00  0.00    +0.000 NA
ATOM     24  C   UNL     1       3.716   5.292  17.650  0.00  0.00    +0.000 A 
ATOM     25  H   UNL     1       5.840   6.411  15.715  0.00  0.00    +0.000 HD
BRANCH  24  26
ATOM     26  C   UNL     1       3.038   4.146  18.262  0.00  0.00    +0.000 A 
ATOM     27  C   UNL     1       3.724   3.248  19.090  0.00  0.00    +0.000 A 
ATOM     28  F   UNL     1       5.019   3.427  19.393  0.00  0.00    +0.000 F 
ATOM     29  C   UNL     1       3.090   2.128  19.641  0.00  0.00    +0.000 A 
ATOM     30  C   UNL     1       1.741   1.894  19.394  0.00  0.00    +0.000 A 
ATOM     31  C   UNL     1       1.038   2.775  18.577  0.00  0.00    +0.000 A 
ATOM     32  C   UNL     1       1.689   3.872  18.007  0.00  0.00    +0.000 A 
ATOM     33  F   UNL     1       0.981   4.631  17.156  0.00  0.00    +0.000 F 
ENDBRANCH  24  26
ENDBRANCH   2  20
TORSDOF 4
ENDMDL
