MODEL 1
REMARK VINA RESULT:      -9.4      0.000      0.000
REMARK  Name = 
REMARK  7 active torsions:
REMARK  status: ('A' for Active; 'I' for Inactive)
REMARK    1  A    between atoms: C_1  and  C_2
REMARK    2  A    between atoms: C_2  and  C_3
REMARK    3  A    between atoms: C_2  and  C_4
REMARK    4  A    between atoms: C_15  and  C_16
REMARK    5  A    between atoms: N_18  and  C_19
REMARK    6  A    between atoms: C_19  and  C_20
REMARK    7  A    between atoms: C_24  and  C_25
REMARK                            x       y       z     vdW  Elec       q    Type
REMARK                         _______ _______ _______ _____ _____    ______ ____
ROOT
ATOM      1  C   UNL     1       3.337   5.088  18.761  0.00  0.00    +0.000 C 
ATOM      2  O   UNL     1       3.395   4.137  19.532  0.00  0.00    +0.000 OA
ATOM      3  N   UNL     1       2.756   6.249  19.159  0.00  0.00    +0.000 N 
ATOM      4  H   UNL     1       2.432   6.252  20.128  0.00  0.00    +0.000 HD
ENDROOT
BRANCH   1  16
ATOM      5  C   UNL     1       6.115   3.632  13.255  0.00  0.00    +0.000 A 
ATOM      6  C   UNL     1       7.112   4.587  13.050  0.00  0.00    +0.000 A 
ATOM      7  C   UNL     1       7.507   5.432  14.097  0.00  0.00    +0.000 A 
ATOM      8  C   UNL     1       6.877   5.361  15.344  0.00  0.00    +0.000 A 
ATOM      9  C   UNL     1       5.820   4.471  15.555  0.00  0.00    +0.000 A 
ATOM     10  C   UNL     1       5.517   3.571  14.516  0.00  0.00    +0.000 A 
ATOM     11  C   UNL     1       5.158   4.371  16.919  0.00  0.00    +0.000 C 
ATOM     12  C   UNL     1       6.213   4.630  17.974  0.00  0.00    +0.000 C 
ATOM     13  C   UNL     1       6.774   6.033  17.636  0.00  0.00    +0.000 C 
ATOM     14  O   UNL     1       7.420   6.125  16.350  0.00  0.00    +0.000 OA
ATOM     15  C   UNL     1       3.820   3.601  16.853  0.00  0.00    +0.000 C 
ATOM     16  C   UNL     1       3.827   4.998  17.343  0.00  0.00    +0.000 C 
BRANCH   5  18
ATOM     17  C   UNL     1       4.435   3.289  11.427  0.00  0.00    +0.000 C 
ATOM     18  C   UNL     1       5.615   2.680  12.184  0.00  0.00    +0.000 C 
ATOM     19  C   UNL     1       6.721   2.215  11.240  0.00  0.00    +0.000 C 
ENDBRANCH   5  18
ENDBRANCH   1  16
BRANCH   3  20
ATOM     20  C   UNL     1       2.742   7.459  18.402  0.00  0.00    +0.000 C 
BRANCH  20  21
ATOM     21  C   UNL     1       1.851   8.498  18.987  0.00  0.00    +0.000 A 
ATOM     22  C   UNL     1       1.387   9.554  18.196  0.00  0.00    +0.000 A 
ATOM     23  C   UNL     1       0.629  10.571  18.761  0.00  0.00    +0.000 A 
ATOM     24  C   UNL     1       0.327  10.539  20.128  0.00  0.00    +0.000 A 
ATOM     25  C   UNL     1       0.748   9.458  20.922  0.00  0.00    +0.000 A 
ATOM     26  C   UNL     1       1.508   8.436  20.337  0.00  0.00    +0.000 A 
BRANCH  25  27
ATOM     27  C   UNL     1       0.482   9.352  22.384  0.00  0.00    +0.000 C 
ATOM     28  N   UNL     1      -0.737   8.913  22.802  0.00  0.00    +0.000 N 
ATOM     29  O   UNL     1       1.343   9.646  23.212  0.00  0.00    +0.000 OA
ATOM     30  H   UNL     1      -1.511   8.696  22.198  0.00  0.00    +0.000 HD
ATOM     31  H   UNL     1      -0.889   8.874  23.801  0.00  0.00    +0.000 HD
ENDBRANCH  25  27
ENDBRANCH  20  21
ENDBRANCH   3  20
TORSDOF 5
ENDMDL
MODEL 2
REMARK VINA RESULT:      -9.4      1.356      1.670
REMARK  Name = 
REMARK  7 active torsions:
REMARK  status: ('A' for Active; 'I' for Inactive)
REMARK    1  A    between atoms: C_1  and  C_2
REMARK    2  A    between atoms: C_2  and  C_3
REMARK    3  A    between atoms: C_2  and  C_4
REMARK    4  A    between atoms: C_15  and  C_16
REMARK    5  A    between atoms: N_18  and  C_19
REMARK    6  A    between atoms: C_19  and  C_20
REMARK    7  A    between atoms: C_24  and  C_25
REMARK                            x       y       z     vdW  Elec       q    Type
REMARK                         _______ _______ _______ _____ _____    ______ ____
ROOT
ATOM      1  C   UNL     1       1.846   4.248  18.894  0.00  0.00    +0.000 C 
ATOM      2  O   UNL     1       1.115   3.266  18.945  0.00  0.00    +0.000 OA
ATOM      3  N   UNL     1       1.783   5.192  19.869  0.00  0.00    +0.000 N 
ATOM      4  H   UNL     1       1.128   4.979  20.624  0.00  0.00    +0.000 HD
ENDROOT
BRANCH   1  16
ATOM      5  C   UNL     1       6.264   4.043  14.356  0.00  0.00    +0.000 A 
ATOM      6  C   UNL     1       7.289   4.899  14.763  0.00  0.00    +0.000 A 
ATOM      7  C   UNL     1       7.330   5.376  16.081  0.00  0.00    +0.000 A 
ATOM      8  C   UNL     1       6.322   5.040  16.990  0.00  0.00    +0.000 A 
ATOM      9  C   UNL     1       5.238   4.251  16.589  0.00  0.00    +0.000 A 
ATOM     10  C   UNL     1       5.282   3.709  15.291  0.00  0.00    +0.000 A 
ATOM     11  C   UNL     1       4.161   3.859  17.586  0.00  0.00    +0.000 C 
ATOM     12  C   UNL     1       4.812   3.699  18.944  0.00  0.00    +0.000 C 
ATOM     13  C   UNL     1       5.477   5.068  19.226  0.00  0.00    +0.000 C 
ATOM     14  O   UNL     1       6.513   5.433  18.293  0.00  0.00    +0.000 OA
ATOM     15  C   UNL     1       2.907   3.293  16.882  0.00  0.00    +0.000 C 
ATOM     16  C   UNL     1       2.776   4.494  17.739  0.00  0.00    +0.000 C 
BRANCH   5  18
ATOM     17  C   UNL     1       4.688   3.595  12.460  0.00  0.00    +0.000 C 
ATOM     18  C   UNL     1       6.130   3.482  12.952  0.00  0.00    +0.000 C 
ATOM     19  C   UNL     1       7.120   4.102  11.969  0.00  0.00    +0.000 C 
ENDBRANCH   5  18
ENDBRANCH   1  16
BRANCH   3  20
ATOM     20  C   UNL     1       2.665   6.307  19.987  0.00  0.00    +0.000 C 
BRANCH  20  21
ATOM     21  C   UNL     1       2.036   7.590  19.571  0.00  0.00    +0.000 A 
ATOM     22  C   UNL     1       2.154   8.037  18.250  0.00  0.00    +0.000 A 
ATOM     23  C   UNL     1       1.644   9.274  17.882  0.00  0.00    +0.000 A 
ATOM     24  C   UNL     1       1.007  10.078  18.835  0.00  0.00    +0.000 A 
ATOM     25  C   UNL     1       0.840   9.618  20.153  0.00  0.00    +0.000 A 
ATOM     26  C   UNL     1       1.356   8.365  20.509  0.00  0.00    +0.000 A 
BRANCH  25  27
ATOM     27  C   UNL     1       0.188  10.414  21.231  0.00  0.00    +0.000 C 
ATOM     28  N   UNL     1      -0.895  11.178  20.922  0.00  0.00    +0.000 N 
ATOM     29  O   UNL     1       0.607  10.384  22.388  0.00  0.00    +0.000 OA
ATOM     30  H   UNL     1      -1.274  11.297  19.998  0.00  0.00    +0.000 HD
ATOM     31  H   UNL     1      -1.299  11.721  21.674  0.00  0.00    +0.000 HD
ENDBRANCH  25  27
ENDBRANCH  20  21
ENDBRANCH   3  20
TORSDOF 5
ENDMDL
MODEL 3
REMARK VINA RESULT:      -9.2      1.964      2.343
REMARK  Name = 
REMARK  7 active torsions:
REMARK  status: ('A' for Active; 'I' for Inactive)
REMARK    1  A    between atoms: C_1  and  C_2
REMARK    2  A    between atoms: C_2  and  C_3
REMARK    3  A    between atoms: C_2  and  C_4
REMARK    4  A    between atoms: C_15  and  C_16
REMARK    5  A    between atoms: N_18  and  C_19
REMARK    6  A    between atoms: C_19  and  C_20
REMARK    7  A    between atoms: C_24  and  C_25
REMARK                            x       y       z     vdW  Elec       q    Type
REMARK                         _______ _______ _______ _____ _____    ______ ____
ROOT
ATOM      1  C   UNL     1       3.741   5.597  18.710  0.00  0.00    +0.000 C 
ATOM      2  O   UNL     1       4.085   4.810  19.584  0.00  0.00    +0.000 OA
ATOM      3  N   UNL     1       2.957   6.661  19.026  0.00  0.00    +0.000 N 
ATOM      4  H   UNL     1       2.739   6.747  20.020  0.00  0.00    +0.000 HD
ENDROOT
BRANCH   1  16
ATOM      5  C   UNL     1       5.869   3.603  13.084  0.00  0.00    +0.000 A 
ATOM      6  C   UNL     1       6.941   4.433  12.751  0.00  0.00    +0.000 A 
ATOM      7  C   UNL     1       7.512   5.274  13.716  0.00  0.00    +0.000 A 
ATOM      8  C   UNL     1       6.986   5.328  15.011  0.00  0.00    +0.000 A 
ATOM      9  C   UNL     1       5.862   4.570  15.353  0.00  0.00    +0.000 A 
ATOM     10  C   UNL     1       5.378   3.664  14.390  0.00  0.00    +0.000 A 
ATOM     11  C   UNL     1       5.312   4.604  16.768  0.00  0.00    +0.000 C 
ATOM     12  C   UNL     1       6.474   4.790  17.721  0.00  0.00    +0.000 C 
ATOM     13  C   UNL     1       7.150   6.106  17.266  0.00  0.00    +0.000 C 
ATOM     14  O   UNL     1       7.690   6.070  15.930  0.00  0.00    +0.000 OA
ATOM     15  C   UNL     1       3.898   3.984  16.850  0.00  0.00    +0.000 C 
ATOM     16  C   UNL     1       4.096   5.392  17.264  0.00  0.00    +0.000 C 
BRANCH   5  18
ATOM     17  C   UNL     1       4.178   3.429  11.244  0.00  0.00    +0.000 C 
ATOM     18  C   UNL     1       5.182   2.667  12.109  0.00  0.00    +0.000 C 
ATOM     19  C   UNL     1       6.167   1.861  11.265  0.00  0.00    +0.000 C 
ENDBRANCH   5  18
ENDBRANCH   1  16
BRANCH   3  20
ATOM     20  C   UNL     1       2.600   7.710  18.126  0.00  0.00    +0.000 C 
BRANCH  20  21
ATOM     21  C   UNL     1       1.574   8.631  18.689  0.00  0.00    +0.000 A 
ATOM     22  C   UNL     1       1.496   8.838  20.070  0.00  0.00    +0.000 A 
ATOM     23  C   UNL     1       0.486   9.627  20.603  0.00  0.00    +0.000 A 
ATOM     24  C   UNL     1      -0.458  10.219  19.755  0.00  0.00    +0.000 A 
ATOM     25  C   UNL     1      -0.360  10.057  18.362  0.00  0.00    +0.000 A 
ATOM     26  C   UNL     1       0.668   9.261  17.838  0.00  0.00    +0.000 A 
BRANCH  25  27
ATOM     27  C   UNL     1      -1.328  10.639  17.390  0.00  0.00    +0.000 C 
ATOM     28  N   UNL     1      -1.442  11.993  17.306  0.00  0.00    +0.000 N 
ATOM     29  O   UNL     1      -2.014   9.921  16.665  0.00  0.00    +0.000 OA
ATOM     30  H   UNL     1      -0.956  12.652  17.890  0.00  0.00    +0.000 HD
ATOM     31  H   UNL     1      -2.124  12.353  16.650  0.00  0.00    +0.000 HD
ENDBRANCH  25  27
ENDBRANCH  20  21
ENDBRANCH   3  20
TORSDOF 5
ENDMDL
MODEL 4
REMARK VINA RESULT:      -9.1      1.497      2.202
REMARK  Name = 
REMARK  7 active torsions:
REMARK  status: ('A' for Active; 'I' for Inactive)
REMARK    1  A    between atoms: C_1  and  C_2
REMARK    2  A    between atoms: C_2  and  C_3
REMARK    3  A    between atoms: C_2  and  C_4
REMARK    4  A    between atoms: C_15  and  C_16
REMARK    5  A    between atoms: N_18  and  C_19
REMARK    6  A    between atoms: C_19  and  C_20
REMARK    7  A    between atoms: C_24  and  C_25
REMARK                            x       y       z     vdW  Elec       q    Type
REMARK                         _______ _______ _______ _____ _____    ______ ____
ROOT
ATOM      1  C   UNL     1       1.477   4.075  18.948  0.00  0.00    +0.000 C 
ATOM      2  O   UNL     1       0.715   3.151  18.689  0.00  0.00    +0.000 OA
ATOM      3  N   UNL     1       1.304   4.799  20.085  0.00  0.00    +0.000 N 
ATOM      4  H   UNL     1       0.540   4.475  20.681  0.00  0.00    +0.000 HD
ENDROOT
BRANCH   1  16
ATOM      5  C   UNL     1       6.285   4.495  14.842  0.00  0.00    +0.000 A 
ATOM      6  C   UNL     1       7.404   4.880  15.582  0.00  0.00    +0.000 A 
ATOM      7  C   UNL     1       7.379   4.825  16.983  0.00  0.00    +0.000 A 
ATOM      8  C   UNL     1       6.220   4.429  17.658  0.00  0.00    +0.000 A 
ATOM      9  C   UNL     1       5.057   4.116  16.947  0.00  0.00    +0.000 A 
ATOM     10  C   UNL     1       5.149   4.085  15.542  0.00  0.00    +0.000 A 
ATOM     11  C   UNL     1       3.809   3.654  17.678  0.00  0.00    +0.000 C 
ATOM     12  C   UNL     1       4.241   2.867  18.897  0.00  0.00    +0.000 C 
ATOM     13  C   UNL     1       5.130   3.845  19.704  0.00  0.00    +0.000 C 
ATOM     14  O   UNL     1       6.326   4.269  19.019  0.00  0.00    +0.000 OA
ATOM     15  C   UNL     1       2.562   3.691  16.766  0.00  0.00    +0.000 C 
ATOM     16  C   UNL     1       2.572   4.496  18.009  0.00  0.00    +0.000 C 
BRANCH   5  18
ATOM     17  C   UNL     1       7.551   4.971  12.732  0.00  0.00    +0.000 C 
ATOM     18  C   UNL     1       6.214   4.527  13.327  0.00  0.00    +0.000 C 
ATOM     19  C   UNL     1       5.732   3.208  12.727  0.00  0.00    +0.000 C 
ENDBRANCH   5  18
ENDBRANCH   1  16
BRANCH   3  20
ATOM     20  C   UNL     1       2.195   5.808  20.556  0.00  0.00    +0.000 C 
BRANCH  20  21
ATOM     21  C   UNL     1       1.708   7.187  20.278  0.00  0.00    +0.000 A 
ATOM     22  C   UNL     1       1.948   7.781  19.034  0.00  0.00    +0.000 A 
ATOM     23  C   UNL     1       1.573   9.097  18.803  0.00  0.00    +0.000 A 
ATOM     24  C   UNL     1       0.950   9.833  19.818  0.00  0.00    +0.000 A 
ATOM     25  C   UNL     1       0.660   9.231  21.055  0.00  0.00    +0.000 A 
ATOM     26  C   UNL     1       1.041   7.900  21.272  0.00  0.00    +0.000 A 
BRANCH  25  27
ATOM     27  C   UNL     1       0.014   9.945  22.192  0.00  0.00    +0.000 C 
ATOM     28  N   UNL     1      -0.637   9.217  23.141  0.00  0.00    +0.000 N 
ATOM     29  O   UNL     1       0.065  11.170  22.289  0.00  0.00    +0.000 OA
ATOM     30  H   UNL     1      -0.767   8.220  23.117  0.00  0.00    +0.000 HD
ATOM     31  H   UNL     1      -1.082   9.736  23.887  0.00  0.00    +0.000 HD
ENDBRANCH  25  27
ENDBRANCH  20  21
ENDBRANCH   3  20
TORSDOF 5
ENDMDL
MODEL 5
REMARK VINA RESULT:      -9.1      1.791      2.269
REMARK  Name = 
REMARK  7 active torsions:
REMARK  status: ('A' for Active; 'I' for Inactive)
REMARK    1  A    between atoms: C_1  and  C_2
REMARK    2  A    between atoms: C_2  and  C_3
REMARK    3  A    between atoms: C_2  and  C_4
REMARK    4  A    between atoms: C_15  and  C_16
REMARK    5  A    between atoms: N_18  and  C_19
REMARK    6  A    between atoms: C_19  and  C_20
REMARK    7  A    between atoms: C_24  and  C_25
REMARK                            x       y       z     vdW  Elec       q    Type
REMARK                         _______ _______ _______ _____ _____    ______ ____
ROOT
ATOM      1  C   UNL     1       2.049   4.478  19.008  0.00  0.00    +0.000 C 
ATOM      2  O   UNL     1       1.518   3.406  19.273  0.00  0.00    +0.000 OA
ATOM      3  N   UNL     1       1.799   5.568  19.780  0.00  0.00    +0.000 N 
ATOM      4  H   UNL     1       1.191   5.390  20.581  0.00  0.00    +0.000 HD
ENDROOT
BRANCH   1  16
ATOM      5  C   UNL     1       6.246   4.017  14.283  0.00  0.00    +0.000 A 
ATOM      6  C   UNL     1       7.293   4.884  14.598  0.00  0.00    +0.000 A 
ATOM      7  C   UNL     1       7.399   5.425  15.887  0.00  0.00    +0.000 A 
ATOM      8  C   UNL     1       6.434   5.142  16.859  0.00  0.00    +0.000 A 
ATOM      9  C   UNL     1       5.328   4.342  16.549  0.00  0.00    +0.000 A 
ATOM     10  C   UNL     1       5.307   3.737  15.278  0.00  0.00    +0.000 A 
ATOM     11  C   UNL     1       4.298   4.008  17.613  0.00  0.00    +0.000 C 
ATOM     12  C   UNL     1       5.011   3.910  18.945  0.00  0.00    +0.000 C 
ATOM     13  C   UNL     1       5.696   5.287  19.128  0.00  0.00    +0.000 C 
ATOM     14  O   UNL     1       6.689   5.598  18.130  0.00  0.00    +0.000 OA
ATOM     15  C   UNL     1       3.009   3.417  16.998  0.00  0.00    +0.000 C 
ATOM     16  C   UNL     1       2.924   4.660  17.800  0.00  0.00    +0.000 C 
BRANCH   5  18
ATOM     17  C   UNL     1       4.624   3.646  12.409  0.00  0.00    +0.000 C 
ATOM     18  C   UNL     1       6.043   3.389  12.916  0.00  0.00    +0.000 C 
ATOM     19  C   UNL     1       7.099   3.820  11.902  0.00  0.00    +0.000 C 
ENDBRANCH   5  18
ENDBRANCH   1  16
BRANCH   3  20
ATOM     20  C   UNL     1       2.453   6.830  19.649  0.00  0.00    +0.000 C 
BRANCH  20  21
ATOM     21  C   UNL     1       1.619   7.966  20.130  0.00  0.00    +0.000 A 
ATOM     22  C   UNL     1       0.962   7.885  21.362  0.00  0.00    +0.000 A 
ATOM     23  C   UNL     1       0.115   8.906  21.772  0.00  0.00    +0.000 A 
ATOM     24  C   UNL     1      -0.082  10.021  20.950  0.00  0.00    +0.000 A 
ATOM     25  C   UNL     1       0.612  10.136  19.732  0.00  0.00    +0.000 A 
ATOM     26  C   UNL     1       1.467   9.099  19.333  0.00  0.00    +0.000 A 
BRANCH  25  27
ATOM     27  C   UNL     1       0.451  11.280  18.792  0.00  0.00    +0.000 C 
ATOM     28  N   UNL     1      -0.703  11.388  18.077  0.00  0.00    +0.000 N 
ATOM     29  O   UNL     1       1.335  12.125  18.658  0.00  0.00    +0.000 OA
ATOM     30  H   UNL     1      -1.455  10.722  18.090  0.00  0.00    +0.000 HD
ATOM     31  H   UNL     1      -0.769  12.166  17.434  0.00  0.00    +0.000 HD
ENDBRANCH  25  27
ENDBRANCH  20  21
ENDBRANCH   3  20
TORSDOF 5
ENDMDL
MODEL 6
REMARK VINA RESULT:      -8.9      0.950      1.167
REMARK  Name = 
REMARK  7 active torsions:
REMARK  status: ('A' for Active; 'I' for Inactive)
REMARK    1  A    between atoms: C_1  and  C_2
REMARK    2  A    between atoms: C_2  and  C_3
REMARK    3  A    between atoms: C_2  and  C_4
REMARK    4  A    between atoms: C_15  and  C_16
REMARK    5  A    between atoms: N_18  and  C_19
REMARK    6  A    between atoms: C_19  and  C_20
REMARK    7  A    between atoms: C_24  and  C_25
REMARK                            x       y       z     vdW  Elec       q    Type
REMARK                         _______ _______ _______ _____ _____    ______ ____
ROOT
ATOM      1  C   UNL     1       3.809   5.039  18.158  0.00  0.00    +0.000 C 
ATOM      2  O   UNL     1       3.989   4.096  18.920  0.00  0.00    +0.000 OA
ATOM      3  N   UNL     1       3.167   6.153  18.596  0.00  0.00    +0.000 N 
ATOM      4  H   UNL     1       2.908   6.132  19.584  0.00  0.00    +0.000 HD
ENDROOT
BRANCH   1  16
ATOM      5  C   UNL     1       6.183   3.675  12.443  0.00  0.00    +0.000 A 
ATOM      6  C   UNL     1       7.219   4.583  12.218  0.00  0.00    +0.000 A 
ATOM      7  C   UNL     1       7.719   5.360  13.272  0.00  0.00    +0.000 A 
ATOM      8  C   UNL     1       7.159   5.269  14.550  0.00  0.00    +0.000 A 
ATOM      9  C   UNL     1       6.067   4.428  14.788  0.00  0.00    +0.000 A 
ATOM     10  C   UNL     1       5.656   3.591  13.733  0.00  0.00    +0.000 A 
ATOM     11  C   UNL     1       5.479   4.305  16.183  0.00  0.00    +0.000 C 
ATOM     12  C   UNL     1       6.605   4.462  17.184  0.00  0.00    +0.000 C 
ATOM     13  C   UNL     1       7.223   5.846  16.869  0.00  0.00    +0.000 C 
ATOM     14  O   UNL     1       7.799   5.958  15.553  0.00  0.00    +0.000 OA
ATOM     15  C   UNL     1       4.098   3.612  16.166  0.00  0.00    +0.000 C 
ATOM     16  C   UNL     1       4.211   4.984  16.711  0.00  0.00    +0.000 C 
BRANCH   5  18
ATOM     17  C   UNL     1       5.991   1.340  11.553  0.00  0.00    +0.000 C 
ATOM     18  C   UNL     1       5.571   2.798  11.366  0.00  0.00    +0.000 C 
ATOM     19  C   UNL     1       4.054   2.948  11.270  0.00  0.00    +0.000 C 
ENDBRANCH   5  18
ENDBRANCH   1  16
BRANCH   3  20
ATOM     20  C   UNL     1       3.013   7.357  17.845  0.00  0.00    +0.000 C 
BRANCH  20  21
ATOM     21  C   UNL     1       2.099   8.334  18.499  0.00  0.00    +0.000 A 
ATOM     22  C   UNL     1       1.600   9.423  17.778  0.00  0.00    +0.000 A 
ATOM     23  C   UNL     1       0.820  10.382  18.409  0.00  0.00    +0.000 A 
ATOM     24  C   UNL     1       0.530  10.258  19.773  0.00  0.00    +0.000 A 
ATOM     25  C   UNL     1       0.986   9.142  20.496  0.00  0.00    +0.000 A 
ATOM     26  C   UNL     1       1.769   8.179  19.845  0.00  0.00    +0.000 A 
BRANCH  25  27
ATOM     27  C   UNL     1       0.735   8.939  21.951  0.00  0.00    +0.000 C 
ATOM     28  N   UNL     1       1.785   9.012  22.816  0.00  0.00    +0.000 N 
ATOM     29  O   UNL     1      -0.396   8.715  22.379  0.00  0.00    +0.000 OA
ATOM     30  H   UNL     1       2.745   9.145  22.550  0.00  0.00    +0.000 HD
ATOM     31  H   UNL     1       1.581   8.849  23.794  0.00  0.00    +0.000 HD
ENDBRANCH  25  27
ENDBRANCH  20  21
ENDBRANCH   3  20
TORSDOF 5
ENDMDL
MODEL 7
REMARK VINA RESULT:      -8.8      1.603      2.103
REMARK  Name = 
REMARK  7 active torsions:
REMARK  status: ('A' for Active; 'I' for Inactive)
REMARK    1  A    between atoms: C_1  and  C_2
REMARK    2  A    between atoms: C_2  and  C_3
REMARK    3  A    between atoms: C_2  and  C_4
REMARK    4  A    between atoms: C_15  and  C_16
REMARK    5  A    between atoms: N_18  and  C_19
REMARK    6  A    between atoms: C_19  and  C_20
REMARK    7  A    between atoms: C_24  and  C_25
REMARK                            x       y       z     vdW  Elec       q    Type
REMARK                         _______ _______ _______ _____ _____    ______ ____
ROOT
ATOM      1  C   UNL     1       3.855   4.712  18.442  0.00  0.00    +0.000 C 
ATOM      2  O   UNL     1       4.151   3.764  19.160  0.00  0.00    +0.000 OA
ATOM      3  N   UNL     1       3.105   5.731  18.939  0.00  0.00    +0.000 N 
ATOM      4  H   UNL     1       2.870   5.641  19.929  0.00  0.00    +0.000 HD
ENDROOT
BRANCH   1  16
ATOM      5  C   UNL     1       6.174   3.798  12.617  0.00  0.00    +0.000 A 
ATOM      6  C   UNL     1       7.165   4.763  12.430  0.00  0.00    +0.000 A 
ATOM      7  C   UNL     1       7.652   5.496  13.521  0.00  0.00    +0.000 A 
ATOM      8  C   UNL     1       7.121   5.305  14.800  0.00  0.00    +0.000 A 
ATOM      9  C   UNL     1       6.071   4.404  15.005  0.00  0.00    +0.000 A 
ATOM     10  C   UNL     1       5.676   3.615  13.908  0.00  0.00    +0.000 A 
ATOM     11  C   UNL     1       5.516   4.172  16.400  0.00  0.00    +0.000 C 
ATOM     12  C   UNL     1       6.654   4.318  17.389  0.00  0.00    +0.000 C 
ATOM     13  C   UNL     1       7.205   5.744  17.148  0.00  0.00    +0.000 C 
ATOM     14  O   UNL     1       7.750   5.960  15.831  0.00  0.00    +0.000 OA
ATOM     15  C   UNL     1       4.166   3.421  16.363  0.00  0.00    +0.000 C 
ATOM     16  C   UNL     1       4.231   4.762  16.988  0.00  0.00    +0.000 C 
BRANCH   5  18
ATOM     17  C   UNL     1       6.011   1.501  11.629  0.00  0.00    +0.000 C 
ATOM     18  C   UNL     1       5.579   2.961  11.499  0.00  0.00    +0.000 C 
ATOM     19  C   UNL     1       4.062   3.101  11.396  0.00  0.00    +0.000 C 
ENDBRANCH   5  18
ENDBRANCH   1  16
BRANCH   3  20
ATOM     20  C   UNL     1       2.805   6.940  18.244  0.00  0.00    +0.000 C 
BRANCH  20  21
ATOM     21  C   UNL     1       2.072   7.925  19.085  0.00  0.00    +0.000 A 
ATOM     22  C   UNL     1       1.813   7.647  20.431  0.00  0.00    +0.000 A 
ATOM     23  C   UNL     1       1.054   8.524  21.194  0.00  0.00    +0.000 A 
ATOM     24  C   UNL     1       0.546   9.692  20.614  0.00  0.00    +0.000 A 
ATOM     25  C   UNL     1       0.840  10.006  19.276  0.00  0.00    +0.000 A 
ATOM     26  C   UNL     1       1.612   9.113  18.519  0.00  0.00    +0.000 A 
BRANCH  25  27
ATOM     27  C   UNL     1       0.329  11.219  18.577  0.00  0.00    +0.000 C 
ATOM     28  N   UNL     1      -0.849  11.140  17.899  0.00  0.00    +0.000 N 
ATOM     29  O   UNL     1       0.947  12.282  18.610  0.00  0.00    +0.000 OA
ATOM     30  H   UNL     1      -1.394  10.304  17.782  0.00  0.00    +0.000 HD
ATOM     31  H   UNL     1      -1.154  11.978  17.419  0.00  0.00    +0.000 HD
ENDBRANCH  25  27
ENDBRANCH  20  21
ENDBRANCH   3  20
TORSDOF 5
ENDMDL
MODEL 8
REMARK VINA RESULT:      -8.7      1.034      1.324
REMARK  Name = 
REMARK  7 active torsions:
REMARK  status: ('A' for Active; 'I' for Inactive)
REMARK    1  A    between atoms: C_1  and  C_2
REMARK    2  A    between atoms: C_2  and  C_3
REMARK    3  A    between atoms: C_2  and  C_4
REMARK    4  A    between atoms: C_15  and  C_16
REMARK    5  A    between atoms: N_18  and  C_19
REMARK    6  A    between atoms: C_19  and  C_20
REMARK    7  A    between atoms: C_24  and  C_25
REMARK                            x       y       z     vdW  Elec       q    Type
REMARK                         _______ _______ _______ _____ _____    ______ ____
ROOT
ATOM      1  C   UNL     1       2.205   4.533  18.829  0.00  0.00    +0.000 C 
ATOM      2  O   UNL     1       1.606   3.485  19.038  0.00  0.00    +0.000 OA
ATOM      3  N   UNL     1       2.076   5.573  19.694  0.00  0.00    +0.000 N 
ATOM      4  H   UNL     1       1.493   5.376  20.510  0.00  0.00    +0.000 HD
ENDROOT
BRANCH   1  16
ATOM      5  C   UNL     1       6.098   4.132  13.846  0.00  0.00    +0.000 A 
ATOM      6  C   UNL     1       7.245   4.852  14.181  0.00  0.00    +0.000 A 
ATOM      7  C   UNL     1       7.470   5.247  15.507  0.00  0.00    +0.000 A 
ATOM      8  C   UNL     1       6.527   4.965  16.502  0.00  0.00    +0.000 A 
ATOM      9  C   UNL     1       5.330   4.317  16.182  0.00  0.00    +0.000 A 
ATOM     10  C   UNL     1       5.184   3.848  14.862  0.00  0.00    +0.000 A 
ATOM     11  C   UNL     1       4.322   3.982  17.267  0.00  0.00    +0.000 C 
ATOM     12  C   UNL     1       5.084   3.679  18.540  0.00  0.00    +0.000 C 
ATOM     13  C   UNL     1       5.919   4.954  18.813  0.00  0.00    +0.000 C 
ATOM     14  O   UNL     1       6.890   5.262  17.794  0.00  0.00    +0.000 OA
ATOM     15  C   UNL     1       2.950   3.590  16.675  0.00  0.00    +0.000 C 
ATOM     16  C   UNL     1       3.036   4.747  17.595  0.00  0.00    +0.000 C 
BRANCH   5  18
ATOM     17  C   UNL     1       6.663   2.503  12.027  0.00  0.00    +0.000 C 
ATOM     18  C   UNL     1       5.764   3.668  12.439  0.00  0.00    +0.000 C 
ATOM     19  C   UNL     1       4.284   3.341  12.258  0.00  0.00    +0.000 C 
ENDBRANCH   5  18
ENDBRANCH   1  16
BRANCH   3  20
ATOM     20  C   UNL     1       2.818   6.790  19.628  0.00  0.00    +0.000 C 
BRANCH  20  21
ATOM     21  C   UNL     1       1.953   8.000  19.686  0.00  0.00    +0.000 A 
ATOM     22  C   UNL     1       1.726   8.759  18.534  0.00  0.00    +0.000 A 
ATOM     23  C   UNL     1       0.993   9.936  18.604  0.00  0.00    +0.000 A 
ATOM     24  C   UNL     1       0.476  10.363  19.832  0.00  0.00    +0.000 A 
ATOM     25  C   UNL     1       0.656   9.582  20.988  0.00  0.00    +0.000 A 
ATOM     26  C   UNL     1       1.395   8.395  20.901  0.00  0.00    +0.000 A 
BRANCH  25  27
ATOM     27  C   UNL     1       0.153   9.969  22.336  0.00  0.00    +0.000 C 
ATOM     28  N   UNL     1      -0.947  10.767  22.423  0.00  0.00    +0.000 N 
ATOM     29  O   UNL     1       0.708   9.577  23.361  0.00  0.00    +0.000 OA
ATOM     30  H   UNL     1      -1.434  11.169  21.641  0.00  0.00    +0.000 HD
ATOM     31  H   UNL     1      -1.249  11.026  23.354  0.00  0.00    +0.000 HD
ENDBRANCH  25  27
ENDBRANCH  20  21
ENDBRANCH   3  20
TORSDOF 5
ENDMDL
MODEL 9
REMARK VINA RESULT:      -8.4      2.243      3.486
REMARK  Name = 
REMARK  7 active torsions:
REMARK  status: ('A' for Active; 'I' for Inactive)
REMARK    1  A    between atoms: C_1  and  C_2
REMARK    2  A    between atoms: C_2  and  C_3
REMARK    3  A    between atoms: C_2  and  C_4
REMARK    4  A    between atoms: C_15  and  C_16
REMARK    5  A    between atoms: N_18  and  C_19
REMARK    6  A    between atoms: C_19  and  C_20
REMARK    7  A    between atoms: C_24  and  C_25
REMARK                            x       y       z     vdW  Elec       q    Type
REMARK                         _______ _______ _______ _____ _____    ______ ____
ROOT
ATOM      1  C   UNL     1       1.063   3.508  19.078  0.00  0.00    +0.000 C 
ATOM      2  O   UNL     1       0.270   2.688  18.629  0.00  0.00    +0.000 OA
ATOM      3  N   UNL     1       0.904   3.984  20.341  0.00  0.00    +0.000 N 
ATOM      4  H   UNL     1       0.123   3.572  20.854  0.00  0.00    +0.000 HD
ENDROOT
BRANCH   1  16
ATOM      5  C   UNL     1       6.076   4.569  15.350  0.00  0.00    +0.000 A 
ATOM      6  C   UNL     1       7.119   4.960  16.192  0.00  0.00    +0.000 A 
ATOM      7  C   UNL     1       7.011   4.786  17.579  0.00  0.00    +0.000 A 
ATOM      8  C   UNL     1       5.842   4.264  18.141  0.00  0.00    +0.000 A 
ATOM      9  C   UNL     1       4.749   3.939  17.331  0.00  0.00    +0.000 A 
ATOM     10  C   UNL     1       4.928   4.032  15.938  0.00  0.00    +0.000 A 
ATOM     11  C   UNL     1       3.492   3.341  17.938  0.00  0.00    +0.000 C 
ATOM     12  C   UNL     1       3.900   2.483  19.117  0.00  0.00    +0.000 C 
ATOM     13  C   UNL     1       4.670   3.443  20.056  0.00  0.00    +0.000 C 
ATOM     14  O   UNL     1       5.874   3.997  19.489  0.00  0.00    +0.000 OA
ATOM     15  C   UNL     1       2.304   3.377  16.950  0.00  0.00    +0.000 C 
ATOM     16  C   UNL     1       2.183   4.073  18.251  0.00  0.00    +0.000 C 
BRANCH   5  18
ATOM     17  C   UNL     1       7.490   5.123  13.357  0.00  0.00    +0.000 C 
ATOM     18  C   UNL     1       6.097   4.723  13.841  0.00  0.00    +0.000 C 
ATOM     19  C   UNL     1       5.570   3.490  13.111  0.00  0.00    +0.000 C 
ENDBRANCH   5  18
ENDBRANCH   1  16
BRANCH   3  20
ATOM     20  C   UNL     1       1.828   4.837  21.016  0.00  0.00    +0.000 C 
BRANCH  20  21
ATOM     21  C   UNL     1       1.659   6.272  20.657  0.00  0.00    +0.000 A 
ATOM     22  C   UNL     1       0.914   7.121  21.482  0.00  0.00    +0.000 A 
ATOM     23  C   UNL     1       0.682   8.437  21.104  0.00  0.00    +0.000 A 
ATOM     24  C   UNL     1       1.197   8.917  19.894  0.00  0.00    +0.000 A 
ATOM     25  C   UNL     1       1.988   8.086  19.081  0.00  0.00    +0.000 A 
ATOM     26  C   UNL     1       2.218   6.761  19.477  0.00  0.00    +0.000 A 
BRANCH  25  27
ATOM     27  C   UNL     1       2.563   8.511  17.774  0.00  0.00    +0.000 C 
ATOM     28  N   UNL     1       3.576   7.780  17.232  0.00  0.00    +0.000 N 
ATOM     29  O   UNL     1       2.135   9.499  17.180  0.00  0.00    +0.000 OA
ATOM     30  H   UNL     1       4.016   6.989  17.668  0.00  0.00    +0.000 HD
ATOM     31  H   UNL     1       3.955   8.110  16.353  0.00  0.00    +0.000 HD
ENDBRANCH  25  27
ENDBRANCH  20  21
ENDBRANCH   3  20
TORSDOF 5
ENDMDL
