MODEL 1
REMARK VINA RESULT:      -8.4      0.000      0.000
REMARK  Name = 
REMARK  7 active torsions:
REMARK  status: ('A' for Active; 'I' for Inactive)
REMARK    1  A    between atoms: C_1  and  C_2
REMARK    2  A    between atoms: C_6  and  C_7
REMARK    3  A    between atoms: C_7  and  N_8
REMARK    4  A    between atoms: N_8  and  C_9
REMARK    5  A    between atoms: C_9  and  C_10
REMARK    6  A    between atoms: C_9  and  C_20
REMARK    7  A    between atoms: C_10  and  N_11
REMARK                            x       y       z     vdW  Elec       q    Type
REMARK                         _______ _______ _______ _____ _____    ______ ____
ROOT
ATOM      1  C   UNL     1       4.909   4.803  18.266  0.00  0.00    +0.000 C 
ENDROOT
BRANCH   1   2
ATOM      2  C   UNL     1       3.913   5.948  18.475  0.00  0.00    +0.000 A 
ATOM      3  C   UNL     1       3.784   6.963  17.508  0.00  0.00    +0.000 A 
ATOM      4  C   UNL     1       2.886   8.015  17.700  0.00  0.00    +0.000 A 
ATOM      5  C   UNL     1       2.114   8.057  18.854  0.00  0.00    +0.000 A 
ATOM      6  F   UNL     1       1.267   9.078  19.046  0.00  0.00    +0.000 F 
ATOM      7  C   UNL     1       2.206   7.058  19.813  0.00  0.00    +0.000 A 
ATOM      8  C   UNL     1       3.095   6.002  19.621  0.00  0.00    +0.000 A 
ENDBRANCH   1   2
BRANCH   1   9
ATOM      9  N   UNL     1       4.748   3.798  19.329  0.00  0.00    +0.000 NA
ATOM     10  H   UNL     1       5.645   3.673  19.801  0.00  0.00    +0.000 HD
BRANCH   9  11
ATOM     11  C   UNL     1       4.268   2.484  18.919  0.00  0.00    +0.000 C 
BRANCH  11  17
ATOM     12  C   UNL     1       2.473   2.789  21.652  0.00  0.00    +0.000 C 
ATOM     13  C   UNL     1       2.003   2.634  20.254  0.00  0.00    +0.000 A 
ATOM     14  N   UNL     1       0.688   2.620  19.998  0.00  0.00    +0.000 NA
ATOM     15  N   UNL     1       0.613   2.486  18.668  0.00  0.00    +0.000 N 
ATOM     16  C   UNL     1       1.831   2.406  18.064  0.00  0.00    +0.000 A 
ATOM     17  C   UNL     1       2.780   2.503  19.066  0.00  0.00    +0.000 A 
ATOM     18  H   UNL     1      -0.304   2.461  18.234  0.00  0.00    +0.000 HD
ENDBRANCH  11  17
ENDBRANCH   9  11
ENDBRANCH   1   9
BRANCH   1  19
ATOM     19  C   UNL     1       4.829   4.285  16.806  0.00  0.00    +0.000 C 
BRANCH  19  20
ATOM     20  N   UNL     1       5.942   4.602  15.935  0.00  0.00    +0.000 N 
ATOM     21  C   UNL     1       6.970   5.445  16.258  0.00  0.00    +0.000 A 
ATOM     22  N   UNL     1       7.735   5.714  15.227  0.00  0.00    +0.000 NA
ATOM     23  C   UNL     1       7.196   4.998  14.191  0.00  0.00    +0.000 A 
ATOM     24  C   UNL     1       7.612   4.936  12.853  0.00  0.00    +0.000 A 
ATOM     25  C   UNL     1       6.913   4.112  11.968  0.00  0.00    +0.000 A 
ATOM     26  C   UNL     1       5.819   3.362  12.407  0.00  0.00    +0.000 A 
ATOM     27  C   UNL     1       5.376   3.426  13.735  0.00  0.00    +0.000 A 
ATOM     28  C   UNL     1       6.085   4.262  14.606  0.00  0.00    +0.000 A 
ENDBRANCH  19  20
ENDBRANCH   1  19
TORSDOF 6
ENDMDL
MODEL 2
REMARK VINA RESULT:      -8.4      2.570      7.028
REMARK  Name = 
REMARK  7 active torsions:
REMARK  status: ('A' for Active; 'I' for Inactive)
REMARK    1  A    between atoms: C_1  and  C_2
REMARK    2  A    between atoms: C_6  and  C_7
REMARK    3  A    between atoms: C_7  and  N_8
REMARK    4  A    between atoms: N_8  and  C_9
REMARK    5  A    between atoms: C_9  and  C_10
REMARK    6  A    between atoms: C_9  and  C_20
REMARK    7  A    between atoms: C_10  and  N_11
REMARK                            x       y       z     vdW  Elec       q    Type
REMARK                         _______ _______ _______ _____ _____    ______ ____
ROOT
ATOM      1  C   UNL     1       5.828   4.694  17.226  0.00  0.00    +0.000 C 
ENDROOT
BRANCH   1   2
ATOM      2  C   UNL     1       6.712   5.852  17.699  0.00  0.00    +0.000 A 
ATOM      3  C   UNL     1       6.666   7.095  17.040  0.00  0.00    +0.000 A 
ATOM      4  C   UNL     1       7.479   8.150  17.461  0.00  0.00    +0.000 A 
ATOM      5  C   UNL     1       8.337   7.969  18.538  0.00  0.00    +0.000 A 
ATOM      6  F   UNL     1       9.131   8.976  18.927  0.00  0.00    +0.000 F 
ATOM      7  C   UNL     1       8.386   6.760  19.218  0.00  0.00    +0.000 A 
ATOM      8  C   UNL     1       7.570   5.708  18.807  0.00  0.00    +0.000 A 
ENDBRANCH   1   2
BRANCH   1   9
ATOM      9  N   UNL     1       6.545   3.894  16.220  0.00  0.00    +0.000 NA
ATOM     10  H   UNL     1       7.392   4.395  15.946  0.00  0.00    +0.000 HD
BRANCH   9  11
ATOM     11  C   UNL     1       5.810   3.557  15.007  0.00  0.00    +0.000 C 
BRANCH  11  17
ATOM     12  C   UNL     1       5.732   2.731  11.829  0.00  0.00    +0.000 C 
ATOM     13  C   UNL     1       6.533   3.793  12.485  0.00  0.00    +0.000 A 
ATOM     14  N   UNL     1       7.342   4.561  11.744  0.00  0.00    +0.000 NA
ATOM     15  N   UNL     1       7.890   5.408  12.626  0.00  0.00    +0.000 N 
ATOM     16  C   UNL     1       7.466   5.205  13.903  0.00  0.00    +0.000 A 
ATOM     17  C   UNL     1       6.567   4.154  13.864  0.00  0.00    +0.000 A 
ATOM     18  H   UNL     1       8.544   6.105  12.285  0.00  0.00    +0.000 HD
ENDBRANCH  11  17
ENDBRANCH   9  11
ENDBRANCH   1   9
BRANCH   1  19
ATOM     19  C   UNL     1       5.260   3.922  18.446  0.00  0.00    +0.000 C 
BRANCH  19  20
ATOM     20  N   UNL     1       3.842   3.627  18.433  0.00  0.00    +0.000 N 
ATOM     21  C   UNL     1       3.018   3.799  17.355  0.00  0.00    +0.000 A 
ATOM     22  N   UNL     1       1.753   3.650  17.666  0.00  0.00    +0.000 NA
ATOM     23  C   UNL     1       1.752   3.342  19.000  0.00  0.00    +0.000 A 
ATOM     24  C   UNL     1       0.661   3.099  19.847  0.00  0.00    +0.000 A 
ATOM     25  C   UNL     1       0.904   2.781  21.186  0.00  0.00    +0.000 A 
ATOM     26  C   UNL     1       2.211   2.707  21.673  0.00  0.00    +0.000 A 
ATOM     27  C   UNL     1       3.314   2.967  20.848  0.00  0.00    +0.000 A 
ATOM     28  C   UNL     1       3.050   3.289  19.511  0.00  0.00    +0.000 A 
ENDBRANCH  19  20
ENDBRANCH   1  19
TORSDOF 6
ENDMDL
MODEL 3
REMARK VINA RESULT:      -8.4      0.693      1.255
REMARK  Name = 
REMARK  7 active torsions:
REMARK  status: ('A' for Active; 'I' for Inactive)
REMARK    1  A    between atoms: C_1  and  C_2
REMARK    2  A    between atoms: C_6  and  C_7
REMARK    3  A    between atoms: C_7  and  N_8
REMARK    4  A    between atoms: N_8  and  C_9
REMARK    5  A    between atoms: C_9  and  C_10
REMARK    6  A    between atoms: C_9  and  C_20
REMARK    7  A    between atoms: C_10  and  N_11
REMARK                            x       y       z     vdW  Elec       q    Type
REMARK                         _______ _______ _______ _____ _____    ______ ____
ROOT
ATOM      1  C   UNL     1       4.887   4.950  18.080  0.00  0.00    +0.000 C 
ENDROOT
BRANCH   1   2
ATOM      2  C   UNL     1       3.882   6.067  18.377  0.00  0.00    +0.000 A 
ATOM      3  C   UNL     1       3.698   7.120  17.461  0.00  0.00    +0.000 A 
ATOM      4  C   UNL     1       2.790   8.146  17.733  0.00  0.00    +0.000 A 
ATOM      5  C   UNL     1       2.064   8.125  18.917  0.00  0.00    +0.000 A 
ATOM      6  F   UNL     1       1.210   9.121  19.185  0.00  0.00    +0.000 F 
ATOM      7  C   UNL     1       2.211   7.088  19.827  0.00  0.00    +0.000 A 
ATOM      8  C   UNL     1       3.109   6.058  19.556  0.00  0.00    +0.000 A 
ENDBRANCH   1   2
BRANCH   1   9
ATOM      9  N   UNL     1       4.801   3.909  19.118  0.00  0.00    +0.000 NA
ATOM     10  H   UNL     1       5.739   3.545  19.296  0.00  0.00    +0.000 HD
BRANCH   9  11
ATOM     11  C   UNL     1       3.925   2.778  18.838  0.00  0.00    +0.000 C 
BRANCH  11  17
ATOM     12  C   UNL     1       0.642   2.760  18.724  0.00  0.00    +0.000 C 
ATOM     13  C   UNL     1       1.523   2.695  19.915  0.00  0.00    +0.000 A 
ATOM     14  N   UNL     1       0.976   2.603  21.135  0.00  0.00    +0.000 NA
ATOM     15  N   UNL     1       2.027   2.547  21.963  0.00  0.00    +0.000 N 
ATOM     16  C   UNL     1       3.225   2.607  21.319  0.00  0.00    +0.000 A 
ATOM     17  C   UNL     1       2.948   2.701  19.967  0.00  0.00    +0.000 A 
ATOM     18  H   UNL     1       1.855   2.463  22.960  0.00  0.00    +0.000 HD
ENDBRANCH  11  17
ENDBRANCH   9  11
ENDBRANCH   1   9
BRANCH   1  19
ATOM     19  C   UNL     1       4.741   4.476  16.611  0.00  0.00    +0.000 C 
BRANCH  19  20
ATOM     20  N   UNL     1       5.880   4.679  15.739  0.00  0.00    +0.000 N 
ATOM     21  C   UNL     1       6.964   5.458  16.040  0.00  0.00    +0.000 A 
ATOM     22  N   UNL     1       7.753   5.632  15.007  0.00  0.00    +0.000 NA
ATOM     23  C   UNL     1       7.172   4.916  13.994  0.00  0.00    +0.000 A 
ATOM     24  C   UNL     1       7.592   4.773  12.664  0.00  0.00    +0.000 A 
ATOM     25  C   UNL     1       6.842   3.966  11.803  0.00  0.00    +0.000 A 
ATOM     26  C   UNL     1       5.693   3.314  12.260  0.00  0.00    +0.000 A 
ATOM     27  C   UNL     1       5.247   3.462  13.580  0.00  0.00    +0.000 A 
ATOM     28  C   UNL     1       6.008   4.278  14.426  0.00  0.00    +0.000 A 
ENDBRANCH  19  20
ENDBRANCH   1  19
TORSDOF 6
ENDMDL
MODEL 4
REMARK VINA RESULT:      -8.3      0.574      1.536
REMARK  Name = 
REMARK  7 active torsions:
REMARK  status: ('A' for Active; 'I' for Inactive)
REMARK    1  A    between atoms: C_1  and  C_2
REMARK    2  A    between atoms: C_6  and  C_7
REMARK    3  A    between atoms: C_7  and  N_8
REMARK    4  A    between atoms: N_8  and  C_9
REMARK    5  A    between atoms: C_9  and  C_10
REMARK    6  A    between atoms: C_9  and  C_20
REMARK    7  A    between atoms: C_10  and  N_11
REMARK                            x       y       z     vdW  Elec       q    Type
REMARK                         _______ _______ _______ _____ _____    ______ ____
ROOT
ATOM      1  C   UNL     1       5.146   4.647  18.249  0.00  0.00    +0.000 C 
ENDROOT
BRANCH   1   2
ATOM      2  C   UNL     1       4.131   5.774  18.464  0.00  0.00    +0.000 A 
ATOM      3  C   UNL     1       3.420   5.868  19.675  0.00  0.00    +0.000 A 
ATOM      4  C   UNL     1       2.486   6.887  19.871  0.00  0.00    +0.000 A 
ATOM      5  C   UNL     1       2.258   7.814  18.862  0.00  0.00    +0.000 A 
ATOM      6  F   UNL     1       1.346   8.779  19.044  0.00  0.00    +0.000 F 
ATOM      7  C   UNL     1       2.960   7.756  17.667  0.00  0.00    +0.000 A 
ATOM      8  C   UNL     1       3.900   6.746  17.470  0.00  0.00    +0.000 A 
ENDBRANCH   1   2
BRANCH   1   9
ATOM      9  N   UNL     1       5.033   3.657  19.333  0.00  0.00    +0.000 NA
ATOM     10  H   UNL     1       5.969   3.331  19.578  0.00  0.00    +0.000 HD
BRANCH   9  11
ATOM     11  C   UNL     1       4.205   2.487  19.066  0.00  0.00    +0.000 C 
BRANCH  11  17
ATOM     12  C   UNL     1       1.184   3.355  18.110  0.00  0.00    +0.000 C 
ATOM     13  C   UNL     1       1.657   3.016  19.474  0.00  0.00    +0.000 A 
ATOM     14  N   UNL     1       0.791   3.035  20.496  0.00  0.00    +0.000 NA
ATOM     15  N   UNL     1       1.524   2.671  21.556  0.00  0.00    +0.000 N 
ATOM     16  C   UNL     1       2.828   2.429  21.252  0.00  0.00    +0.000 A 
ATOM     17  C   UNL     1       2.967   2.638  19.891  0.00  0.00    +0.000 A 
ATOM     18  H   UNL     1       1.068   2.605  22.460  0.00  0.00    +0.000 HD
ENDBRANCH  11  17
ENDBRANCH   9  11
ENDBRANCH   1   9
BRANCH   1  19
ATOM     19  C   UNL     1       5.039   4.102  16.800  0.00  0.00    +0.000 C 
BRANCH  19  20
ATOM     20  N   UNL     1       6.091   4.479  15.878  0.00  0.00    +0.000 N 
ATOM     21  C   UNL     1       7.103   5.354  16.164  0.00  0.00    +0.000 A 
ATOM     22  N   UNL     1       7.800   5.674  15.100  0.00  0.00    +0.000 NA
ATOM     23  C   UNL     1       7.234   4.958  14.080  0.00  0.00    +0.000 A 
ATOM     24  C   UNL     1       7.579   4.939  12.721  0.00  0.00    +0.000 A 
ATOM     25  C   UNL     1       6.865   4.105  11.855  0.00  0.00    +0.000 A 
ATOM     26  C   UNL     1       5.825   3.305  12.335  0.00  0.00    +0.000 A 
ATOM     27  C   UNL     1       5.452   3.326  13.686  0.00  0.00    +0.000 A 
ATOM     28  C   UNL     1       6.175   4.171  14.537  0.00  0.00    +0.000 A 
ENDBRANCH  19  20
ENDBRANCH   1  19
TORSDOF 6
ENDMDL
MODEL 5
REMARK VINA RESULT:      -8.3      3.142      6.715
REMARK  Name = 
REMARK  7 active torsions:
REMARK  status: ('A' for Active; 'I' for Inactive)
REMARK    1  A    between atoms: C_1  and  C_2
REMARK    2  A    between atoms: C_6  and  C_7
REMARK    3  A    between atoms: C_7  and  N_8
REMARK    4  A    between atoms: N_8  and  C_9
REMARK    5  A    between atoms: C_9  and  C_10
REMARK    6  A    between atoms: C_9  and  C_20
REMARK    7  A    between atoms: C_10  and  N_11
REMARK                            x       y       z     vdW  Elec       q    Type
REMARK                         _______ _______ _______ _____ _____    ______ ____
ROOT
ATOM      1  C   UNL     1       2.728   5.956  18.137  0.00  0.00    +0.000 C 
ENDROOT
BRANCH   1   2
ATOM      2  C   UNL     1       4.177   5.499  17.941  0.00  0.00    +0.000 A 
ATOM      3  C   UNL     1       4.622   5.072  16.676  0.00  0.00    +0.000 A 
ATOM      4  C   UNL     1       5.939   4.644  16.496  0.00  0.00    +0.000 A 
ATOM      5  C   UNL     1       6.815   4.641  17.574  0.00  0.00    +0.000 A 
ATOM      6  F   UNL     1       8.072   4.211  17.403  0.00  0.00    +0.000 F 
ATOM      7  C   UNL     1       6.407   5.077  18.826  0.00  0.00    +0.000 A 
ATOM      8  C   UNL     1       5.096   5.514  19.009  0.00  0.00    +0.000 A 
ENDBRANCH   1   2
BRANCH   1   9
ATOM      9  N   UNL     1       1.823   4.797  18.063  0.00  0.00    +0.000 NA
ATOM     10  H   UNL     1       1.072   4.924  18.743  0.00  0.00    +0.000 HD
BRANCH   9  11
ATOM     11  C   UNL     1       2.419   3.486  18.290  0.00  0.00    +0.000 C 
BRANCH  11  17
ATOM     12  C   UNL     1       4.578   2.086  20.332  0.00  0.00    +0.000 C 
ATOM     13  C   UNL     1       3.215   2.586  20.634  0.00  0.00    +0.000 A 
ATOM     14  N   UNL     1       2.743   2.498  21.885  0.00  0.00    +0.000 NA
ATOM     15  N   UNL     1       1.522   3.044  21.814  0.00  0.00    +0.000 N 
ATOM     16  C   UNL     1       1.193   3.471  20.565  0.00  0.00    +0.000 A 
ATOM     17  C   UNL     1       2.277   3.196  19.750  0.00  0.00    +0.000 A 
ATOM     18  H   UNL     1       0.966   3.098  22.662  0.00  0.00    +0.000 HD
ENDBRANCH  11  17
ENDBRANCH   9  11
ENDBRANCH   1   9
BRANCH   1  19
ATOM     19  C   UNL     1       2.614   6.842  19.405  0.00  0.00    +0.000 C 
BRANCH  19  20
ATOM     20  N   UNL     1       1.878   8.083  19.274  0.00  0.00    +0.000 N 
ATOM     21  C   UNL     1       1.843   8.855  18.145  0.00  0.00    +0.000 A 
ATOM     22  N   UNL     1       1.274  10.018  18.354  0.00  0.00    +0.000 NA
ATOM     23  C   UNL     1       0.899   9.995  19.671  0.00  0.00    +0.000 A 
ATOM     24  C   UNL     1       0.264  10.994  20.423  0.00  0.00    +0.000 A 
ATOM     25  C   UNL     1      -0.043  10.737  21.762  0.00  0.00    +0.000 A 
ATOM     26  C   UNL     1       0.279   9.508  22.342  0.00  0.00    +0.000 A 
ATOM     27  C   UNL     1       0.932   8.505  21.613  0.00  0.00    +0.000 A 
ATOM     28  C   UNL     1       1.236   8.782  20.274  0.00  0.00    +0.000 A 
ENDBRANCH  19  20
ENDBRANCH   1  19
TORSDOF 6
ENDMDL
MODEL 6
REMARK VINA RESULT:      -8.2      1.845      3.071
REMARK  Name = 
REMARK  7 active torsions:
REMARK  status: ('A' for Active; 'I' for Inactive)
REMARK    1  A    between atoms: C_1  and  C_2
REMARK    2  A    between atoms: C_6  and  C_7
REMARK    3  A    between atoms: C_7  and  N_8
REMARK    4  A    between atoms: N_8  and  C_9
REMARK    5  A    between atoms: C_9  and  C_10
REMARK    6  A    between atoms: C_9  and  C_20
REMARK    7  A    between atoms: C_10  and  N_11
REMARK                            x       y       z     vdW  Elec       q    Type
REMARK                         _______ _______ _______ _____ _____    ______ ____
ROOT
ATOM      1  C   UNL     1       2.535   6.423  19.777  0.00  0.00    +0.000 C 
ENDROOT
BRANCH   1   2
ATOM      2  C   UNL     1       1.940   7.825  19.620  0.00  0.00    +0.000 A 
ATOM      3  C   UNL     1       1.309   8.456  20.709  0.00  0.00    +0.000 A 
ATOM      4  C   UNL     1       0.755   9.730  20.566  0.00  0.00    +0.000 A 
ATOM      5  C   UNL     1       0.828  10.378  19.340  0.00  0.00    +0.000 A 
ATOM      6  F   UNL     1       0.278  11.591  19.200  0.00  0.00    +0.000 F 
ATOM      7  C   UNL     1       1.463   9.787  18.256  0.00  0.00    +0.000 A 
ATOM      8  C   UNL     1       2.025   8.520  18.397  0.00  0.00    +0.000 A 
ENDBRANCH   1   2
BRANCH   1   9
ATOM      9  N   UNL     1       1.591   5.557  20.504  0.00  0.00    +0.000 NA
ATOM     10  H   UNL     1       1.144   6.105  21.241  0.00  0.00    +0.000 HD
BRANCH   9  11
ATOM     11  C   UNL     1       2.145   4.352  21.112  0.00  0.00    +0.000 C 
BRANCH  11  17
ATOM     12  C   UNL     1       4.417   2.215  20.083  0.00  0.00    +0.000 C 
ATOM     13  C   UNL     1       3.003   2.335  19.653  0.00  0.00    +0.000 A 
ATOM     14  N   UNL     1       2.518   1.485  18.737  0.00  0.00    +0.000 NA
ATOM     15  N   UNL     1       1.238   1.851  18.594  0.00  0.00    +0.000 N 
ATOM     16  C   UNL     1       0.887   2.906  19.378  0.00  0.00    +0.000 A 
ATOM     17  C   UNL     1       2.015   3.260  20.099  0.00  0.00    +0.000 A 
ATOM     18  H   UNL     1       0.656   1.332  17.944  0.00  0.00    +0.000 HD
ENDBRANCH  11  17
ENDBRANCH   9  11
ENDBRANCH   1   9
BRANCH   1  19
ATOM     19  C   UNL     1       3.039   5.899  18.407  0.00  0.00    +0.000 C 
BRANCH  19  20
ATOM     20  N   UNL     1       4.406   5.423  18.349  0.00  0.00    +0.000 N 
ATOM     21  C   UNL     1       5.281   5.433  19.400  0.00  0.00    +0.000 A 
ATOM     22  N   UNL     1       6.504   5.138  19.032  0.00  0.00    +0.000 NA
ATOM     23  C   UNL     1       6.420   4.901  17.686  0.00  0.00    +0.000 A 
ATOM     24  C   UNL     1       7.441   4.563  16.786  0.00  0.00    +0.000 A 
ATOM     25  C   UNL     1       7.112   4.346  15.444  0.00  0.00    +0.000 A 
ATOM     26  C   UNL     1       5.791   4.466  15.007  0.00  0.00    +0.000 A 
ATOM     27  C   UNL     1       4.760   4.824  15.888  0.00  0.00    +0.000 A 
ATOM     28  C   UNL     1       5.109   5.042  17.226  0.00  0.00    +0.000 A 
ENDBRANCH  19  20
ENDBRANCH   1  19
TORSDOF 6
ENDMDL
MODEL 7
REMARK VINA RESULT:      -8.2      2.381      6.928
REMARK  Name = 
REMARK  7 active torsions:
REMARK  status: ('A' for Active; 'I' for Inactive)
REMARK    1  A    between atoms: C_1  and  C_2
REMARK    2  A    between atoms: C_6  and  C_7
REMARK    3  A    between atoms: C_7  and  N_8
REMARK    4  A    between atoms: N_8  and  C_9
REMARK    5  A    between atoms: C_9  and  C_10
REMARK    6  A    between atoms: C_9  and  C_20
REMARK    7  A    between atoms: C_10  and  N_11
REMARK                            x       y       z     vdW  Elec       q    Type
REMARK                         _______ _______ _______ _____ _____    ______ ____
ROOT
ATOM      1  C   UNL     1       5.753   4.458  17.458  0.00  0.00    +0.000 C 
ENDROOT
BRANCH   1   2
ATOM      2  C   UNL     1       6.587   5.710  17.751  0.00  0.00    +0.000 A 
ATOM      3  C   UNL     1       6.350   6.903  17.042  0.00  0.00    +0.000 A 
ATOM      4  C   UNL     1       7.116   8.042  17.298  0.00  0.00    +0.000 A 
ATOM      5  C   UNL     1       8.116   7.997  18.260  0.00  0.00    +0.000 A 
ATOM      6  F   UNL     1       8.862   9.085  18.490  0.00  0.00    +0.000 F 
ATOM      7  C   UNL     1       8.355   6.840  18.988  0.00  0.00    +0.000 A 
ATOM      8  C   UNL     1       7.589   5.702  18.742  0.00  0.00    +0.000 A 
ENDBRANCH   1   2
BRANCH   1   9
ATOM      9  N   UNL     1       6.295   3.760  16.280  0.00  0.00    +0.000 NA
ATOM     10  H   UNL     1       7.213   4.150  16.061  0.00  0.00    +0.000 HD
BRANCH   9  11
ATOM     11  C   UNL     1       5.487   3.801  15.067  0.00  0.00    +0.000 C 
BRANCH  11  17
ATOM     12  C   UNL     1       5.644   2.742  11.962  0.00  0.00    +0.000 C 
ATOM     13  C   UNL     1       6.455   3.796  12.618  0.00  0.00    +0.000 A 
ATOM     14  N   UNL     1       7.384   4.451  11.908  0.00  0.00    +0.000 NA
ATOM     15  N   UNL     1       7.907   5.325  12.777  0.00  0.00    +0.000 N 
ATOM     16  C   UNL     1       7.353   5.248  14.018  0.00  0.00    +0.000 A 
ATOM     17  C   UNL     1       6.388   4.258  13.965  0.00  0.00    +0.000 A 
ATOM     18  H   UNL     1       8.639   5.950  12.455  0.00  0.00    +0.000 HD
ENDBRANCH  11  17
ENDBRANCH   9  11
ENDBRANCH   1   9
BRANCH   1  19
ATOM     19  C   UNL     1       5.587   3.613  18.747  0.00  0.00    +0.000 C 
BRANCH  19  20
ATOM     20  N   UNL     1       4.275   3.054  19.002  0.00  0.00    +0.000 N 
ATOM     21  C   UNL     1       3.845   1.836  18.552  0.00  0.00    +0.000 A 
ATOM     22  N   UNL     1       2.560   1.659  18.747  0.00  0.00    +0.000 NA
ATOM     23  C   UNL     1       2.138   2.801  19.374  0.00  0.00    +0.000 A 
ATOM     24  C   UNL     1       0.846   3.148  19.795  0.00  0.00    +0.000 A 
ATOM     25  C   UNL     1       0.653   4.373  20.439  0.00  0.00    +0.000 A 
ATOM     26  C   UNL     1       1.728   5.238  20.658  0.00  0.00    +0.000 A 
ATOM     27  C   UNL     1       3.022   4.919  20.225  0.00  0.00    +0.000 A 
ATOM     28  C   UNL     1       3.195   3.689  19.578  0.00  0.00    +0.000 A 
ENDBRANCH  19  20
ENDBRANCH   1  19
TORSDOF 6
ENDMDL
MODEL 8
REMARK VINA RESULT:      -8.1      3.058      7.413
REMARK  Name = 
REMARK  7 active torsions:
REMARK  status: ('A' for Active; 'I' for Inactive)
REMARK    1  A    between atoms: C_1  and  C_2
REMARK    2  A    between atoms: C_6  and  C_7
REMARK    3  A    between atoms: C_7  and  N_8
REMARK    4  A    between atoms: N_8  and  C_9
REMARK    5  A    between atoms: C_9  and  C_10
REMARK    6  A    between atoms: C_9  and  C_20
REMARK    7  A    between atoms: C_10  and  N_11
REMARK                            x       y       z     vdW  Elec       q    Type
REMARK                         _______ _______ _______ _____ _____    ______ ____
ROOT
ATOM      1  C   UNL     1       3.583   6.612  18.068  0.00  0.00    +0.000 C 
ENDROOT
BRANCH   1   2
ATOM      2  C   UNL     1       3.078   5.205  18.402  0.00  0.00    +0.000 A 
ATOM      3  C   UNL     1       3.828   4.362  19.243  0.00  0.00    +0.000 A 
ATOM      4  C   UNL     1       3.376   3.074  19.541  0.00  0.00    +0.000 A 
ATOM      5  C   UNL     1       2.178   2.624  19.003  0.00  0.00    +0.000 A 
ATOM      6  F   UNL     1       1.757   1.382  19.273  0.00  0.00    +0.000 F 
ATOM      7  C   UNL     1       1.409   3.443  18.188  0.00  0.00    +0.000 A 
ATOM      8  C   UNL     1       1.851   4.732  17.895  0.00  0.00    +0.000 A 
ENDBRANCH   1   2
BRANCH   1   9
ATOM      9  N   UNL     1       4.509   6.553  16.925  0.00  0.00    +0.000 NA
ATOM     10  H   UNL     1       4.646   5.576  16.664  0.00  0.00    +0.000 HD
BRANCH   9  11
ATOM     11  C   UNL     1       5.822   7.156  17.116  0.00  0.00    +0.000 C 
BRANCH  11  17
ATOM     12  C   UNL     1       7.003   4.601  15.425  0.00  0.00    +0.000 C 
ATOM     13  C   UNL     1       7.244   4.956  16.844  0.00  0.00    +0.000 A 
ATOM     14  N   UNL     1       8.047   4.185  17.590  0.00  0.00    +0.000 NA
ATOM     15  N   UNL     1       8.061   4.786  18.787  0.00  0.00    +0.000 N 
ATOM     16  C   UNL     1       7.291   5.907  18.837  0.00  0.00    +0.000 A 
ATOM     17  C   UNL     1       6.734   6.065  17.580  0.00  0.00    +0.000 A 
ATOM     18  H   UNL     1       8.623   4.377  19.527  0.00  0.00    +0.000 HD
ENDBRANCH  11  17
ENDBRANCH   9  11
ENDBRANCH   1   9
BRANCH   1  19
ATOM     19  C   UNL     1       2.388   7.592  17.941  0.00  0.00    +0.000 C 
BRANCH  19  20
ATOM     20  N   UNL     1       1.892   8.185  19.166  0.00  0.00    +0.000 N 
ATOM     21  C   UNL     1       1.953   7.595  20.399  0.00  0.00    +0.000 A 
ATOM     22  N   UNL     1       1.258   8.250  21.298  0.00  0.00    +0.000 NA
ATOM     23  C   UNL     1       0.742   9.327  20.629  0.00  0.00    +0.000 A 
ATOM     24  C   UNL     1      -0.094  10.345  21.112  0.00  0.00    +0.000 A 
ATOM     25  C   UNL     1      -0.485  11.366  20.241  0.00  0.00    +0.000 A 
ATOM     26  C   UNL     1      -0.051  11.373  18.913  0.00  0.00    +0.000 A 
ATOM     27  C   UNL     1       0.767  10.354  18.407  0.00  0.00    +0.000 A 
ATOM     28  C   UNL     1       1.144   9.336  19.293  0.00  0.00    +0.000 A 
ENDBRANCH  19  20
ENDBRANCH   1  19
TORSDOF 6
ENDMDL
MODEL 9
REMARK VINA RESULT:      -8.0      3.441      5.559
REMARK  Name = 
REMARK  7 active torsions:
REMARK  status: ('A' for Active; 'I' for Inactive)
REMARK    1  A    between atoms: C_1  and  C_2
REMARK    2  A    between atoms: C_6  and  C_7
REMARK    3  A    between atoms: C_7  and  N_8
REMARK    4  A    between atoms: N_8  and  C_9
REMARK    5  A    between atoms: C_9  and  C_10
REMARK    6  A    between atoms: C_9  and  C_20
REMARK    7  A    between atoms: C_10  and  N_11
REMARK                            x       y       z     vdW  Elec       q    Type
REMARK                         _______ _______ _______ _____ _____    ______ ____
ROOT
ATOM      1  C   UNL     1       2.528   5.844  18.084  0.00  0.00    +0.000 C 
ENDROOT
BRANCH   1   2
ATOM      2  C   UNL     1       2.111   4.861  19.182  0.00  0.00    +0.000 A 
ATOM      3  C   UNL     1       1.282   3.765  18.877  0.00  0.00    +0.000 A 
ATOM      4  C   UNL     1       0.890   2.873  19.878  0.00  0.00    +0.000 A 
ATOM      5  C   UNL     1       1.323   3.070  21.183  0.00  0.00    +0.000 A 
ATOM      6  F   UNL     1       0.929   2.225  22.144  0.00  0.00    +0.000 F 
ATOM      7  C   UNL     1       2.157   4.130  21.506  0.00  0.00    +0.000 A 
ATOM      8  C   UNL     1       2.558   5.018  20.509  0.00  0.00    +0.000 A 
ENDBRANCH   1   2
BRANCH   1   9
ATOM      9  N   UNL     1       2.808   7.164  18.673  0.00  0.00    +0.000 NA
ATOM     10  H   UNL     1       2.785   7.081  19.690  0.00  0.00    +0.000 HD
BRANCH   9  11
ATOM     11  C   UNL     1       1.918   8.253  18.290  0.00  0.00    +0.000 C 
BRANCH  11  17
ATOM     12  C   UNL     1       0.570  11.211  18.760  0.00  0.00    +0.000 C 
ATOM     13  C   UNL     1       0.829  10.147  19.760  0.00  0.00    +0.000 A 
ATOM     14  N   UNL     1       0.482  10.346  21.039  0.00  0.00    +0.000 NA
ATOM     15  N   UNL     1       0.831   9.210  21.655  0.00  0.00    +0.000 N 
ATOM     16  C   UNL     1       1.395   8.294  20.820  0.00  0.00    +0.000 A 
ATOM     17  C   UNL     1       1.412   8.862  19.558  0.00  0.00    +0.000 A 
ATOM     18  H   UNL     1       0.651   9.123  22.650  0.00  0.00    +0.000 HD
ENDBRANCH  11  17
ENDBRANCH   9  11
ENDBRANCH   1   9
BRANCH   1  19
ATOM     19  C   UNL     1       3.649   5.224  17.210  0.00  0.00    +0.000 C 
BRANCH  19  20
ATOM     20  N   UNL     1       4.961   5.104  17.813  0.00  0.00    +0.000 N 
ATOM     21  C   UNL     1       5.354   4.078  18.628  0.00  0.00    +0.000 A 
ATOM     22  N   UNL     1       6.512   4.312  19.197  0.00  0.00    +0.000 NA
ATOM     23  C   UNL     1       6.903   5.533  18.715  0.00  0.00    +0.000 A 
ATOM     24  C   UNL     1       8.060   6.267  19.012  0.00  0.00    +0.000 A 
ATOM     25  C   UNL     1       8.260   7.496  18.376  0.00  0.00    +0.000 A 
ATOM     26  C   UNL     1       7.324   7.984  17.461  0.00  0.00    +0.000 A 
ATOM     27  C   UNL     1       6.152   7.274  17.167  0.00  0.00    +0.000 A 
ATOM     28  C   UNL     1       5.966   6.048  17.818  0.00  0.00    +0.000 A 
ENDBRANCH  19  20
ENDBRANCH   1  19
TORSDOF 6
ENDMDL
