MODEL 1
REMARK VINA RESULT:      -8.6      0.000      0.000
REMARK  Name = 
REMARK  4 active torsions:
REMARK  status: ('A' for Active; 'I' for Inactive)
REMARK    1  A    between atoms: C_2  and  C_16
REMARK    2  A    between atoms: N_7  and  C_8
REMARK    3  A    between atoms: C_8  and  C_9
REMARK    4  A    between atoms: C_19  and  N_20
REMARK                            x       y       z     vdW  Elec       q    Type
REMARK                         _______ _______ _______ _____ _____    ______ ____
ROOT
ATOM      1  O   UNL     1       7.461   9.344  17.321  0.00  0.00    +0.000 OA
ATOM      2  C   UNL     1       8.325   9.066  18.145  0.00  0.00    +0.000 C 
ATOM      3  N   UNL     1       8.554   7.825  18.702  0.00  0.00    +0.000 N 
ATOM      4  C   UNL     1       7.777   6.744  18.351  0.00  0.00    +0.000 A 
ATOM      5  C   UNL     1       7.355   6.358  17.058  0.00  0.00    +0.000 A 
ATOM      6  C   UNL     1       6.544   5.265  17.256  0.00  0.00    +0.000 A 
ATOM      7  N   UNL     1       6.458   5.120  18.613  0.00  0.00    +0.000 N 
ATOM      8  N   UNL     1       7.347   5.891  19.284  0.00  0.00    +0.000 NA
ATOM      9  H   UNL     1       8.926   7.778  19.639  0.00  0.00    +0.000 HD
ENDROOT
BRANCH   2  10
ATOM     10  C   UNL     1       9.170  10.161  18.680  0.00  0.00    +0.000 A 
ATOM     11  C   UNL     1       9.156  10.417  20.054  0.00  0.00    +0.000 A 
ATOM     12  C   UNL     1       9.905  11.476  20.572  0.00  0.00    +0.000 A 
ATOM     13  C   UNL     1      10.673  12.292  19.731  0.00  0.00    +0.000 A 
ATOM     14  C   UNL     1      10.636  12.055  18.350  0.00  0.00    +0.000 A 
ATOM     15  C   UNL     1       9.910  10.979  17.824  0.00  0.00    +0.000 A 
BRANCH  13  16
ATOM     16  N   UNL     1      11.407  13.388  20.216  0.00  0.00    +0.000 N 
ATOM     17  C   UNL     1      11.103  14.737  20.003  0.00  0.00    +0.000 A 
ATOM     18  N   UNL     1       9.827  15.108  19.803  0.00  0.00    +0.000 NA
ATOM     19  C   UNL     1       9.583  16.413  19.634  0.00  0.00    +0.000 A 
ATOM     20  C   UNL     1      10.558  17.375  19.656  0.00  0.00    +0.000 A 
ATOM     21  C   UNL     1      11.831  16.905  19.866  0.00  0.00    +0.000 A 
ATOM     22  N   UNL     1      12.130  15.603  20.040  0.00  0.00    +0.000 NA
ATOM     23  H   UNL     1      12.410  13.284  20.135  0.00  0.00    +0.000 HD
ENDBRANCH  13  16
ENDBRANCH   2  10
BRANCH   7  24
ATOM     24  C   UNL     1       5.549   4.233  19.333  0.00  0.00    +0.000 C 
BRANCH  24  25
ATOM     25  C   UNL     1       4.162   4.204  18.724  0.00  0.00    +0.000 A 
ATOM     26  C   UNL     1       3.697   3.064  18.049  0.00  0.00    +0.000 A 
ATOM     27  C   UNL     1       2.403   3.024  17.523  0.00  0.00    +0.000 A 
ATOM     28  C   UNL     1       1.554   4.122  17.665  0.00  0.00    +0.000 A 
ATOM     29  C   UNL     1       2.001   5.258  18.330  0.00  0.00    +0.000 A 
ATOM     30  C   UNL     1       3.295   5.301  18.856  0.00  0.00    +0.000 A 
ENDBRANCH  24  25
ENDBRANCH   7  24
TORSDOF 4
ENDMDL
MODEL 2
REMARK VINA RESULT:      -8.6      0.252      1.310
REMARK  Name = 
REMARK  4 active torsions:
REMARK  status: ('A' for Active; 'I' for Inactive)
REMARK    1  A    between atoms: C_2  and  C_16
REMARK    2  A    between atoms: N_7  and  C_8
REMARK    3  A    between atoms: C_8  and  C_9
REMARK    4  A    between atoms: C_19  and  N_20
REMARK                            x       y       z     vdW  Elec       q    Type
REMARK                         _______ _______ _______ _____ _____    ______ ____
ROOT
ATOM      1  O   UNL     1       7.472   9.004  17.194  0.00  0.00    +0.000 OA
ATOM      2  C   UNL     1       8.256   8.816  18.118  0.00  0.00    +0.000 C 
ATOM      3  N   UNL     1       8.452   7.629  18.793  0.00  0.00    +0.000 N 
ATOM      4  C   UNL     1       7.736   6.503  18.458  0.00  0.00    +0.000 A 
ATOM      5  C   UNL     1       7.453   6.004  17.166  0.00  0.00    +0.000 A 
ATOM      6  C   UNL     1       6.649   4.908  17.372  0.00  0.00    +0.000 A 
ATOM      7  N   UNL     1       6.430   4.868  18.721  0.00  0.00    +0.000 N 
ATOM      8  N   UNL     1       7.233   5.714  19.411  0.00  0.00    +0.000 NA
ATOM      9  H   UNL     1       8.731   7.667  19.763  0.00  0.00    +0.000 HD
ENDROOT
BRANCH   2  10
ATOM     10  C   UNL     1       9.021   9.973  18.642  0.00  0.00    +0.000 A 
ATOM     11  C   UNL     1       9.708  10.793  17.743  0.00  0.00    +0.000 A 
ATOM     12  C   UNL     1      10.475  11.859  18.220  0.00  0.00    +0.000 A 
ATOM     13  C   UNL     1      10.568  12.119  19.594  0.00  0.00    +0.000 A 
ATOM     14  C   UNL     1       9.915  11.257  20.485  0.00  0.00    +0.000 A 
ATOM     15  C   UNL     1       9.122  10.202  20.016  0.00  0.00    +0.000 A 
BRANCH  13  16
ATOM     16  N   UNL     1      11.363  13.158  20.107  0.00  0.00    +0.000 N 
ATOM     17  C   UNL     1      11.112  14.527  19.968  0.00  0.00    +0.000 A 
ATOM     18  N   UNL     1       9.848  14.961  19.826  0.00  0.00    +0.000 NA
ATOM     19  C   UNL     1       9.657  16.282  19.727  0.00  0.00    +0.000 A 
ATOM     20  C   UNL     1      10.673  17.200  19.763  0.00  0.00    +0.000 A 
ATOM     21  C   UNL     1      11.930  16.667  19.910  0.00  0.00    +0.000 A 
ATOM     22  N   UNL     1      12.177  15.346  20.013  0.00  0.00    +0.000 NA
ATOM     23  H   UNL     1      12.358  13.016  19.989  0.00  0.00    +0.000 HD
ENDBRANCH  13  16
ENDBRANCH   2  10
BRANCH   7  24
ATOM     24  C   UNL     1       5.473   4.016  19.419  0.00  0.00    +0.000 C 
BRANCH  24  25
ATOM     25  C   UNL     1       4.084   4.089  18.818  0.00  0.00    +0.000 A 
ATOM     26  C   UNL     1       3.367   5.296  18.807  0.00  0.00    +0.000 A 
ATOM     27  C   UNL     1       2.102   5.369  18.217  0.00  0.00    +0.000 A 
ATOM     28  C   UNL     1       1.536   4.238  17.629  0.00  0.00    +0.000 A 
ATOM     29  C   UNL     1       2.234   3.036  17.632  0.00  0.00    +0.000 A 
ATOM     30  C   UNL     1       3.499   2.960  18.223  0.00  0.00    +0.000 A 
ENDBRANCH  24  25
ENDBRANCH   7  24
TORSDOF 4
ENDMDL
MODEL 3
REMARK VINA RESULT:      -8.2      8.640     11.503
REMARK  Name = 
REMARK  4 active torsions:
REMARK  status: ('A' for Active; 'I' for Inactive)
REMARK    1  A    between atoms: C_2  and  C_16
REMARK    2  A    between atoms: N_7  and  C_8
REMARK    3  A    between atoms: C_8  and  C_9
REMARK    4  A    between atoms: C_19  and  N_20
REMARK                            x       y       z     vdW  Elec       q    Type
REMARK                         _______ _______ _______ _____ _____    ______ ____
ROOT
ATOM      1  O   UNL     1      -1.092   9.768  17.418  0.00  0.00    +0.000 OA
ATOM      2  C   UNL     1      -0.924  10.287  18.516  0.00  0.00    +0.000 C 
ATOM      3  N   UNL     1       0.161  10.104  19.348  0.00  0.00    +0.000 N 
ATOM      4  C   UNL     1       1.194   9.272  18.982  0.00  0.00    +0.000 A 
ATOM      5  C   UNL     1       1.833   9.178  17.725  0.00  0.00    +0.000 A 
ATOM      6  C   UNL     1       2.740   8.154  17.858  0.00  0.00    +0.000 A 
ATOM      7  N   UNL     1       2.537   7.651  19.113  0.00  0.00    +0.000 N 
ATOM      8  N   UNL     1       1.736   8.436  19.872  0.00  0.00    +0.000 NA
ATOM      9  H   UNL     1       0.020  10.172  20.346  0.00  0.00    +0.000 HD
ENDROOT
BRANCH   2  10
ATOM     10  C   UNL     1      -2.009  11.131  19.072  0.00  0.00    +0.000 A 
ATOM     11  C   UNL     1      -3.257  11.129  18.443  0.00  0.00    +0.000 A 
ATOM     12  C   UNL     1      -4.277  11.955  18.921  0.00  0.00    +0.000 A 
ATOM     13  C   UNL     1      -4.067  12.792  20.025  0.00  0.00    +0.000 A 
ATOM     14  C   UNL     1      -2.796  12.820  20.613  0.00  0.00    +0.000 A 
ATOM     15  C   UNL     1      -1.774  11.976  20.159  0.00  0.00    +0.000 A 
BRANCH  13  16
ATOM     16  N   UNL     1      -5.061  13.663  20.505  0.00  0.00    +0.000 N 
ATOM     17  C   UNL     1      -5.849  13.461  21.642  0.00  0.00    +0.000 A 
ATOM     18  N   UNL     1      -5.370  12.726  22.661  0.00  0.00    +0.000 NA
ATOM     19  C   UNL     1      -6.150  12.586  23.740  0.00  0.00    +0.000 A 
ATOM     20  C   UNL     1      -7.393  13.149  23.855  0.00  0.00    +0.000 A 
ATOM     21  C   UNL     1      -7.801  13.881  22.767  0.00  0.00    +0.000 A 
ATOM     22  N   UNL     1      -7.056  14.051  21.657  0.00  0.00    +0.000 NA
ATOM     23  H   UNL     1      -5.658  14.048  19.783  0.00  0.00    +0.000 HD
ENDBRANCH  13  16
ENDBRANCH   2  10
BRANCH   7  24
ATOM     24  C   UNL     1       3.105   6.421  19.656  0.00  0.00    +0.000 C 
BRANCH  24  25
ATOM     25  C   UNL     1       2.224   5.214  19.409  0.00  0.00    +0.000 A 
ATOM     26  C   UNL     1       2.116   4.653  18.126  0.00  0.00    +0.000 A 
ATOM     27  C   UNL     1       1.333   3.516  17.909  0.00  0.00    +0.000 A 
ATOM     28  C   UNL     1       0.648   2.922  18.969  0.00  0.00    +0.000 A 
ATOM     29  C   UNL     1       0.745   3.467  20.244  0.00  0.00    +0.000 A 
ATOM     30  C   UNL     1       1.526   4.605  20.464  0.00  0.00    +0.000 A 
ENDBRANCH  24  25
ENDBRANCH   7  24
TORSDOF 4
ENDMDL
MODEL 4
REMARK VINA RESULT:      -8.1      8.781     11.286
REMARK  Name = 
REMARK  4 active torsions:
REMARK  status: ('A' for Active; 'I' for Inactive)
REMARK    1  A    between atoms: C_2  and  C_16
REMARK    2  A    between atoms: N_7  and  C_8
REMARK    3  A    between atoms: C_8  and  C_9
REMARK    4  A    between atoms: C_19  and  N_20
REMARK                            x       y       z     vdW  Elec       q    Type
REMARK                         _______ _______ _______ _____ _____    ______ ____
ROOT
ATOM      1  O   UNL     1      -1.333   9.958  18.466  0.00  0.00    +0.000 OA
ATOM      2  C   UNL     1      -0.810  10.474  19.449  0.00  0.00    +0.000 C 
ATOM      3  N   UNL     1       0.468  10.240  19.910  0.00  0.00    +0.000 N 
ATOM      4  C   UNL     1       1.299   9.355  19.261  0.00  0.00    +0.000 A 
ATOM      5  C   UNL     1       1.514   9.223  17.870  0.00  0.00    +0.000 A 
ATOM      6  C   UNL     1       2.368   8.154  17.739  0.00  0.00    +0.000 A 
ATOM      7  N   UNL     1       2.538   7.669  19.006  0.00  0.00    +0.000 N 
ATOM      8  N   UNL     1       2.048   8.498  19.958  0.00  0.00    +0.000 NA
ATOM      9  H   UNL     1       0.645  10.321  20.901  0.00  0.00    +0.000 HD
ENDROOT
BRANCH   2  10
ATOM     10  C   UNL     1      -1.630  11.375  20.294  0.00  0.00    +0.000 A 
ATOM     11  C   UNL     1      -2.661  12.108  19.699  0.00  0.00    +0.000 A 
ATOM     12  C   UNL     1      -3.413  13.000  20.467  0.00  0.00    +0.000 A 
ATOM     13  C   UNL     1      -3.147  13.174  21.832  0.00  0.00    +0.000 A 
ATOM     14  C   UNL     1      -2.078  12.470  22.402  0.00  0.00    +0.000 A 
ATOM     15  C   UNL     1      -1.336  11.554  21.647  0.00  0.00    +0.000 A 
BRANCH  13  16
ATOM     16  N   UNL     1      -3.860  14.092  22.623  0.00  0.00    +0.000 N 
ATOM     17  C   UNL     1      -5.150  13.910  23.130  0.00  0.00    +0.000 A 
ATOM     18  N   UNL     1      -5.598  12.667  23.378  0.00  0.00    +0.000 NA
ATOM     19  C   UNL     1      -6.828  12.545  23.891  0.00  0.00    +0.000 A 
ATOM     20  C   UNL     1      -7.640  13.611  24.172  0.00  0.00    +0.000 A 
ATOM     21  C   UNL     1      -7.101  14.842  23.887  0.00  0.00    +0.000 A 
ATOM     22  N   UNL     1      -5.870  15.019  23.369  0.00  0.00    +0.000 NA
ATOM     23  H   UNL     1      -3.786  15.052  22.310  0.00  0.00    +0.000 HD
ENDBRANCH  13  16
ENDBRANCH   2  10
BRANCH   7  24
ATOM     24  C   UNL     1       3.189   6.415  19.373  0.00  0.00    +0.000 C 
BRANCH  24  25
ATOM     25  C   UNL     1       2.257   5.224  19.270  0.00  0.00    +0.000 A 
ATOM     26  C   UNL     1       2.094   4.542  18.054  0.00  0.00    +0.000 A 
ATOM     27  C   UNL     1       1.265   3.421  17.971  0.00  0.00    +0.000 A 
ATOM     28  C   UNL     1       0.587   2.964  19.102  0.00  0.00    +0.000 A 
ATOM     29  C   UNL     1       0.739   3.630  20.312  0.00  0.00    +0.000 A 
ATOM     30  C   UNL     1       1.567   4.753  20.398  0.00  0.00    +0.000 A 
ENDBRANCH  24  25
ENDBRANCH   7  24
TORSDOF 4
ENDMDL
MODEL 5
REMARK VINA RESULT:      -8.1      1.147      1.612
REMARK  Name = 
REMARK  4 active torsions:
REMARK  status: ('A' for Active; 'I' for Inactive)
REMARK    1  A    between atoms: C_2  and  C_16
REMARK    2  A    between atoms: N_7  and  C_8
REMARK    3  A    between atoms: C_8  and  C_9
REMARK    4  A    between atoms: C_19  and  N_20
REMARK                            x       y       z     vdW  Elec       q    Type
REMARK                         _______ _______ _______ _____ _____    ______ ____
ROOT
ATOM      1  O   UNL     1       7.306   8.380  16.848  0.00  0.00    +0.000 OA
ATOM      2  C   UNL     1       7.954   8.399  17.889  0.00  0.00    +0.000 C 
ATOM      3  N   UNL     1       8.104   7.355  18.777  0.00  0.00    +0.000 N 
ATOM      4  C   UNL     1       7.497   6.142  18.543  0.00  0.00    +0.000 A 
ATOM      5  C   UNL     1       7.429   5.422  17.329  0.00  0.00    +0.000 A 
ATOM      6  C   UNL     1       6.655   4.320  17.607  0.00  0.00    +0.000 A 
ATOM      7  N   UNL     1       6.243   4.484  18.901  0.00  0.00    +0.000 N 
ATOM      8  N   UNL     1       6.896   5.485  19.539  0.00  0.00    +0.000 NA
ATOM      9  H   UNL     1       8.235   7.569  19.755  0.00  0.00    +0.000 HD
ENDROOT
BRANCH   2  10
ATOM     10  C   UNL     1       8.580   9.677  18.308  0.00  0.00    +0.000 A 
ATOM     11  C   UNL     1       9.281   9.723  19.515  0.00  0.00    +0.000 A 
ATOM     12  C   UNL     1       9.836  10.928  19.952  0.00  0.00    +0.000 A 
ATOM     13  C   UNL     1       9.697  12.099  19.196  0.00  0.00    +0.000 A 
ATOM     14  C   UNL     1       8.947  12.049  18.013  0.00  0.00    +0.000 A 
ATOM     15  C   UNL     1       8.410  10.840  17.553  0.00  0.00    +0.000 A 
BRANCH  13  16
ATOM     16  N   UNL     1      10.209  13.335  19.627  0.00  0.00    +0.000 N 
ATOM     17  C   UNL     1       9.453  14.434  20.047  0.00  0.00    +0.000 A 
ATOM     18  N   UNL     1       8.242  14.238  20.596  0.00  0.00    +0.000 NA
ATOM     19  C   UNL     1       7.570  15.319  21.010  0.00  0.00    +0.000 A 
ATOM     20  C   UNL     1       8.051  16.597  20.904  0.00  0.00    +0.000 A 
ATOM     21  C   UNL     1       9.295  16.702  20.331  0.00  0.00    +0.000 A 
ATOM     22  N   UNL     1      10.011  15.648  19.897  0.00  0.00    +0.000 NA
ATOM     23  H   UNL     1      10.973  13.687  19.063  0.00  0.00    +0.000 HD
ENDBRANCH  13  16
ENDBRANCH   2  10
BRANCH   7  24
ATOM     24  C   UNL     1       5.234   3.692  19.596  0.00  0.00    +0.000 C 
BRANCH  24  25
ATOM     25  C   UNL     1       3.855   3.841  18.985  0.00  0.00    +0.000 A 
ATOM     26  C   UNL     1       3.386   5.097  18.567  0.00  0.00    +0.000 A 
ATOM     27  C   UNL     1       2.130   5.226  17.969  0.00  0.00    +0.000 A 
ATOM     28  C   UNL     1       1.325   4.102  17.778  0.00  0.00    +0.000 A 
ATOM     29  C   UNL     1       1.776   2.853  18.187  0.00  0.00    +0.000 A 
ATOM     30  C   UNL     1       3.032   2.721  18.787  0.00  0.00    +0.000 A 
ENDBRANCH  24  25
ENDBRANCH   7  24
TORSDOF 4
ENDMDL
MODEL 6
REMARK VINA RESULT:      -8.0      1.125      1.234
REMARK  Name = 
REMARK  4 active torsions:
REMARK  status: ('A' for Active; 'I' for Inactive)
REMARK    1  A    between atoms: C_2  and  C_16
REMARK    2  A    between atoms: N_7  and  C_8
REMARK    3  A    between atoms: C_8  and  C_9
REMARK    4  A    between atoms: C_19  and  N_20
REMARK                            x       y       z     vdW  Elec       q    Type
REMARK                         _______ _______ _______ _____ _____    ______ ____
ROOT
ATOM      1  O   UNL     1       7.287   8.949  17.226  0.00  0.00    +0.000 OA
ATOM      2  C   UNL     1       8.116   8.684  18.090  0.00  0.00    +0.000 C 
ATOM      3  N   UNL     1       8.317   7.452  18.679  0.00  0.00    +0.000 N 
ATOM      4  C   UNL     1       7.551   6.368  18.317  0.00  0.00    +0.000 A 
ATOM      5  C   UNL     1       7.181   5.958  17.015  0.00  0.00    +0.000 A 
ATOM      6  C   UNL     1       6.360   4.872  17.201  0.00  0.00    +0.000 A 
ATOM      7  N   UNL     1       6.217   4.752  18.555  0.00  0.00    +0.000 N 
ATOM      8  N   UNL     1       7.080   5.533  19.247  0.00  0.00    +0.000 NA
ATOM      9  H   UNL     1       8.650   7.423  19.631  0.00  0.00    +0.000 HD
ENDROOT
BRANCH   2  10
ATOM     10  C   UNL     1       8.942   9.786  18.639  0.00  0.00    +0.000 A 
ATOM     11  C   UNL     1       8.986   9.975  20.023  0.00  0.00    +0.000 A 
ATOM     12  C   UNL     1       9.717  11.038  20.558  0.00  0.00    +0.000 A 
ATOM     13  C   UNL     1      10.409  11.926  19.723  0.00  0.00    +0.000 A 
ATOM     14  C   UNL     1      10.314  11.754  18.336  0.00  0.00    +0.000 A 
ATOM     15  C   UNL     1       9.606  10.676  17.791  0.00  0.00    +0.000 A 
BRANCH  13  16
ATOM     16  N   UNL     1      11.121  13.027  20.228  0.00  0.00    +0.000 N 
ATOM     17  C   UNL     1      10.707  14.362  20.182  0.00  0.00    +0.000 A 
ATOM     18  N   UNL     1       9.395  14.651  20.163  0.00  0.00    +0.000 NA
ATOM     19  C   UNL     1       9.047  15.944  20.149  0.00  0.00    +0.000 A 
ATOM     20  C   UNL     1       9.953  16.971  20.155  0.00  0.00    +0.000 A 
ATOM     21  C   UNL     1      11.270  16.583  20.175  0.00  0.00    +0.000 A 
ATOM     22  N   UNL     1      11.672  15.298  20.187  0.00  0.00    +0.000 NA
ATOM     23  H   UNL     1      12.113  13.008  20.025  0.00  0.00    +0.000 HD
ENDBRANCH  13  16
ENDBRANCH   2  10
BRANCH   7  24
ATOM     24  C   UNL     1       5.276   3.882  19.253  0.00  0.00    +0.000 C 
BRANCH  24  25
ATOM     25  C   UNL     1       3.989   4.593  19.621  0.00  0.00    +0.000 A 
ATOM     26  C   UNL     1       3.003   3.946  20.383  0.00  0.00    +0.000 A 
ATOM     27  C   UNL     1       1.834   4.616  20.753  0.00  0.00    +0.000 A 
ATOM     28  C   UNL     1       1.634   5.942  20.369  0.00  0.00    +0.000 A 
ATOM     29  C   UNL     1       2.601   6.595  19.614  0.00  0.00    +0.000 A 
ATOM     30  C   UNL     1       3.771   5.926  19.240  0.00  0.00    +0.000 A 
ENDBRANCH  24  25
ENDBRANCH   7  24
TORSDOF 4
ENDMDL
MODEL 7
REMARK VINA RESULT:      -8.0      6.487      8.013
REMARK  Name = 
REMARK  4 active torsions:
REMARK  status: ('A' for Active; 'I' for Inactive)
REMARK    1  A    between atoms: C_2  and  C_16
REMARK    2  A    between atoms: N_7  and  C_8
REMARK    3  A    between atoms: C_8  and  C_9
REMARK    4  A    between atoms: C_19  and  N_20
REMARK                            x       y       z     vdW  Elec       q    Type
REMARK                         _______ _______ _______ _____ _____    ______ ____
ROOT
ATOM      1  O   UNL     1       2.784   5.990  20.158  0.00  0.00    +0.000 OA
ATOM      2  C   UNL     1       2.585   6.852  19.310  0.00  0.00    +0.000 C 
ATOM      3  N   UNL     1       3.038   6.836  18.007  0.00  0.00    +0.000 N 
ATOM      4  C   UNL     1       3.795   5.787  17.539  0.00  0.00    +0.000 A 
ATOM      5  C   UNL     1       3.584   4.403  17.741  0.00  0.00    +0.000 A 
ATOM      6  C   UNL     1       4.653   3.786  17.136  0.00  0.00    +0.000 A 
ATOM      7  N   UNL     1       5.460   4.800  16.701  0.00  0.00    +0.000 N 
ATOM      8  N   UNL     1       4.864   6.015  16.772  0.00  0.00    +0.000 NA
ATOM      9  H   UNL     1       3.229   7.717  17.553  0.00  0.00    +0.000 HD
ENDROOT
BRANCH   2  10
ATOM     10  C   UNL     1       1.863   8.084  19.711  0.00  0.00    +0.000 A 
ATOM     11  C   UNL     1       1.431   8.215  21.033  0.00  0.00    +0.000 A 
ATOM     12  C   UNL     1       0.706   9.345  21.420  0.00  0.00    +0.000 A 
ATOM     13  C   UNL     1       0.402  10.354  20.497  0.00  0.00    +0.000 A 
ATOM     14  C   UNL     1       0.797  10.184  19.163  0.00  0.00    +0.000 A 
ATOM     15  C   UNL     1       1.548   9.068  18.772  0.00  0.00    +0.000 A 
BRANCH  13  16
ATOM     16  N   UNL     1      -0.359  11.483  20.845  0.00  0.00    +0.000 N 
ATOM     17  C   UNL     1       0.146  12.696  21.323  0.00  0.00    +0.000 A 
ATOM     18  N   UNL     1       1.385  13.084  20.977  0.00  0.00    +0.000 NA
ATOM     19  C   UNL     1       1.813  14.267  21.436  0.00  0.00    +0.000 A 
ATOM     20  C   UNL     1       1.058  15.090  22.228  0.00  0.00    +0.000 A 
ATOM     21  C   UNL     1      -0.194  14.613  22.531  0.00  0.00    +0.000 A 
ATOM     22  N   UNL     1      -0.671  13.431  22.098  0.00  0.00    +0.000 NA
ATOM     23  H   UNL     1      -1.197  11.271  21.372  0.00  0.00    +0.000 HD
ENDBRANCH  13  16
ENDBRANCH   2  10
BRANCH   7  24
ATOM     24  C   UNL     1       6.816   4.666  16.182  0.00  0.00    +0.000 C 
BRANCH  24  25
ATOM     25  C   UNL     1       6.851   4.541  14.672  0.00  0.00    +0.000 A 
ATOM     26  C   UNL     1       7.738   5.315  13.907  0.00  0.00    +0.000 A 
ATOM     27  C   UNL     1       7.795   5.170  12.518  0.00  0.00    +0.000 A 
ATOM     28  C   UNL     1       6.970   4.248  11.874  0.00  0.00    +0.000 A 
ATOM     29  C   UNL     1       6.087   3.475  12.619  0.00  0.00    +0.000 A 
ATOM     30  C   UNL     1       6.026   3.619  14.008  0.00  0.00    +0.000 A 
ENDBRANCH  24  25
ENDBRANCH   7  24
TORSDOF 4
ENDMDL
MODEL 8
REMARK VINA RESULT:      -7.9      7.789     12.039
REMARK  Name = 
REMARK  4 active torsions:
REMARK  status: ('A' for Active; 'I' for Inactive)
REMARK    1  A    between atoms: C_2  and  C_16
REMARK    2  A    between atoms: N_7  and  C_8
REMARK    3  A    between atoms: C_8  and  C_9
REMARK    4  A    between atoms: C_19  and  N_20
REMARK                            x       y       z     vdW  Elec       q    Type
REMARK                         _______ _______ _______ _____ _____    ______ ____
ROOT
ATOM      1  O   UNL     1       1.001  11.105  21.008  0.00  0.00    +0.000 OA
ATOM      2  C   UNL     1       0.599  10.598  19.966  0.00  0.00    +0.000 C 
ATOM      3  N   UNL     1      -0.486  11.012  19.222  0.00  0.00    +0.000 N 
ATOM      4  C   UNL     1      -1.243  12.089  19.624  0.00  0.00    +0.000 A 
ATOM      5  C   UNL     1      -0.792  13.337  20.112  0.00  0.00    +0.000 A 
ATOM      6  C   UNL     1      -1.934  14.028  20.440  0.00  0.00    +0.000 A 
ATOM      7  N   UNL     1      -2.962  13.153  20.222  0.00  0.00    +0.000 N 
ATOM      8  N   UNL     1      -2.576  12.042  19.552  0.00  0.00    +0.000 NA
ATOM      9  H   UNL     1      -0.999  10.322  18.693  0.00  0.00    +0.000 HD
ENDROOT
BRANCH   2  10
ATOM     10  C   UNL     1       1.268   9.369  19.474  0.00  0.00    +0.000 A 
ATOM     11  C   UNL     1       1.524   8.331  20.374  0.00  0.00    +0.000 A 
ATOM     12  C   UNL     1       2.198   7.186  19.942  0.00  0.00    +0.000 A 
ATOM     13  C   UNL     1       2.626   7.063  18.614  0.00  0.00    +0.000 A 
ATOM     14  C   UNL     1       2.408   8.133  17.736  0.00  0.00    +0.000 A 
ATOM     15  C   UNL     1       1.710   9.274  18.152  0.00  0.00    +0.000 A 
BRANCH  13  16
ATOM     16  N   UNL     1       3.341   5.941  18.158  0.00  0.00    +0.000 N 
ATOM     17  C   UNL     1       2.927   4.609  18.258  0.00  0.00    +0.000 A 
ATOM     18  N   UNL     1       1.614   4.321  18.283  0.00  0.00    +0.000 NA
ATOM     19  C   UNL     1       1.267   3.029  18.348  0.00  0.00    +0.000 A 
ATOM     20  C   UNL     1       2.173   2.003  18.389  0.00  0.00    +0.000 A 
ATOM     21  C   UNL     1       3.490   2.390  18.359  0.00  0.00    +0.000 A 
ATOM     22  N   UNL     1       3.892   3.675  18.295  0.00  0.00    +0.000 NA
ATOM     23  H   UNL     1       4.332   5.970  18.364  0.00  0.00    +0.000 HD
ENDBRANCH  13  16
ENDBRANCH   2  10
BRANCH   7  24
ATOM     24  C   UNL     1      -4.355  13.338  20.618  0.00  0.00    +0.000 C 
BRANCH  24  25
ATOM     25  C   UNL     1      -4.590  13.025  22.082  0.00  0.00    +0.000 A 
ATOM     26  C   UNL     1      -5.884  13.059  22.625  0.00  0.00    +0.000 A 
ATOM     27  C   UNL     1      -6.104  12.732  23.966  0.00  0.00    +0.000 A 
ATOM     28  C   UNL     1      -5.034  12.366  24.783  0.00  0.00    +0.000 A 
ATOM     29  C   UNL     1      -3.747  12.328  24.258  0.00  0.00    +0.000 A 
ATOM     30  C   UNL     1      -3.525  12.656  22.918  0.00  0.00    +0.000 A 
ENDBRANCH  24  25
ENDBRANCH   7  24
TORSDOF 4
ENDMDL
MODEL 9
REMARK VINA RESULT:      -7.9      7.964     12.042
REMARK  Name = 
REMARK  4 active torsions:
REMARK  status: ('A' for Active; 'I' for Inactive)
REMARK    1  A    between atoms: C_2  and  C_16
REMARK    2  A    between atoms: N_7  and  C_8
REMARK    3  A    between atoms: C_8  and  C_9
REMARK    4  A    between atoms: C_19  and  N_20
REMARK                            x       y       z     vdW  Elec       q    Type
REMARK                         _______ _______ _______ _____ _____    ______ ____
ROOT
ATOM      1  O   UNL     1      -0.748   9.715  21.945  0.00  0.00    +0.000 OA
ATOM      2  C   UNL     1      -0.297  10.139  20.886  0.00  0.00    +0.000 C 
ATOM      3  N   UNL     1      -0.670  11.303  20.248  0.00  0.00    +0.000 N 
ATOM      4  C   UNL     1      -1.637  12.120  20.787  0.00  0.00    +0.000 A 
ATOM      5  C   UNL     1      -1.786  12.522  22.134  0.00  0.00    +0.000 A 
ATOM      6  C   UNL     1      -2.941  13.268  22.160  0.00  0.00    +0.000 A 
ATOM      7  N   UNL     1      -3.448  13.197  20.893  0.00  0.00    +0.000 N 
ATOM      8  N   UNL     1      -2.574  12.663  20.005  0.00  0.00    +0.000 NA
ATOM      9  H   UNL     1      -0.613  11.340  19.241  0.00  0.00    +0.000 HD
ENDROOT
BRANCH   2  10
ATOM     10  C   UNL     1       0.685   9.304  20.152  0.00  0.00    +0.000 A 
ATOM     11  C   UNL     1       0.915   9.564  18.798  0.00  0.00    +0.000 A 
ATOM     12  C   UNL     1       1.798   8.758  18.075  0.00  0.00    +0.000 A 
ATOM     13  C   UNL     1       2.458   7.686  18.690  0.00  0.00    +0.000 A 
ATOM     14  C   UNL     1       2.178   7.407  20.034  0.00  0.00    +0.000 A 
ATOM     15  C   UNL     1       1.316   8.225  20.774  0.00  0.00    +0.000 A 
BRANCH  13  16
ATOM     16  N   UNL     1       3.322   6.833  17.981  0.00  0.00    +0.000 N 
ATOM     17  C   UNL     1       3.171   5.450  17.833  0.00  0.00    +0.000 A 
ATOM     18  N   UNL     1       1.941   4.908  17.871  0.00  0.00    +0.000 NA
ATOM     19  C   UNL     1       1.845   3.585  17.695  0.00  0.00    +0.000 A 
ATOM     20  C   UNL     1       2.924   2.769  17.480  0.00  0.00    +0.000 A 
ATOM     21  C   UNL     1       4.139   3.408  17.457  0.00  0.00    +0.000 A 
ATOM     22  N   UNL     1       4.291   4.736  17.630  0.00  0.00    +0.000 NA
ATOM     23  H   UNL     1       4.305   7.018  18.134  0.00  0.00    +0.000 HD
ENDBRANCH  13  16
ENDBRANCH   2  10
BRANCH   7  24
ATOM     24  C   UNL     1      -4.766  13.648  20.460  0.00  0.00    +0.000 C 
BRANCH  24  25
ATOM     25  C   UNL     1      -5.823  12.571  20.595  0.00  0.00    +0.000 A 
ATOM     26  C   UNL     1      -6.705  12.561  21.687  0.00  0.00    +0.000 A 
ATOM     27  C   UNL     1      -7.704  11.589  21.789  0.00  0.00    +0.000 A 
ATOM     28  C   UNL     1      -7.837  10.614  20.801  0.00  0.00    +0.000 A 
ATOM     29  C   UNL     1      -6.970  10.611  19.714  0.00  0.00    +0.000 A 
ATOM     30  C   UNL     1      -5.969  11.580  19.610  0.00  0.00    +0.000 A 
ENDBRANCH  24  25
ENDBRANCH   7  24
TORSDOF 4
ENDMDL
