MODEL 1
REMARK VINA RESULT:      -8.5      0.000      0.000
REMARK  Name = 
REMARK  5 active torsions:
REMARK  status: ('A' for Active; 'I' for Inactive)
REMARK    1  A    between atoms: C_2  and  C_3
REMARK    2  A    between atoms: C_3  and  C_4
REMARK    3  A    between atoms: N_15  and  C_16
REMARK    4  A    between atoms: N_20  and  C_21
REMARK    5  A    between atoms: C_21  and  C_22
REMARK                            x       y       z     vdW  Elec       q    Type
REMARK                         _______ _______ _______ _____ _____    ______ ____
ROOT
ATOM      1  O   UNL     1       3.194   6.749  19.747  0.00  0.00    +0.000 OA
ATOM      2  C   UNL     1       3.020   7.043  18.570  0.00  0.00    +0.000 C 
ATOM      3  N   UNL     1       3.988   6.665  17.570  0.00  0.00    +0.000 N 
ATOM      4  H   UNL     1       3.849   7.053  16.633  0.00  0.00    +0.000 HD
ENDROOT
BRANCH   3   5
ATOM      5  C   UNL     1       5.103   5.875  17.835  0.00  0.00    +0.000 A 
ATOM      6  C   UNL     1       6.391   6.306  18.082  0.00  0.00    +0.000 A 
ATOM      7  C   UNL     1       7.148   5.142  18.292  0.00  0.00    +0.000 A 
ATOM      8  N   UNL     1       6.413   4.037  18.188  0.00  0.00    +0.000 NA
ATOM      9  N   UNL     1       5.165   4.499  17.935  0.00  0.00    +0.000 N 
BRANCH   9  10
ATOM     10  C   UNL     1       4.099   3.519  17.720  0.00  0.00    +0.000 C 
BRANCH  10  11
ATOM     11  C   UNL     1       3.185   3.360  18.917  0.00  0.00    +0.000 A 
ATOM     12  C   UNL     1       3.656   2.802  20.122  0.00  0.00    +0.000 A 
ATOM     13  C   UNL     1       2.840   2.725  21.252  0.00  0.00    +0.000 A 
ATOM     14  C   UNL     1       1.524   3.166  21.191  0.00  0.00    +0.000 A 
ATOM     15  C   UNL     1       1.007   3.630  19.984  0.00  0.00    +0.000 A 
ATOM     16  C   UNL     1       1.825   3.710  18.851  0.00  0.00    +0.000 A 
ATOM     17 CL   UNL     1       1.094   4.253  17.382  0.00  0.00    +0.000 Cl
ENDBRANCH  10  11
ENDBRANCH   9  10
ENDBRANCH   3   5
BRANCH   2  18
ATOM     18  C   UNL     1       1.762   7.740  18.124  0.00  0.00    +0.000 C 
BRANCH  18  19
ATOM     19  C   UNL     1       1.608   9.197  18.495  0.00  0.00    +0.000 A 
ATOM     20  N   UNL     1       2.015  10.083  17.636  0.00  0.00    +0.000 NA
ATOM     21  N   UNL     1       1.885  11.400  17.958  0.00  0.00    +0.000 N 
ATOM     22  C   UNL     1       1.374  11.898  19.134  0.00  0.00    +0.000 A 
ATOM     23  O   UNL     1       1.332  13.101  19.366  0.00  0.00    +0.000 OA
ATOM     24  C   UNL     1       0.871  10.909  20.099  0.00  0.00    +0.000 A 
ATOM     25  C   UNL     1       0.283  11.333  21.300  0.00  0.00    +0.000 A 
ATOM     26  C   UNL     1      -0.233  10.393  22.189  0.00  0.00    +0.000 A 
ATOM     27  C   UNL     1      -0.169   9.037  21.876  0.00  0.00    +0.000 A 
ATOM     28  C   UNL     1       0.421   8.612  20.680  0.00  0.00    +0.000 A 
ATOM     29  C   UNL     1       0.955   9.553  19.788  0.00  0.00    +0.000 A 
ATOM     30  H   UNL     1       2.201  12.092  17.286  0.00  0.00    +0.000 HD
ENDBRANCH  18  19
ENDBRANCH   2  18
TORSDOF 5
ENDMDL
MODEL 2
REMARK VINA RESULT:      -8.4      1.873      3.590
REMARK  Name = 
REMARK  5 active torsions:
REMARK  status: ('A' for Active; 'I' for Inactive)
REMARK    1  A    between atoms: C_2  and  C_3
REMARK    2  A    between atoms: C_3  and  C_4
REMARK    3  A    between atoms: N_15  and  C_16
REMARK    4  A    between atoms: N_20  and  C_21
REMARK    5  A    between atoms: C_21  and  C_22
REMARK                            x       y       z     vdW  Elec       q    Type
REMARK                         _______ _______ _______ _____ _____    ______ ____
ROOT
ATOM      1  O   UNL     1       1.813   6.157  17.829  0.00  0.00    +0.000 OA
ATOM      2  C   UNL     1       2.476   6.802  18.633  0.00  0.00    +0.000 C 
ATOM      3  N   UNL     1       3.214   6.134  19.677  0.00  0.00    +0.000 N 
ATOM      4  H   UNL     1       3.637   6.732  20.390  0.00  0.00    +0.000 HD
ENDROOT
BRANCH   3   5
ATOM      5  C   UNL     1       3.315   4.749  19.785  0.00  0.00    +0.000 A 
ATOM      6  C   UNL     1       2.766   3.948  20.766  0.00  0.00    +0.000 A 
ATOM      7  C   UNL     1       3.142   2.635  20.440  0.00  0.00    +0.000 A 
ATOM      8  N   UNL     1       3.881   2.583  19.334  0.00  0.00    +0.000 NA
ATOM      9  N   UNL     1       3.956   3.874  18.931  0.00  0.00    +0.000 N 
BRANCH   9  10
ATOM     10  C   UNL     1       4.751   4.178  17.739  0.00  0.00    +0.000 C 
BRANCH  10  11
ATOM     11  C   UNL     1       5.863   5.171  18.003  0.00  0.00    +0.000 A 
ATOM     12  C   UNL     1       6.727   5.018  19.105  0.00  0.00    +0.000 A 
ATOM     13  C   UNL     1       7.801   5.885  19.309  0.00  0.00    +0.000 A 
ATOM     14  C   UNL     1       8.011   6.949  18.440  0.00  0.00    +0.000 A 
ATOM     15  C   UNL     1       7.113   7.177  17.401  0.00  0.00    +0.000 A 
ATOM     16  C   UNL     1       6.037   6.307  17.194  0.00  0.00    +0.000 A 
ATOM     17 CL   UNL     1       4.943   6.689  15.911  0.00  0.00    +0.000 Cl
ENDBRANCH  10  11
ENDBRANCH   9  10
ENDBRANCH   3   5
BRANCH   2  18
ATOM     18  C   UNL     1       2.597   8.298  18.514  0.00  0.00    +0.000 C 
BRANCH  18  19
ATOM     19  C   UNL     1       1.341   9.114  18.718  0.00  0.00    +0.000 A 
ATOM     20  N   UNL     1       0.702   9.508  17.658  0.00  0.00    +0.000 NA
ATOM     21  N   UNL     1      -0.431  10.246  17.827  0.00  0.00    +0.000 N 
ATOM     22  C   UNL     1      -0.967  10.641  19.031  0.00  0.00    +0.000 A 
ATOM     23  O   UNL     1      -1.968  11.345  19.097  0.00  0.00    +0.000 OA
ATOM     24  C   UNL     1      -0.277  10.167  20.240  0.00  0.00    +0.000 A 
ATOM     25  C   UNL     1      -0.788  10.478  21.509  0.00  0.00    +0.000 A 
ATOM     26  C   UNL     1      -0.156   9.988  22.650  0.00  0.00    +0.000 A 
ATOM     27  C   UNL     1       0.977   9.185  22.523  0.00  0.00    +0.000 A 
ATOM     28  C   UNL     1       1.489   8.878  21.257  0.00  0.00    +0.000 A 
ATOM     29  C   UNL     1       0.865   9.380  20.106  0.00  0.00    +0.000 A 
ATOM     30  H   UNL     1      -0.932  10.553  17.000  0.00  0.00    +0.000 HD
ENDBRANCH  18  19
ENDBRANCH   2  18
TORSDOF 5
ENDMDL
MODEL 3
REMARK VINA RESULT:      -8.2      2.156      3.703
REMARK  Name = 
REMARK  5 active torsions:
REMARK  status: ('A' for Active; 'I' for Inactive)
REMARK    1  A    between atoms: C_2  and  C_3
REMARK    2  A    between atoms: C_3  and  C_4
REMARK    3  A    between atoms: N_15  and  C_16
REMARK    4  A    between atoms: N_20  and  C_21
REMARK    5  A    between atoms: C_21  and  C_22
REMARK                            x       y       z     vdW  Elec       q    Type
REMARK                         _______ _______ _______ _____ _____    ______ ____
ROOT
ATOM      1  O   UNL     1       1.989   6.104  17.758  0.00  0.00    +0.000 OA
ATOM      2  C   UNL     1       2.327   6.596  18.828  0.00  0.00    +0.000 C 
ATOM      3  N   UNL     1       2.498   5.767  19.995  0.00  0.00    +0.000 N 
ATOM      4  H   UNL     1       2.651   6.254  20.881  0.00  0.00    +0.000 HD
ENDROOT
BRANCH   3   5
ATOM      5  C   UNL     1       2.399   4.378  19.976  0.00  0.00    +0.000 A 
ATOM      6  C   UNL     1       1.257   3.620  20.141  0.00  0.00    +0.000 A 
ATOM      7  C   UNL     1       1.670   2.282  20.038  0.00  0.00    +0.000 A 
ATOM      8  N   UNL     1       2.979   2.174  19.825  0.00  0.00    +0.000 NA
ATOM      9  N   UNL     1       3.407   3.458  19.762  0.00  0.00    +0.000 N 
BRANCH   9  10
ATOM     10  C   UNL     1       4.839   3.698  19.575  0.00  0.00    +0.000 C 
BRANCH  10  11
ATOM     11  C   UNL     1       5.174   4.268  18.213  0.00  0.00    +0.000 A 
ATOM     12  C   UNL     1       4.512   3.816  17.053  0.00  0.00    +0.000 A 
ATOM     13  C   UNL     1       4.761   4.391  15.807  0.00  0.00    +0.000 A 
ATOM     14  C   UNL     1       5.705   5.403  15.683  0.00  0.00    +0.000 A 
ATOM     15  C   UNL     1       6.441   5.798  16.798  0.00  0.00    +0.000 A 
ATOM     16  C   UNL     1       6.191   5.223  18.048  0.00  0.00    +0.000 A 
ATOM     17 CL   UNL     1       7.180   5.738  19.370  0.00  0.00    +0.000 Cl
ENDBRANCH  10  11
ENDBRANCH   9  10
ENDBRANCH   3   5
BRANCH   2  18
ATOM     18  C   UNL     1       2.642   8.065  18.938  0.00  0.00    +0.000 C 
BRANCH  18  19
ATOM     19  C   UNL     1       1.475   9.024  18.972  0.00  0.00    +0.000 A 
ATOM     20  N   UNL     1       1.016   9.453  17.834  0.00  0.00    +0.000 NA
ATOM     21  N   UNL     1      -0.035  10.320  17.850  0.00  0.00    +0.000 N 
ATOM     22  C   UNL     1      -0.661  10.813  18.971  0.00  0.00    +0.000 A 
ATOM     23  O   UNL     1      -1.574  11.627  18.901  0.00  0.00    +0.000 OA
ATOM     24  C   UNL     1      -0.180  10.304  20.264  0.00  0.00    +0.000 A 
ATOM     25  C   UNL     1      -0.798  10.713  21.455  0.00  0.00    +0.000 A 
ATOM     26  C   UNL     1      -0.368  10.193  22.674  0.00  0.00    +0.000 A 
ATOM     27  C   UNL     1       0.670   9.263  22.702  0.00  0.00    +0.000 A 
ATOM     28  C   UNL     1       1.291   8.857  21.514  0.00  0.00    +0.000 A 
ATOM     29  C   UNL     1       0.871   9.389  20.286  0.00  0.00    +0.000 A 
ATOM     30  H   UNL     1      -0.394  10.653  16.962  0.00  0.00    +0.000 HD
ENDBRANCH  18  19
ENDBRANCH   2  18
TORSDOF 5
ENDMDL
MODEL 4
REMARK VINA RESULT:      -8.2      2.263      3.921
REMARK  Name = 
REMARK  5 active torsions:
REMARK  status: ('A' for Active; 'I' for Inactive)
REMARK    1  A    between atoms: C_2  and  C_3
REMARK    2  A    between atoms: C_3  and  C_4
REMARK    3  A    between atoms: N_15  and  C_16
REMARK    4  A    between atoms: N_20  and  C_21
REMARK    5  A    between atoms: C_21  and  C_22
REMARK                            x       y       z     vdW  Elec       q    Type
REMARK                         _______ _______ _______ _____ _____    ______ ____
ROOT
ATOM      1  O   UNL     1       3.583   6.362  19.530  0.00  0.00    +0.000 OA
ATOM      2  C   UNL     1       2.694   6.563  18.711  0.00  0.00    +0.000 C 
ATOM      3  N   UNL     1       2.185   5.482  17.903  0.00  0.00    +0.000 N 
ATOM      4  H   UNL     1       1.541   5.740  17.151  0.00  0.00    +0.000 HD
ENDROOT
BRANCH   3   5
ATOM      5  C   UNL     1       2.572   4.154  18.059  0.00  0.00    +0.000 A 
ATOM      6  C   UNL     1       1.983   3.202  18.866  0.00  0.00    +0.000 A 
ATOM      7  C   UNL     1       2.729   2.027  18.677  0.00  0.00    +0.000 A 
ATOM      8  N   UNL     1       3.729   2.199  17.815  0.00  0.00    +0.000 NA
ATOM      9  N   UNL     1       3.606   3.490  17.426  0.00  0.00    +0.000 N 
BRANCH   9  10
ATOM     10  C   UNL     1       4.597   4.025  16.490  0.00  0.00    +0.000 C 
BRANCH  10  11
ATOM     11  C   UNL     1       5.610   4.935  17.152  0.00  0.00    +0.000 A 
ATOM     12  C   UNL     1       6.330   4.516  18.289  0.00  0.00    +0.000 A 
ATOM     13  C   UNL     1       7.320   5.319  18.856  0.00  0.00    +0.000 A 
ATOM     14  C   UNL     1       7.584   6.577  18.327  0.00  0.00    +0.000 A 
ATOM     15  C   UNL     1       6.817   7.052  17.266  0.00  0.00    +0.000 A 
ATOM     16  C   UNL     1       5.826   6.246  16.695  0.00  0.00    +0.000 A 
ATOM     17 CL   UNL     1       4.890   6.930  15.411  0.00  0.00    +0.000 Cl
ENDBRANCH  10  11
ENDBRANCH   9  10
ENDBRANCH   3   5
BRANCH   2  18
ATOM     18  C   UNL     1       2.060   7.922  18.573  0.00  0.00    +0.000 C 
BRANCH  18  19
ATOM     19  C   UNL     1       1.508   8.560  19.827  0.00  0.00    +0.000 A 
ATOM     20  N   UNL     1       1.945   8.119  20.968  0.00  0.00    +0.000 NA
ATOM     21  N   UNL     1       1.454   8.683  22.107  0.00  0.00    +0.000 N 
ATOM     22  C   UNL     1       0.508   9.680  22.173  0.00  0.00    +0.000 A 
ATOM     23  O   UNL     1       0.084  10.103  23.243  0.00  0.00    +0.000 OA
ATOM     24  C   UNL     1       0.035  10.217  20.889  0.00  0.00    +0.000 A 
ATOM     25  C   UNL     1      -0.889  11.273  20.866  0.00  0.00    +0.000 A 
ATOM     26  C   UNL     1      -1.299  11.808  19.647  0.00  0.00    +0.000 A 
ATOM     27  C   UNL     1      -0.783  11.297  18.458  0.00  0.00    +0.000 A 
ATOM     28  C   UNL     1       0.136  10.241  18.480  0.00  0.00    +0.000 A 
ATOM     29  C   UNL     1       0.541   9.689  19.704  0.00  0.00    +0.000 A 
ATOM     30  H   UNL     1       1.797   8.340  22.999  0.00  0.00    +0.000 HD
ENDBRANCH  18  19
ENDBRANCH   2  18
TORSDOF 5
ENDMDL
MODEL 5
REMARK VINA RESULT:      -8.2      2.286      4.000
REMARK  Name = 
REMARK  5 active torsions:
REMARK  status: ('A' for Active; 'I' for Inactive)
REMARK    1  A    between atoms: C_2  and  C_3
REMARK    2  A    between atoms: C_3  and  C_4
REMARK    3  A    between atoms: N_15  and  C_16
REMARK    4  A    between atoms: N_20  and  C_21
REMARK    5  A    between atoms: C_21  and  C_22
REMARK                            x       y       z     vdW  Elec       q    Type
REMARK                         _______ _______ _______ _____ _____    ______ ____
ROOT
ATOM      1  O   UNL     1       1.711   5.855  17.873  0.00  0.00    +0.000 OA
ATOM      2  C   UNL     1       2.185   6.535  18.775  0.00  0.00    +0.000 C 
ATOM      3  N   UNL     1       2.937   5.918  19.840  0.00  0.00    +0.000 N 
ATOM      4  H   UNL     1       3.190   6.521  20.626  0.00  0.00    +0.000 HD
ENDROOT
BRANCH   3   5
ATOM      5  C   UNL     1       3.264   4.565  19.870  0.00  0.00    +0.000 A 
ATOM      6  C   UNL     1       2.921   3.645  20.840  0.00  0.00    +0.000 A 
ATOM      7  C   UNL     1       3.477   2.425  20.423  0.00  0.00    +0.000 A 
ATOM      8  N   UNL     1       4.135   2.540  19.271  0.00  0.00    +0.000 NA
ATOM      9  N   UNL     1       3.975   3.841  18.932  0.00  0.00    +0.000 N 
BRANCH   9  10
ATOM     10  C   UNL     1       4.625   4.320  17.710  0.00  0.00    +0.000 C 
BRANCH  10  11
ATOM     11  C   UNL     1       5.781   5.259  17.979  0.00  0.00    +0.000 A 
ATOM     12  C   UNL     1       6.622   5.075  19.095  0.00  0.00    +0.000 A 
ATOM     13  C   UNL     1       7.735   5.890  19.305  0.00  0.00    +0.000 A 
ATOM     14  C   UNL     1       8.009   6.933  18.429  0.00  0.00    +0.000 A 
ATOM     15  C   UNL     1       7.137   7.194  17.375  0.00  0.00    +0.000 A 
ATOM     16  C   UNL     1       6.023   6.376  17.162  0.00  0.00    +0.000 A 
ATOM     17 CL   UNL     1       4.967   6.798  15.859  0.00  0.00    +0.000 Cl
ENDBRANCH  10  11
ENDBRANCH   9  10
ENDBRANCH   3   5
BRANCH   2  18
ATOM     18  C   UNL     1       2.057   8.035  18.763  0.00  0.00    +0.000 C 
BRANCH  18  19
ATOM     19  C   UNL     1       1.459   8.691  19.987  0.00  0.00    +0.000 A 
ATOM     20  N   UNL     1       1.869   8.281  21.149  0.00  0.00    +0.000 NA
ATOM     21  N   UNL     1       1.338   8.861  22.261  0.00  0.00    +0.000 N 
ATOM     22  C   UNL     1       0.375   9.844  22.279  0.00  0.00    +0.000 A 
ATOM     23  O   UNL     1      -0.085  10.283  23.327  0.00  0.00    +0.000 OA
ATOM     24  C   UNL     1      -0.068  10.347  20.971  0.00  0.00    +0.000 A 
ATOM     25  C   UNL     1      -1.007  11.387  20.898  0.00  0.00    +0.000 A 
ATOM     26  C   UNL     1      -1.390  11.891  19.657  0.00  0.00    +0.000 A 
ATOM     27  C   UNL     1      -0.832  11.363  18.494  0.00  0.00    +0.000 A 
ATOM     28  C   UNL     1       0.102  10.322  18.565  0.00  0.00    +0.000 A 
ATOM     29  C   UNL     1       0.480   9.802  19.811  0.00  0.00    +0.000 A 
ATOM     30  H   UNL     1       1.660   8.542  23.169  0.00  0.00    +0.000 HD
ENDBRANCH  18  19
ENDBRANCH   2  18
TORSDOF 5
ENDMDL
MODEL 6
REMARK VINA RESULT:      -8.1      3.412      7.735
REMARK  Name = 
REMARK  5 active torsions:
REMARK  status: ('A' for Active; 'I' for Inactive)
REMARK    1  A    between atoms: C_2  and  C_3
REMARK    2  A    between atoms: C_3  and  C_4
REMARK    3  A    between atoms: N_15  and  C_16
REMARK    4  A    between atoms: N_20  and  C_21
REMARK    5  A    between atoms: C_21  and  C_22
REMARK                            x       y       z     vdW  Elec       q    Type
REMARK                         _______ _______ _______ _____ _____    ______ ____
ROOT
ATOM      1  O   UNL     1       1.322   9.084  21.519  0.00  0.00    +0.000 OA
ATOM      2  C   UNL     1       1.387   8.353  20.537  0.00  0.00    +0.000 C 
ATOM      3  N   UNL     1       1.271   8.900  19.208  0.00  0.00    +0.000 N 
ATOM      4  H   UNL     1       1.201   8.226  18.443  0.00  0.00    +0.000 HD
ENDROOT
BRANCH   3   5
ATOM      5  C   UNL     1       1.187  10.264  18.940  0.00  0.00    +0.000 A 
ATOM      6  C   UNL     1       2.219  11.110  18.584  0.00  0.00    +0.000 A 
ATOM      7  C   UNL     1       1.635  12.376  18.421  0.00  0.00    +0.000 A 
ATOM      8  N   UNL     1       0.324  12.360  18.654  0.00  0.00    +0.000 NA
ATOM      9  N   UNL     1       0.060  11.063  18.943  0.00  0.00    +0.000 N 
BRANCH   9  10
ATOM     10  C   UNL     1      -1.314  10.702  19.297  0.00  0.00    +0.000 C 
BRANCH  10  11
ATOM     11  C   UNL     1      -2.260  10.727  18.115  0.00  0.00    +0.000 A 
ATOM     12  C   UNL     1      -1.928  10.084  16.906  0.00  0.00    +0.000 A 
ATOM     13  C   UNL     1      -2.828  10.037  15.840  0.00  0.00    +0.000 A 
ATOM     14  C   UNL     1      -4.061  10.668  15.943  0.00  0.00    +0.000 A 
ATOM     15  C   UNL     1      -4.371  11.393  17.091  0.00  0.00    +0.000 A 
ATOM     16  C   UNL     1      -3.471  11.438  18.161  0.00  0.00    +0.000 A 
ATOM     17 CL   UNL     1      -3.913  12.399  19.529  0.00  0.00    +0.000 Cl
ENDBRANCH  10  11
ENDBRANCH   9  10
ENDBRANCH   3   5
BRANCH   2  18
ATOM     18  C   UNL     1       1.658   6.879  20.686  0.00  0.00    +0.000 C 
BRANCH  18  19
ATOM     19  C   UNL     1       2.391   6.192  19.556  0.00  0.00    +0.000 A 
ATOM     20  N   UNL     1       3.332   6.858  18.957  0.00  0.00    +0.000 NA
ATOM     21  N   UNL     1       3.999   6.252  17.935  0.00  0.00    +0.000 N 
ATOM     22  C   UNL     1       3.759   4.986  17.451  0.00  0.00    +0.000 A 
ATOM     23  O   UNL     1       4.376   4.529  16.495  0.00  0.00    +0.000 OA
ATOM     24  C   UNL     1       2.725   4.206  18.146  0.00  0.00    +0.000 A 
ATOM     25  C   UNL     1       2.455   2.887  17.752  0.00  0.00    +0.000 A 
ATOM     26  C   UNL     1       1.507   2.137  18.444  0.00  0.00    +0.000 A 
ATOM     27  C   UNL     1       0.837   2.699  19.529  0.00  0.00    +0.000 A 
ATOM     28  C   UNL     1       1.103   4.017  19.921  0.00  0.00    +0.000 A 
ATOM     29  C   UNL     1       2.046   4.781  19.219  0.00  0.00    +0.000 A 
ATOM     30  H   UNL     1       4.735   6.770  17.468  0.00  0.00    +0.000 HD
ENDBRANCH  18  19
ENDBRANCH   2  18
TORSDOF 5
ENDMDL
MODEL 7
REMARK VINA RESULT:      -8.1      2.647      4.173
REMARK  Name = 
REMARK  5 active torsions:
REMARK  status: ('A' for Active; 'I' for Inactive)
REMARK    1  A    between atoms: C_2  and  C_3
REMARK    2  A    between atoms: C_3  and  C_4
REMARK    3  A    between atoms: N_15  and  C_16
REMARK    4  A    between atoms: N_20  and  C_21
REMARK    5  A    between atoms: C_21  and  C_22
REMARK                            x       y       z     vdW  Elec       q    Type
REMARK                         _______ _______ _______ _____ _____    ______ ____
ROOT
ATOM      1  O   UNL     1       2.102   5.849  17.747  0.00  0.00    +0.000 OA
ATOM      2  C   UNL     1       2.344   6.553  18.720  0.00  0.00    +0.000 C 
ATOM      3  N   UNL     1       2.947   5.988  19.902  0.00  0.00    +0.000 N 
ATOM      4  H   UNL     1       3.000   6.597  20.721  0.00  0.00    +0.000 HD
ENDROOT
BRANCH   3   5
ATOM      5  C   UNL     1       3.383   4.669  19.989  0.00  0.00    +0.000 A 
ATOM      6  C   UNL     1       2.656   3.575  20.414  0.00  0.00    +0.000 A 
ATOM      7  C   UNL     1       3.526   2.478  20.320  0.00  0.00    +0.000 A 
ATOM      8  N   UNL     1       4.730   2.827  19.871  0.00  0.00    +0.000 NA
ATOM      9  N   UNL     1       4.621   4.158  19.648  0.00  0.00    +0.000 N 
BRANCH   9  10
ATOM     10  C   UNL     1       5.807   4.877  19.179  0.00  0.00    +0.000 C 
BRANCH  10  11
ATOM     11  C   UNL     1       5.914   4.930  17.669  0.00  0.00    +0.000 A 
ATOM     12  C   UNL     1       5.198   4.026  16.859  0.00  0.00    +0.000 A 
ATOM     13  C   UNL     1       5.231   4.119  15.467  0.00  0.00    +0.000 A 
ATOM     14  C   UNL     1       6.012   5.090  14.853  0.00  0.00    +0.000 A 
ATOM     15  C   UNL     1       6.805   5.931  15.631  0.00  0.00    +0.000 A 
ATOM     16  C   UNL     1       6.770   5.840  17.027  0.00  0.00    +0.000 A 
ATOM     17 CL   UNL     1       7.818   6.889  17.916  0.00  0.00    +0.000 Cl
ENDBRANCH  10  11
ENDBRANCH   9  10
ENDBRANCH   3   5
BRANCH   2  18
ATOM     18  C   UNL     1       2.086   8.037  18.686  0.00  0.00    +0.000 C 
BRANCH  18  19
ATOM     19  C   UNL     1       1.490   8.665  19.924  0.00  0.00    +0.000 A 
ATOM     20  N   UNL     1       1.917   8.246  21.076  0.00  0.00    +0.000 NA
ATOM     21  N   UNL     1       1.387   8.803  22.201  0.00  0.00    +0.000 N 
ATOM     22  C   UNL     1       0.409   9.770  22.241  0.00  0.00    +0.000 A 
ATOM     23  O   UNL     1      -0.048  10.188  23.299  0.00  0.00    +0.000 OA
ATOM     24  C   UNL     1      -0.054  10.284  20.944  0.00  0.00    +0.000 A 
ATOM     25  C   UNL     1      -1.009  11.311  20.895  0.00  0.00    +0.000 A 
ATOM     26  C   UNL     1      -1.412  11.825  19.664  0.00  0.00    +0.000 A 
ATOM     27  C   UNL     1      -0.857  11.321  18.489  0.00  0.00    +0.000 A 
ATOM     28  C   UNL     1       0.094  10.294  18.537  0.00  0.00    +0.000 A 
ATOM     29  C   UNL     1       0.491   9.763  19.773  0.00  0.00    +0.000 A 
ATOM     30  H   UNL     1       1.722   8.477  23.102  0.00  0.00    +0.000 HD
ENDBRANCH  18  19
ENDBRANCH   2  18
TORSDOF 5
ENDMDL
MODEL 8
REMARK VINA RESULT:      -8.1      3.253      7.987
REMARK  Name = 
REMARK  5 active torsions:
REMARK  status: ('A' for Active; 'I' for Inactive)
REMARK    1  A    between atoms: C_2  and  C_3
REMARK    2  A    between atoms: C_3  and  C_4
REMARK    3  A    between atoms: N_15  and  C_16
REMARK    4  A    between atoms: N_20  and  C_21
REMARK    5  A    between atoms: C_21  and  C_22
REMARK                            x       y       z     vdW  Elec       q    Type
REMARK                         _______ _______ _______ _____ _____    ______ ____
ROOT
ATOM      1  O   UNL     1       1.986   8.284  19.490  0.00  0.00    +0.000 OA
ATOM      2  C   UNL     1       2.022   8.440  18.275  0.00  0.00    +0.000 C 
ATOM      3  N   UNL     1       1.674   9.711  17.689  0.00  0.00    +0.000 N 
ATOM      4  H   UNL     1       1.598   9.736  16.670  0.00  0.00    +0.000 HD
ENDROOT
BRANCH   3   5
ATOM      5  C   UNL     1       1.381  10.850  18.434  0.00  0.00    +0.000 A 
ATOM      6  C   UNL     1       2.195  11.947  18.636  0.00  0.00    +0.000 A 
ATOM      7  C   UNL     1       1.458  12.824  19.448  0.00  0.00    +0.000 A 
ATOM      8  N   UNL     1       0.257  12.337  19.755  0.00  0.00    +0.000 NA
ATOM      9  N   UNL     1       0.213  11.147  19.110  0.00  0.00    +0.000 N 
BRANCH   9  10
ATOM     10  C   UNL     1      -0.982  10.318  19.276  0.00  0.00    +0.000 C 
BRANCH  10  11
ATOM     11  C   UNL     1      -2.002  10.515  18.174  0.00  0.00    +0.000 A 
ATOM     12  C   UNL     1      -1.871   9.853  16.937  0.00  0.00    +0.000 A 
ATOM     13  C   UNL     1      -2.848   9.970  15.947  0.00  0.00    +0.000 A 
ATOM     14  C   UNL     1      -3.955  10.783  16.154  0.00  0.00    +0.000 A 
ATOM     15  C   UNL     1      -4.056  11.523  17.330  0.00  0.00    +0.000 A 
ATOM     16  C   UNL     1      -3.079  11.405  18.324  0.00  0.00    +0.000 A 
ATOM     17 CL   UNL     1      -3.256  12.393  19.732  0.00  0.00    +0.000 Cl
ENDBRANCH  10  11
ENDBRANCH   9  10
ENDBRANCH   3   5
BRANCH   2  18
ATOM     18  C   UNL     1       2.499   7.337  17.367  0.00  0.00    +0.000 C 
BRANCH  18  19
ATOM     19  C   UNL     1       3.231   6.180  18.007  0.00  0.00    +0.000 A 
ATOM     20  N   UNL     1       2.514   5.228  18.524  0.00  0.00    +0.000 NA
ATOM     21  N   UNL     1       3.160   4.180  19.106  0.00  0.00    +0.000 N 
ATOM     22  C   UNL     1       4.523   4.033  19.222  0.00  0.00    +0.000 A 
ATOM     23  O   UNL     1       5.027   3.077  19.803  0.00  0.00    +0.000 OA
ATOM     24  C   UNL     1       5.348   5.082  18.605  0.00  0.00    +0.000 A 
ATOM     25  C   UNL     1       6.747   4.983  18.629  0.00  0.00    +0.000 A 
ATOM     26  C   UNL     1       7.522   5.956  18.003  0.00  0.00    +0.000 A 
ATOM     27  C   UNL     1       6.902   7.020  17.349  0.00  0.00    +0.000 A 
ATOM     28  C   UNL     1       5.506   7.122  17.328  0.00  0.00    +0.000 A 
ATOM     29  C   UNL     1       4.721   6.152  17.969  0.00  0.00    +0.000 A 
ATOM     30  H   UNL     1       2.601   3.435  19.509  0.00  0.00    +0.000 HD
ENDBRANCH  18  19
ENDBRANCH   2  18
TORSDOF 5
ENDMDL
MODEL 9
REMARK VINA RESULT:      -8.1      1.481      1.786
REMARK  Name = 
REMARK  5 active torsions:
REMARK  status: ('A' for Active; 'I' for Inactive)
REMARK    1  A    between atoms: C_2  and  C_3
REMARK    2  A    between atoms: C_3  and  C_4
REMARK    3  A    between atoms: N_15  and  C_16
REMARK    4  A    between atoms: N_20  and  C_21
REMARK    5  A    between atoms: C_21  and  C_22
REMARK                            x       y       z     vdW  Elec       q    Type
REMARK                         _______ _______ _______ _____ _____    ______ ____
ROOT
ATOM      1  O   UNL     1       3.894   5.963  20.052  0.00  0.00    +0.000 OA
ATOM      2  C   UNL     1       2.959   6.344  19.357  0.00  0.00    +0.000 C 
ATOM      3  N   UNL     1       2.957   6.104  17.935  0.00  0.00    +0.000 N 
ATOM      4  H   UNL     1       2.216   6.560  17.398  0.00  0.00    +0.000 HD
ENDROOT
BRANCH   3   5
ATOM      5  C   UNL     1       3.930   5.356  17.278  0.00  0.00    +0.000 A 
ATOM      6  C   UNL     1       5.139   5.807  16.787  0.00  0.00    +0.000 A 
ATOM      7  C   UNL     1       5.761   4.685  16.217  0.00  0.00    +0.000 A 
ATOM      8  N   UNL     1       5.017   3.586  16.326  0.00  0.00    +0.000 NA
ATOM      9  N   UNL     1       3.917   4.003  16.997  0.00  0.00    +0.000 N 
BRANCH   9  10
ATOM     10  C   UNL     1       2.854   3.029  17.251  0.00  0.00    +0.000 C 
BRANCH  10  11
ATOM     11  C   UNL     1       2.364   3.041  18.683  0.00  0.00    +0.000 A 
ATOM     12  C   UNL     1       1.053   3.453  18.998  0.00  0.00    +0.000 A 
ATOM     13  C   UNL     1       0.571   3.393  20.306  0.00  0.00    +0.000 A 
ATOM     14  C   UNL     1       1.399   2.960  21.335  0.00  0.00    +0.000 A 
ATOM     15  C   UNL     1       2.727   2.642  21.062  0.00  0.00    +0.000 A 
ATOM     16  C   UNL     1       3.211   2.699  19.750  0.00  0.00    +0.000 A 
ATOM     17 CL   UNL     1       4.883   2.333  19.505  0.00  0.00    +0.000 Cl
ENDBRANCH  10  11
ENDBRANCH   9  10
ENDBRANCH   3   5
BRANCH   2  18
ATOM     18  C   UNL     1       1.756   7.007  19.975  0.00  0.00    +0.000 C 
BRANCH  18  19
ATOM     19  C   UNL     1       1.506   8.456  19.624  0.00  0.00    +0.000 A 
ATOM     20  N   UNL     1       1.884   8.863  18.450  0.00  0.00    +0.000 NA
ATOM     21  N   UNL     1       1.667  10.167  18.120  0.00  0.00    +0.000 N 
ATOM     22  C   UNL     1       1.094  11.122  18.929  0.00  0.00    +0.000 A 
ATOM     23  O   UNL     1       0.975  12.289  18.573  0.00  0.00    +0.000 OA
ATOM     24  C   UNL     1       0.624  10.665  20.245  0.00  0.00    +0.000 A 
ATOM     25  C   UNL     1      -0.021  11.560  21.112  0.00  0.00    +0.000 A 
ATOM     26  C   UNL     1      -0.504  11.111  22.339  0.00  0.00    +0.000 A 
ATOM     27  C   UNL     1      -0.351   9.773  22.695  0.00  0.00    +0.000 A 
ATOM     28  C   UNL     1       0.296   8.879  21.833  0.00  0.00    +0.000 A 
ATOM     29  C   UNL     1       0.798   9.329  20.603  0.00  0.00    +0.000 A 
ATOM     30  H   UNL     1       1.960  10.486  17.202  0.00  0.00    +0.000 HD
ENDBRANCH  18  19
ENDBRANCH   2  18
TORSDOF 5
ENDMDL
