MODEL 1
REMARK VINA RESULT:      -8.7      0.000      0.000
REMARK  Name = 
REMARK  6 active torsions:
REMARK  status: ('A' for Active; 'I' for Inactive)
REMARK    1  A    between atoms: C_1  and  C_2
REMARK    2  A    between atoms: N_4  and  C_5
REMARK    3  A    between atoms: C_8  and  N_9
REMARK    4  A    between atoms: N_9  and  C_10
REMARK    5  A    between atoms: C_12  and  C_13
REMARK    6  A    between atoms: C_17  and  C_18
REMARK                            x       y       z     vdW  Elec       q    Type
REMARK                         _______ _______ _______ _____ _____    ______ ____
ROOT
ATOM      1  C   UNL     1       2.850   5.237  19.240  0.00  0.00    +0.000 A 
ATOM      2  C   UNL     1       1.781   4.420  19.339  0.00  0.00    +0.000 A 
ATOM      3  C   UNL     1       1.822   3.148  18.564  0.00  0.00    +0.000 A 
ATOM      4  C   UNL     1       0.637   2.225  18.695  0.00  0.00    +0.000 C 
ATOM      5  N   UNL     1       2.800   2.775  17.792  0.00  0.00    +0.000 NA
ATOM      6  C   UNL     1       3.864   3.621  17.704  0.00  0.00    +0.000 A 
ATOM      7  N   UNL     1       4.977   3.470  17.027  0.00  0.00    +0.000 NA
ATOM      8  C   UNL     1       5.709   4.604  17.307  0.00  0.00    +0.000 A 
ATOM      9  N   UNL     1       5.085   5.470  18.136  0.00  0.00    +0.000 NA
ATOM     10  N   UNL     1       3.906   4.835  18.393  0.00  0.00    +0.000 N 
ENDROOT
BRANCH   8  11
ATOM     11  C   UNL     1       7.091   4.827  16.726  0.00  0.00    +0.000 C 
ATOM     12  F   UNL     1       7.220   4.332  15.463  0.00  0.00    +0.000 F 
ATOM     13  F   UNL     1       7.410   6.149  16.651  0.00  0.00    +0.000 F 
ATOM     14  F   UNL     1       8.066   4.234  17.468  0.00  0.00    +0.000 F 
ENDBRANCH   8  11
BRANCH   1  15
ATOM     15  N   UNL     1       2.965   6.445  19.945  0.00  0.00    +0.000 N 
ATOM     16  H   UNL     1       2.821   6.273  20.948  0.00  0.00    +0.000 HD
BRANCH  15  20
ATOM     17  C   UNL     1       0.838   9.975  18.901  0.00  0.00    +0.000 A 
ATOM     18  C   UNL     1       0.721   9.430  20.177  0.00  0.00    +0.000 A 
ATOM     19  C   UNL     1       1.398   8.255  20.518  0.00  0.00    +0.000 A 
ATOM     20  C   UNL     1       2.184   7.578  19.579  0.00  0.00    +0.000 A 
ATOM     21  C   UNL     1       2.306   8.125  18.299  0.00  0.00    +0.000 A 
ATOM     22  C   UNL     1       1.616   9.299  17.952  0.00  0.00    +0.000 A 
BRANCH  17  26
ATOM     23  C   UNL     1      -0.274  13.546  18.374  0.00  0.00    +0.000 C 
ATOM     24  C   UNL     1       0.631  12.459  18.893  0.00  0.00    +0.000 C 
ATOM     25  O   UNL     1       1.618  12.745  19.562  0.00  0.00    +0.000 OA
ATOM     26  N   UNL     1       0.214  11.187  18.528  0.00  0.00    +0.000 N 
ATOM     27  H   UNL     1      -0.531  11.124  17.846  0.00  0.00    +0.000 HD
ENDBRANCH  17  26
ENDBRANCH  15  20
ENDBRANCH   1  15
TORSDOF 4
ENDMDL
MODEL 2
REMARK VINA RESULT:      -8.7      1.265      1.763
REMARK  Name = 
REMARK  6 active torsions:
REMARK  status: ('A' for Active; 'I' for Inactive)
REMARK    1  A    between atoms: C_1  and  C_2
REMARK    2  A    between atoms: N_4  and  C_5
REMARK    3  A    between atoms: C_8  and  N_9
REMARK    4  A    between atoms: N_9  and  C_10
REMARK    5  A    between atoms: C_12  and  C_13
REMARK    6  A    between atoms: C_17  and  C_18
REMARK                            x       y       z     vdW  Elec       q    Type
REMARK                         _______ _______ _______ _____ _____    ______ ____
ROOT
ATOM      1  C   UNL     1       2.898   5.131  19.310  0.00  0.00    +0.000 A 
ATOM      2  C   UNL     1       1.829   4.313  19.407  0.00  0.00    +0.000 A 
ATOM      3  C   UNL     1       1.855   3.061  18.599  0.00  0.00    +0.000 A 
ATOM      4  C   UNL     1       0.672   2.136  18.729  0.00  0.00    +0.000 C 
ATOM      5  N   UNL     1       2.818   2.707  17.800  0.00  0.00    +0.000 NA
ATOM      6  C   UNL     1       3.881   3.555  17.713  0.00  0.00    +0.000 A 
ATOM      7  N   UNL     1       4.980   3.421  17.012  0.00  0.00    +0.000 NA
ATOM      8  C   UNL     1       5.719   4.547  17.308  0.00  0.00    +0.000 A 
ATOM      9  N   UNL     1       5.112   5.392  18.170  0.00  0.00    +0.000 NA
ATOM     10  N   UNL     1       3.937   4.751  18.433  0.00  0.00    +0.000 N 
ENDROOT
BRANCH   8  11
ATOM     11  C   UNL     1       7.090   4.784  16.706  0.00  0.00    +0.000 C 
ATOM     12  F   UNL     1       7.409   6.106  16.619  0.00  0.00    +0.000 F 
ATOM     13  F   UNL     1       8.080   4.201  17.439  0.00  0.00    +0.000 F 
ATOM     14  F   UNL     1       7.195   4.284  15.444  0.00  0.00    +0.000 F 
ENDBRANCH   8  11
BRANCH   1  15
ATOM     15  N   UNL     1       3.027   6.321  20.043  0.00  0.00    +0.000 N 
ATOM     16  H   UNL     1       2.801   6.143  21.029  0.00  0.00    +0.000 HD
BRANCH  15  20
ATOM     17  C   UNL     1       0.757   9.699  18.814  0.00  0.00    +0.000 A 
ATOM     18  C   UNL     1       1.577   9.030  17.909  0.00  0.00    +0.000 A 
ATOM     19  C   UNL     1       2.345   7.935  18.313  0.00  0.00    +0.000 A 
ATOM     20  C   UNL     1       2.337   7.501  19.643  0.00  0.00    +0.000 A 
ATOM     21  C   UNL     1       1.512   8.168  20.552  0.00  0.00    +0.000 A 
ATOM     22  C   UNL     1       0.749   9.277  20.149  0.00  0.00    +0.000 A 
BRANCH  17  26
ATOM     23  C   UNL     1      -1.990  12.005  17.629  0.00  0.00    +0.000 C 
ATOM     24  C   UNL     1      -1.387  10.674  17.998  0.00  0.00    +0.000 C 
ATOM     25  O   UNL     1      -2.050   9.647  17.898  0.00  0.00    +0.000 OA
ATOM     26  N   UNL     1      -0.076  10.778  18.438  0.00  0.00    +0.000 N 
ATOM     27  H   UNL     1       0.281  11.709  18.611  0.00  0.00    +0.000 HD
ENDBRANCH  17  26
ENDBRANCH  15  20
ENDBRANCH   1  15
TORSDOF 4
ENDMDL
MODEL 3
REMARK VINA RESULT:      -8.6      0.208      1.238
REMARK  Name = 
REMARK  6 active torsions:
REMARK  status: ('A' for Active; 'I' for Inactive)
REMARK    1  A    between atoms: C_1  and  C_2
REMARK    2  A    between atoms: N_4  and  C_5
REMARK    3  A    between atoms: C_8  and  N_9
REMARK    4  A    between atoms: N_9  and  C_10
REMARK    5  A    between atoms: C_12  and  C_13
REMARK    6  A    between atoms: C_17  and  C_18
REMARK                            x       y       z     vdW  Elec       q    Type
REMARK                         _______ _______ _______ _____ _____    ______ ____
ROOT
ATOM      1  C   UNL     1       2.835   5.119  19.302  0.00  0.00    +0.000 A 
ATOM      2  C   UNL     1       1.761   4.307  19.385  0.00  0.00    +0.000 A 
ATOM      3  C   UNL     1       1.772   3.075  18.545  0.00  0.00    +0.000 A 
ATOM      4  C   UNL     1       0.583   2.156  18.658  0.00  0.00    +0.000 C 
ATOM      5  N   UNL     1       2.728   2.735  17.732  0.00  0.00    +0.000 NA
ATOM      6  C   UNL     1       3.797   3.576  17.660  0.00  0.00    +0.000 A 
ATOM      7  N   UNL     1       4.892   3.452  16.950  0.00  0.00    +0.000 NA
ATOM      8  C   UNL     1       5.640   4.565  17.270  0.00  0.00    +0.000 A 
ATOM      9  N   UNL     1       5.045   5.392  18.157  0.00  0.00    +0.000 NA
ATOM     10  N   UNL     1       3.867   4.754  18.410  0.00  0.00    +0.000 N 
ENDROOT
BRANCH   8  11
ATOM     11  C   UNL     1       7.010   4.807  16.667  0.00  0.00    +0.000 C 
ATOM     12  F   UNL     1       8.013   4.222  17.379  0.00  0.00    +0.000 F 
ATOM     13  F   UNL     1       7.107   4.317  15.399  0.00  0.00    +0.000 F 
ATOM     14  F   UNL     1       7.318   6.131  16.596  0.00  0.00    +0.000 F 
ENDBRANCH   8  11
BRANCH   1  15
ATOM     15  N   UNL     1       2.977   6.289  20.064  0.00  0.00    +0.000 N 
ATOM     16  H   UNL     1       2.699   6.102  21.035  0.00  0.00    +0.000 HD
BRANCH  15  20
ATOM     17  C   UNL     1       0.901   9.779  18.804  0.00  0.00    +0.000 A 
ATOM     18  C   UNL     1       1.721   9.085  17.919  0.00  0.00    +0.000 A 
ATOM     19  C   UNL     1       2.426   7.952  18.334  0.00  0.00    +0.000 A 
ATOM     20  C   UNL     1       2.354   7.503  19.657  0.00  0.00    +0.000 A 
ATOM     21  C   UNL     1       1.528   8.195  20.547  0.00  0.00    +0.000 A 
ATOM     22  C   UNL     1       0.828   9.342  20.133  0.00  0.00    +0.000 A 
BRANCH  17  26
ATOM     23  C   UNL     1      -0.632  13.178  18.206  0.00  0.00    +0.000 C 
ATOM     24  C   UNL     1       0.407  12.221  18.728  0.00  0.00    +0.000 C 
ATOM     25  O   UNL     1       1.373  12.641  19.356  0.00  0.00    +0.000 OA
ATOM     26  N   UNL     1       0.130  10.898  18.415  0.00  0.00    +0.000 N 
ATOM     27  H   UNL     1      -0.622  10.726  17.760  0.00  0.00    +0.000 HD
ENDBRANCH  17  26
ENDBRANCH  15  20
ENDBRANCH   1  15
TORSDOF 4
ENDMDL
MODEL 4
REMARK VINA RESULT:      -8.6      1.051      1.051
REMARK  Name = 
REMARK  6 active torsions:
REMARK  status: ('A' for Active; 'I' for Inactive)
REMARK    1  A    between atoms: C_1  and  C_2
REMARK    2  A    between atoms: N_4  and  C_5
REMARK    3  A    between atoms: C_8  and  N_9
REMARK    4  A    between atoms: N_9  and  C_10
REMARK    5  A    between atoms: C_12  and  C_13
REMARK    6  A    between atoms: C_17  and  C_18
REMARK                            x       y       z     vdW  Elec       q    Type
REMARK                         _______ _______ _______ _____ _____    ______ ____
ROOT
ATOM      1  C   UNL     1       2.910   5.037  19.301  0.00  0.00    +0.000 A 
ATOM      2  C   UNL     1       1.842   4.219  19.400  0.00  0.00    +0.000 A 
ATOM      3  C   UNL     1       1.844   2.991  18.556  0.00  0.00    +0.000 A 
ATOM      4  C   UNL     1       0.661   2.065  18.687  0.00  0.00    +0.000 C 
ATOM      5  N   UNL     1       2.787   2.658  17.724  0.00  0.00    +0.000 NA
ATOM      6  C   UNL     1       3.850   3.505  17.636  0.00  0.00    +0.000 A 
ATOM      7  N   UNL     1       4.932   3.389  16.905  0.00  0.00    +0.000 NA
ATOM      8  C   UNL     1       5.681   4.505  17.216  0.00  0.00    +0.000 A 
ATOM      9  N   UNL     1       5.097   5.325  18.117  0.00  0.00    +0.000 NA
ATOM     10  N   UNL     1       3.927   4.680  18.389  0.00  0.00    +0.000 N 
ENDROOT
BRANCH   8  11
ATOM     11  C   UNL     1       7.038   4.756  16.589  0.00  0.00    +0.000 C 
ATOM     12  F   UNL     1       7.141   4.247  15.330  0.00  0.00    +0.000 F 
ATOM     13  F   UNL     1       7.319   6.085  16.488  0.00  0.00    +0.000 F 
ATOM     14  F   UNL     1       8.051   4.199  17.308  0.00  0.00    +0.000 F 
ENDBRANCH   8  11
BRANCH   1  15
ATOM     15  N   UNL     1       3.060   6.204  20.065  0.00  0.00    +0.000 N 
ATOM     16  H   UNL     1       2.959   5.977  21.062  0.00  0.00    +0.000 HD
BRANCH  15  20
ATOM     17  C   UNL     1       0.907   9.791  19.307  0.00  0.00    +0.000 A 
ATOM     18  C   UNL     1       0.850   9.182  20.558  0.00  0.00    +0.000 A 
ATOM     19  C   UNL     1       1.535   7.990  20.805  0.00  0.00    +0.000 A 
ATOM     20  C   UNL     1       2.269   7.357  19.796  0.00  0.00    +0.000 A 
ATOM     21  C   UNL     1       2.331   7.968  18.541  0.00  0.00    +0.000 A 
ATOM     22  C   UNL     1       1.632   9.161  18.288  0.00  0.00    +0.000 A 
BRANCH  17  26
ATOM     23  C   UNL     1      -1.348  12.621  18.225  0.00  0.00    +0.000 C 
ATOM     24  C   UNL     1      -0.970  11.177  18.431  0.00  0.00    +0.000 C 
ATOM     25  O   UNL     1      -1.735  10.283  18.084  0.00  0.00    +0.000 OA
ATOM     26  N   UNL     1       0.273  11.023  19.027  0.00  0.00    +0.000 N 
ATOM     27  H   UNL     1       0.715  11.855  19.394  0.00  0.00    +0.000 HD
ENDBRANCH  17  26
ENDBRANCH  15  20
ENDBRANCH   1  15
TORSDOF 4
ENDMDL
MODEL 5
REMARK VINA RESULT:      -8.4      2.976      4.299
REMARK  Name = 
REMARK  6 active torsions:
REMARK  status: ('A' for Active; 'I' for Inactive)
REMARK    1  A    between atoms: C_1  and  C_2
REMARK    2  A    between atoms: N_4  and  C_5
REMARK    3  A    between atoms: C_8  and  N_9
REMARK    4  A    between atoms: N_9  and  C_10
REMARK    5  A    between atoms: C_12  and  C_13
REMARK    6  A    between atoms: C_17  and  C_18
REMARK                            x       y       z     vdW  Elec       q    Type
REMARK                         _______ _______ _______ _____ _____    ______ ____
ROOT
ATOM      1  C   UNL     1       4.870   4.942  17.243  0.00  0.00    +0.000 A 
ATOM      2  C   UNL     1       5.682   5.294  18.261  0.00  0.00    +0.000 A 
ATOM      3  C   UNL     1       7.148   5.289  17.994  0.00  0.00    +0.000 A 
ATOM      4  C   UNL     1       8.054   5.707  19.124  0.00  0.00    +0.000 C 
ATOM      5  N   UNL     1       7.701   4.959  16.863  0.00  0.00    +0.000 NA
ATOM      6  C   UNL     1       6.859   4.599  15.855  0.00  0.00    +0.000 A 
ATOM      7  N   UNL     1       7.154   4.255  14.625  0.00  0.00    +0.000 NA
ATOM      8  C   UNL     1       5.933   4.017  14.030  0.00  0.00    +0.000 A 
ATOM      9  N   UNL     1       4.876   4.194  14.853  0.00  0.00    +0.000 NA
ATOM     10  N   UNL     1       5.472   4.573  16.020  0.00  0.00    +0.000 N 
ENDROOT
BRANCH   8  11
ATOM     11  C   UNL     1       5.820   3.600  12.577  0.00  0.00    +0.000 C 
ATOM     12  F   UNL     1       4.597   3.873  12.042  0.00  0.00    +0.000 F 
ATOM     13  F   UNL     1       6.731   4.235  11.788  0.00  0.00    +0.000 F 
ATOM     14  F   UNL     1       6.021   2.264  12.404  0.00  0.00    +0.000 F 
ENDBRANCH   8  11
BRANCH   1  15
ATOM     15  N   UNL     1       3.470   4.942  17.339  0.00  0.00    +0.000 N 
ATOM     16  H   UNL     1       3.063   5.225  16.439  0.00  0.00    +0.000 HD
BRANCH  15  20
ATOM     17  C   UNL     1       1.734   7.179  20.511  0.00  0.00    +0.000 A 
ATOM     18  C   UNL     1       1.801   5.790  20.579  0.00  0.00    +0.000 A 
ATOM     19  C   UNL     1       2.347   5.048  19.528  0.00  0.00    +0.000 A 
ATOM     20  C   UNL     1       2.810   5.675  18.367  0.00  0.00    +0.000 A 
ATOM     21  C   UNL     1       2.748   7.070  18.298  0.00  0.00    +0.000 A 
ATOM     22  C   UNL     1       2.187   7.816  19.349  0.00  0.00    +0.000 A 
BRANCH  17  26
ATOM     23  C   UNL     1      -0.020   9.652  22.763  0.00  0.00    +0.000 C 
ATOM     24  C   UNL     1       0.255   8.947  21.461  0.00  0.00    +0.000 C 
ATOM     25  O   UNL     1      -0.366   9.254  20.449  0.00  0.00    +0.000 OA
ATOM     26  N   UNL     1       1.238   7.973  21.569  0.00  0.00    +0.000 N 
ATOM     27  H   UNL     1       1.546   7.731  22.502  0.00  0.00    +0.000 HD
ENDBRANCH  17  26
ENDBRANCH  15  20
ENDBRANCH   1  15
TORSDOF 4
ENDMDL
MODEL 6
REMARK VINA RESULT:      -8.4      1.839      2.231
REMARK  Name = 
REMARK  6 active torsions:
REMARK  status: ('A' for Active; 'I' for Inactive)
REMARK    1  A    between atoms: C_1  and  C_2
REMARK    2  A    between atoms: N_4  and  C_5
REMARK    3  A    between atoms: C_8  and  N_9
REMARK    4  A    between atoms: N_9  and  C_10
REMARK    5  A    between atoms: C_12  and  C_13
REMARK    6  A    between atoms: C_17  and  C_18
REMARK                            x       y       z     vdW  Elec       q    Type
REMARK                         _______ _______ _______ _____ _____    ______ ____
ROOT
ATOM      1  C   UNL     1       2.862   5.916  18.131  0.00  0.00    +0.000 A 
ATOM      2  C   UNL     1       1.857   5.018  18.182  0.00  0.00    +0.000 A 
ATOM      3  C   UNL     1       2.211   3.622  18.565  0.00  0.00    +0.000 A 
ATOM      4  C   UNL     1       1.083   2.625  18.646  0.00  0.00    +0.000 C 
ATOM      5  N   UNL     1       3.412   3.203  18.837  0.00  0.00    +0.000 NA
ATOM      6  C   UNL     1       4.410   4.128  18.769  0.00  0.00    +0.000 A 
ATOM      7  N   UNL     1       5.687   3.975  19.021  0.00  0.00    +0.000 NA
ATOM      8  C   UNL     1       6.232   5.226  18.821  0.00  0.00    +0.000 A 
ATOM      9  N   UNL     1       5.334   6.162  18.442  0.00  0.00    +0.000 NA
ATOM     10  N   UNL     1       4.167   5.458  18.416  0.00  0.00    +0.000 N 
ENDROOT
BRANCH   8  11
ATOM     11  C   UNL     1       7.710   5.495  19.022  0.00  0.00    +0.000 C 
ATOM     12  F   UNL     1       8.504   4.556  18.436  0.00  0.00    +0.000 F 
ATOM     13  F   UNL     1       8.090   6.695  18.499  0.00  0.00    +0.000 F 
ATOM     14  F   UNL     1       8.057   5.518  20.339  0.00  0.00    +0.000 F 
ENDBRANCH   8  11
BRANCH   1  15
ATOM     15  N   UNL     1       2.669   7.272  17.827  0.00  0.00    +0.000 N 
ATOM     16  H   UNL     1       3.575   7.710  17.616  0.00  0.00    +0.000 HD
BRANCH  15  20
ATOM     17  C   UNL     1       0.378   9.665  20.492  0.00  0.00    +0.000 A 
ATOM     18  C   UNL     1       0.452   9.986  19.139  0.00  0.00    +0.000 A 
ATOM     19  C   UNL     1       1.224   9.218  18.263  0.00  0.00    +0.000 A 
ATOM     20  C   UNL     1       1.969   8.128  18.725  0.00  0.00    +0.000 A 
ATOM     21  C   UNL     1       1.894   7.802  20.082  0.00  0.00    +0.000 A 
ATOM     22  C   UNL     1       1.128   8.581  20.966  0.00  0.00    +0.000 A 
BRANCH  17  26
ATOM     23  C   UNL     1      -1.203  12.131  22.877  0.00  0.00    +0.000 C 
ATOM     24  C   UNL     1      -0.177  11.661  21.878  0.00  0.00    +0.000 C 
ATOM     25  O   UNL     1       0.756  12.391  21.562  0.00  0.00    +0.000 OA
ATOM     26  N   UNL     1      -0.429  10.382  21.404  0.00  0.00    +0.000 N 
ATOM     27  H   UNL     1      -1.322   9.969  21.642  0.00  0.00    +0.000 HD
ENDBRANCH  17  26
ENDBRANCH  15  20
ENDBRANCH   1  15
TORSDOF 4
ENDMDL
MODEL 7
REMARK VINA RESULT:      -8.3      2.934      4.222
REMARK  Name = 
REMARK  6 active torsions:
REMARK  status: ('A' for Active; 'I' for Inactive)
REMARK    1  A    between atoms: C_1  and  C_2
REMARK    2  A    between atoms: N_4  and  C_5
REMARK    3  A    between atoms: C_8  and  N_9
REMARK    4  A    between atoms: N_9  and  C_10
REMARK    5  A    between atoms: C_12  and  C_13
REMARK    6  A    between atoms: C_17  and  C_18
REMARK                            x       y       z     vdW  Elec       q    Type
REMARK                         _______ _______ _______ _____ _____    ______ ____
ROOT
ATOM      1  C   UNL     1       4.936   5.135  17.590  0.00  0.00    +0.000 A 
ATOM      2  C   UNL     1       5.730   5.460  18.631  0.00  0.00    +0.000 A 
ATOM      3  C   UNL     1       7.203   5.397  18.408  0.00  0.00    +0.000 A 
ATOM      4  C   UNL     1       8.089   5.785  19.565  0.00  0.00    +0.000 C 
ATOM      5  N   UNL     1       7.776   5.039  17.297  0.00  0.00    +0.000 NA
ATOM      6  C   UNL     1       6.951   4.708  16.265  0.00  0.00    +0.000 A 
ATOM      7  N   UNL     1       7.269   4.346  15.045  0.00  0.00    +0.000 NA
ATOM      8  C   UNL     1       6.058   4.152  14.415  0.00  0.00    +0.000 A 
ATOM      9  N   UNL     1       4.985   4.375  15.205  0.00  0.00    +0.000 NA
ATOM     10  N   UNL     1       5.559   4.736  16.388  0.00  0.00    +0.000 N 
ENDROOT
BRANCH   8  11
ATOM     11  C   UNL     1       5.973   3.733  12.961  0.00  0.00    +0.000 C 
ATOM     12  F   UNL     1       6.205   2.403  12.779  0.00  0.00    +0.000 F 
ATOM     13  F   UNL     1       4.745   3.982  12.425  0.00  0.00    +0.000 F 
ATOM     14  F   UNL     1       6.876   4.387  12.180  0.00  0.00    +0.000 F 
ENDBRANCH   8  11
BRANCH   1  15
ATOM     15  N   UNL     1       3.534   5.189  17.644  0.00  0.00    +0.000 N 
ATOM     16  H   UNL     1       3.163   5.417  16.714  0.00  0.00    +0.000 HD
BRANCH  15  20
ATOM     17  C   UNL     1       1.340   7.599  20.374  0.00  0.00    +0.000 A 
ATOM     18  C   UNL     1       1.893   8.157  19.225  0.00  0.00    +0.000 A 
ATOM     19  C   UNL     1       2.637   7.375  18.337  0.00  0.00    +0.000 A 
ATOM     20  C   UNL     1       2.874   6.021  18.594  0.00  0.00    +0.000 A 
ATOM     21  C   UNL     1       2.316   5.458  19.745  0.00  0.00    +0.000 A 
ATOM     22  C   UNL     1       1.579   6.246  20.644  0.00  0.00    +0.000 A 
BRANCH  17  26
ATOM     23  C   UNL     1      -0.104   9.753  23.121  0.00  0.00    +0.000 C 
ATOM     24  C   UNL     1       1.004   9.130  22.313  0.00  0.00    +0.000 C 
ATOM     25  O   UNL     1       2.176   9.347  22.602  0.00  0.00    +0.000 OA
ATOM     26  N   UNL     1       0.538   8.339  21.272  0.00  0.00    +0.000 N 
ATOM     27  H   UNL     1      -0.452   8.384  21.068  0.00  0.00    +0.000 HD
ENDBRANCH  17  26
ENDBRANCH  15  20
ENDBRANCH   1  15
TORSDOF 4
ENDMDL
MODEL 8
REMARK VINA RESULT:      -8.3      0.829      1.141
REMARK  Name = 
REMARK  6 active torsions:
REMARK  status: ('A' for Active; 'I' for Inactive)
REMARK    1  A    between atoms: C_1  and  C_2
REMARK    2  A    between atoms: N_4  and  C_5
REMARK    3  A    between atoms: C_8  and  N_9
REMARK    4  A    between atoms: N_9  and  C_10
REMARK    5  A    between atoms: C_12  and  C_13
REMARK    6  A    between atoms: C_17  and  C_18
REMARK                            x       y       z     vdW  Elec       q    Type
REMARK                         _______ _______ _______ _____ _____    ______ ____
ROOT
ATOM      1  C   UNL     1       2.906   5.254  19.250  0.00  0.00    +0.000 A 
ATOM      2  C   UNL     1       1.815   4.468  19.356  0.00  0.00    +0.000 A 
ATOM      3  C   UNL     1       1.786   3.229  18.528  0.00  0.00    +0.000 A 
ATOM      4  C   UNL     1       0.577   2.339  18.667  0.00  0.00    +0.000 C 
ATOM      5  N   UNL     1       2.721   2.859  17.704  0.00  0.00    +0.000 NA
ATOM      6  C   UNL     1       3.808   3.675  17.609  0.00  0.00    +0.000 A 
ATOM      7  N   UNL     1       4.889   3.518  16.884  0.00  0.00    +0.000 NA
ATOM      8  C   UNL     1       5.668   4.616  17.183  0.00  0.00    +0.000 A 
ATOM      9  N   UNL     1       5.105   5.465  18.070  0.00  0.00    +0.000 NA
ATOM     10  N   UNL     1       3.916   4.857  18.346  0.00  0.00    +0.000 N 
ENDROOT
BRANCH   8  11
ATOM     11  C   UNL     1       7.034   4.820  16.558  0.00  0.00    +0.000 C 
ATOM     12  F   UNL     1       7.375   6.135  16.448  0.00  0.00    +0.000 F 
ATOM     13  F   UNL     1       8.024   4.229  17.283  0.00  0.00    +0.000 F 
ATOM     14  F   UNL     1       7.111   4.302  15.301  0.00  0.00    +0.000 F 
ENDBRANCH   8  11
BRANCH   1  15
ATOM     15  N   UNL     1       3.087   6.427  19.999  0.00  0.00    +0.000 N 
ATOM     16  H   UNL     1       3.219   6.186  20.989  0.00  0.00    +0.000 HD
BRANCH  15  20
ATOM     17  C   UNL     1       0.444   9.755  19.867  0.00  0.00    +0.000 A 
ATOM     18  C   UNL     1       0.486   8.928  20.987  0.00  0.00    +0.000 A 
ATOM     19  C   UNL     1       1.334   7.818  21.025  0.00  0.00    +0.000 A 
ATOM     20  C   UNL     1       2.139   7.488  19.930  0.00  0.00    +0.000 A 
ATOM     21  C   UNL     1       2.102   8.318  18.807  0.00  0.00    +0.000 A 
ATOM     22  C   UNL     1       1.240   9.428  18.763  0.00  0.00    +0.000 A 
BRANCH  17  26
ATOM     23  C   UNL     1      -1.218  13.121  20.279  0.00  0.00    +0.000 C 
ATOM     24  C   UNL     1      -0.162  12.079  20.535  0.00  0.00    +0.000 C 
ATOM     25  O   UNL     1       0.751  12.306  21.322  0.00  0.00    +0.000 OA
ATOM     26  N   UNL     1      -0.359  10.916  19.804  0.00  0.00    +0.000 N 
ATOM     27  H   UNL     1      -1.069  10.940  19.083  0.00  0.00    +0.000 HD
ENDBRANCH  17  26
ENDBRANCH  15  20
ENDBRANCH   1  15
TORSDOF 4
ENDMDL
MODEL 9
REMARK VINA RESULT:      -8.3      1.443      1.961
REMARK  Name = 
REMARK  6 active torsions:
REMARK  status: ('A' for Active; 'I' for Inactive)
REMARK    1  A    between atoms: C_1  and  C_2
REMARK    2  A    between atoms: N_4  and  C_5
REMARK    3  A    between atoms: C_8  and  N_9
REMARK    4  A    between atoms: N_9  and  C_10
REMARK    5  A    between atoms: C_12  and  C_13
REMARK    6  A    between atoms: C_17  and  C_18
REMARK                            x       y       z     vdW  Elec       q    Type
REMARK                         _______ _______ _______ _____ _____    ______ ____
ROOT
ATOM      1  C   UNL     1       2.699   5.091  19.875  0.00  0.00    +0.000 A 
ATOM      2  C   UNL     1       1.695   4.216  19.660  0.00  0.00    +0.000 A 
ATOM      3  C   UNL     1       1.984   3.052  18.776  0.00  0.00    +0.000 A 
ATOM      4  C   UNL     1       0.869   2.061  18.558  0.00  0.00    +0.000 C 
ATOM      5  N   UNL     1       3.121   2.826  18.186  0.00  0.00    +0.000 NA
ATOM      6  C   UNL     1       4.115   3.730  18.412  0.00  0.00    +0.000 A 
ATOM      7  N   UNL     1       5.348   3.720  17.966  0.00  0.00    +0.000 NA
ATOM      8  C   UNL     1       5.923   4.847  18.514  0.00  0.00    +0.000 A 
ATOM      9  N   UNL     1       5.085   5.572  19.287  0.00  0.00    +0.000 NA
ATOM     10  N   UNL     1       3.929   4.851  19.224  0.00  0.00    +0.000 N 
ENDROOT
BRANCH   8  11
ATOM     11  C   UNL     1       7.373   5.209  18.258  0.00  0.00    +0.000 C 
ATOM     12  F   UNL     1       8.067   5.457  19.404  0.00  0.00    +0.000 F 
ATOM     13  F   UNL     1       8.044   4.215  17.613  0.00  0.00    +0.000 F 
ATOM     14  F   UNL     1       7.499   6.326  17.489  0.00  0.00    +0.000 F 
ENDBRANCH   8  11
BRANCH   1  15
ATOM     15  N   UNL     1       2.581   6.208  20.716  0.00  0.00    +0.000 N 
ATOM     16  H   UNL     1       2.066   5.946  21.566  0.00  0.00    +0.000 HD
BRANCH  15  20
ATOM     17  C   UNL     1       0.721   9.726  19.219  0.00  0.00    +0.000 A 
ATOM     18  C   UNL     1       1.557   8.967  18.405  0.00  0.00    +0.000 A 
ATOM     19  C   UNL     1       2.191   7.824  18.899  0.00  0.00    +0.000 A 
ATOM     20  C   UNL     1       2.031   7.430  20.232  0.00  0.00    +0.000 A 
ATOM     21  C   UNL     1       1.189   8.188  21.050  0.00  0.00    +0.000 A 
ATOM     22  C   UNL     1       0.561   9.345  20.557  0.00  0.00    +0.000 A 
BRANCH  17  26
ATOM     23  C   UNL     1      -1.726  12.222  17.787  0.00  0.00    +0.000 C 
ATOM     24  C   UNL     1      -1.278  10.862  18.255  0.00  0.00    +0.000 C 
ATOM     25  O   UNL     1      -2.037   9.902  18.178  0.00  0.00    +0.000 OA
ATOM     26  N   UNL     1       0.019  10.859  18.749  0.00  0.00    +0.000 N 
ATOM     27  H   UNL     1       0.460  11.759  18.889  0.00  0.00    +0.000 HD
ENDBRANCH  17  26
ENDBRANCH  15  20
ENDBRANCH   1  15
TORSDOF 4
ENDMDL
