MODEL 1
REMARK VINA RESULT:      -9.3      0.000      0.000
REMARK  Name = 
REMARK  7 active torsions:
REMARK  status: ('A' for Active; 'I' for Inactive)
REMARK    1  A    between atoms: C_1  and  C_2
REMARK    2  A    between atoms: C_7  and  C_8
REMARK    3  A    between atoms: N_10  and  C_11
REMARK    4  A    between atoms: C_11  and  C_12
REMARK    5  A    between atoms: C_17  and  C_18
REMARK    6  A    between atoms: C_21  and  C_22
REMARK    7  A    between atoms: C_22  and  N_23
REMARK                            x       y       z     vdW  Elec       q    Type
REMARK                         _______ _______ _______ _____ _____    ______ ____
ROOT
ATOM      1  C   UNL     1       2.268   5.023  19.914  0.00  0.00    +0.000 A 
ATOM      2  C   UNL     1       1.183   4.527  20.676  0.00  0.00    +0.000 A 
ATOM      3  C   UNL     1       0.939   3.160  20.787  0.00  0.00    +0.000 A 
ATOM      4  C   UNL     1       1.769   2.264  20.136  0.00  0.00    +0.000 A 
ATOM      5  C   UNL     1       2.795   2.739  19.315  0.00  0.00    +0.000 A 
ATOM      6  C   UNL     1       3.061   4.121  19.155  0.00  0.00    +0.000 A 
ENDROOT
BRANCH   6   7
ATOM      7  C   UNL     1       4.134   4.542  18.210  0.00  0.00    +0.000 A 
ATOM      8  C   UNL     1       5.441   4.035  18.306  0.00  0.00    +0.000 A 
ATOM      9  C   UNL     1       6.446   4.398  17.403  0.00  0.00    +0.000 A 
ATOM     10  C   UNL     1       6.196   5.344  16.406  0.00  0.00    +0.000 A 
ATOM     11  C   UNL     1       4.919   5.906  16.325  0.00  0.00    +0.000 A 
ATOM     12  C   UNL     1       3.905   5.501  17.204  0.00  0.00    +0.000 A 
BRANCH  10  13
ATOM     13  C   UNL     1       7.267   5.705  15.406  0.00  0.00    +0.000 C 
BRANCH  13  14
ATOM     14  N   UNL     1       7.148   4.938  14.180  0.00  0.00    +0.000 N 
ATOM     15  C   UNL     1       5.994   4.125  13.882  0.00  0.00    +0.000 C 
ATOM     16  C   UNL     1       6.373   3.453  12.578  0.00  0.00    +0.000 C 
ATOM     17  C   UNL     1       7.254   4.487  11.887  0.00  0.00    +0.000 C 
ATOM     18  C   UNL     1       7.894   5.216  13.045  0.00  0.00    +0.000 C 
ATOM     19  O   UNL     1       8.854   5.964  12.963  0.00  0.00    +0.000 OA
ENDBRANCH  13  14
ENDBRANCH  10  13
ENDBRANCH   6   7
BRANCH   1  20
ATOM     20  C   UNL     1       2.581   6.500  20.065  0.00  0.00    +0.000 C 
BRANCH  20  23
ATOM     21  C   UNL     1       1.240   8.545  20.270  0.00  0.00    +0.000 C 
ATOM     22  O   UNL     1       1.735   9.011  19.249  0.00  0.00    +0.000 OA
ATOM     23  N   UNL     1       1.517   7.258  20.695  0.00  0.00    +0.000 N 
ATOM     24  H   UNL     1       0.996   6.830  21.448  0.00  0.00    +0.000 HD
BRANCH  21  31
ATOM     25  C   UNL     1      -0.582  10.740  19.168  0.00  0.00    +0.000 C 
ATOM     26  C   UNL     1      -0.435  10.445  20.636  0.00  0.00    +0.000 A 
ATOM     27  C   UNL     1      -1.144  11.257  21.545  0.00  0.00    +0.000 A 
ATOM     28  C   UNL     1      -1.096  11.032  22.917  0.00  0.00    +0.000 A 
ATOM     29  C   UNL     1      -0.341   9.976  23.411  0.00  0.00    +0.000 A 
ATOM     30  C   UNL     1       0.379   9.160  22.535  0.00  0.00    +0.000 A 
ATOM     31  C   UNL     1       0.347   9.379  21.145  0.00  0.00    +0.000 A 
ENDBRANCH  21  31
ENDBRANCH  20  23
ENDBRANCH   1  20
TORSDOF 6
ENDMDL
MODEL 2
REMARK VINA RESULT:      -9.1      3.135      5.713
REMARK  Name = 
REMARK  7 active torsions:
REMARK  status: ('A' for Active; 'I' for Inactive)
REMARK    1  A    between atoms: C_1  and  C_2
REMARK    2  A    between atoms: C_7  and  C_8
REMARK    3  A    between atoms: N_10  and  C_11
REMARK    4  A    between atoms: C_11  and  C_12
REMARK    5  A    between atoms: C_17  and  C_18
REMARK    6  A    between atoms: C_21  and  C_22
REMARK    7  A    between atoms: C_22  and  N_23
REMARK                            x       y       z     vdW  Elec       q    Type
REMARK                         _______ _______ _______ _____ _____    ______ ____
ROOT
ATOM      1  C   UNL     1      -0.115   9.779  20.456  0.00  0.00    +0.000 A 
ATOM      2  C   UNL     1      -0.921  10.442  21.412  0.00  0.00    +0.000 A 
ATOM      3  C   UNL     1      -0.671  10.325  22.777  0.00  0.00    +0.000 A 
ATOM      4  C   UNL     1       0.385   9.543  23.213  0.00  0.00    +0.000 A 
ATOM      5  C   UNL     1       1.140   8.818  22.287  0.00  0.00    +0.000 A 
ATOM      6  C   UNL     1       0.903   8.889  20.893  0.00  0.00    +0.000 A 
ENDROOT
BRANCH   6   7
ATOM      7  C   UNL     1       1.714   8.034  19.981  0.00  0.00    +0.000 A 
ATOM      8  C   UNL     1       2.125   8.488  18.717  0.00  0.00    +0.000 A 
ATOM      9  C   UNL     1       2.915   7.706  17.867  0.00  0.00    +0.000 A 
ATOM     10  C   UNL     1       3.266   6.402  18.226  0.00  0.00    +0.000 A 
ATOM     11  C   UNL     1       2.822   5.906  19.454  0.00  0.00    +0.000 A 
ATOM     12  C   UNL     1       2.070   6.714  20.320  0.00  0.00    +0.000 A 
BRANCH  10  13
ATOM     13  C   UNL     1       4.153   5.573  17.330  0.00  0.00    +0.000 C 
BRANCH  13  14
ATOM     14  N   UNL     1       5.561   5.794  17.603  0.00  0.00    +0.000 N 
ATOM     15  C   UNL     1       6.247   7.002  17.215  0.00  0.00    +0.000 C 
ATOM     16  C   UNL     1       7.684   6.724  17.609  0.00  0.00    +0.000 C 
ATOM     17  C   UNL     1       7.551   5.826  18.832  0.00  0.00    +0.000 C 
ATOM     18  C   UNL     1       6.256   5.092  18.577  0.00  0.00    +0.000 C 
ATOM     19  O   UNL     1       5.878   4.099  19.176  0.00  0.00    +0.000 OA
ENDBRANCH  13  14
ENDBRANCH  10  13
ENDBRANCH   6   7
BRANCH   1  20
ATOM     20  C   UNL     1      -0.326  10.173  19.005  0.00  0.00    +0.000 C 
BRANCH  20  23
ATOM     21  C   UNL     1      -2.160  11.681  18.389  0.00  0.00    +0.000 C 
ATOM     22  O   UNL     1      -1.383  12.619  18.243  0.00  0.00    +0.000 OA
ATOM     23  N   UNL     1      -1.716  10.400  18.661  0.00  0.00    +0.000 N 
ATOM     24  H   UNL     1      -2.345   9.609  18.634  0.00  0.00    +0.000 HD
BRANCH  21  31
ATOM     25  C   UNL     1      -3.757  12.803  20.743  0.00  0.00    +0.000 C 
ATOM     26  C   UNL     1      -4.389  12.341  19.458  0.00  0.00    +0.000 A 
ATOM     27  C   UNL     1      -5.796  12.391  19.361  0.00  0.00    +0.000 A 
ATOM     28  C   UNL     1      -6.461  12.020  18.197  0.00  0.00    +0.000 A 
ATOM     29  C   UNL     1      -5.729  11.598  17.095  0.00  0.00    +0.000 A 
ATOM     30  C   UNL     1      -4.336  11.530  17.166  0.00  0.00    +0.000 A 
ATOM     31  C   UNL     1      -3.647  11.895  18.338  0.00  0.00    +0.000 A 
ENDBRANCH  21  31
ENDBRANCH  20  23
ENDBRANCH   1  20
TORSDOF 6
ENDMDL
MODEL 3
REMARK VINA RESULT:      -9.0      3.186      5.649
REMARK  Name = 
REMARK  7 active torsions:
REMARK  status: ('A' for Active; 'I' for Inactive)
REMARK    1  A    between atoms: C_1  and  C_2
REMARK    2  A    between atoms: C_7  and  C_8
REMARK    3  A    between atoms: N_10  and  C_11
REMARK    4  A    between atoms: C_11  and  C_12
REMARK    5  A    between atoms: C_17  and  C_18
REMARK    6  A    between atoms: C_21  and  C_22
REMARK    7  A    between atoms: C_22  and  N_23
REMARK                            x       y       z     vdW  Elec       q    Type
REMARK                         _______ _______ _______ _____ _____    ______ ____
ROOT
ATOM      1  C   UNL     1      -0.155   9.821  20.507  0.00  0.00    +0.000 A 
ATOM      2  C   UNL     1      -0.959  10.509  21.447  0.00  0.00    +0.000 A 
ATOM      3  C   UNL     1      -0.738  10.390  22.817  0.00  0.00    +0.000 A 
ATOM      4  C   UNL     1       0.286   9.577  23.275  0.00  0.00    +0.000 A 
ATOM      5  C   UNL     1       1.036   8.828  22.365  0.00  0.00    +0.000 A 
ATOM      6  C   UNL     1       0.828   8.902  20.966  0.00  0.00    +0.000 A 
ENDROOT
BRANCH   6   7
ATOM      7  C   UNL     1       1.630   8.021  20.072  0.00  0.00    +0.000 A 
ATOM      8  C   UNL     1       2.027   6.732  20.469  0.00  0.00    +0.000 A 
ATOM      9  C   UNL     1       2.751   5.885  19.625  0.00  0.00    +0.000 A 
ATOM     10  C   UNL     1       3.171   6.326  18.367  0.00  0.00    +0.000 A 
ATOM     11  C   UNL     1       2.838   7.623  17.970  0.00  0.00    +0.000 A 
ATOM     12  C   UNL     1       2.071   8.450  18.804  0.00  0.00    +0.000 A 
BRANCH  10  13
ATOM     13  C   UNL     1       3.916   5.398  17.439  0.00  0.00    +0.000 C 
BRANCH  13  14
ATOM     14  N   UNL     1       5.353   5.578  17.528  0.00  0.00    +0.000 N 
ATOM     15  C   UNL     1       6.027   6.724  16.969  0.00  0.00    +0.000 C 
ATOM     16  C   UNL     1       7.491   6.415  17.212  0.00  0.00    +0.000 C 
ATOM     17  C   UNL     1       7.475   5.617  18.510  0.00  0.00    +0.000 C 
ATOM     18  C   UNL     1       6.136   4.921  18.466  0.00  0.00    +0.000 C 
ATOM     19  O   UNL     1       5.799   3.993  19.181  0.00  0.00    +0.000 OA
ENDBRANCH  13  14
ENDBRANCH  10  13
ENDBRANCH   6   7
BRANCH   1  20
ATOM     20  C   UNL     1      -0.327  10.216  19.053  0.00  0.00    +0.000 C 
BRANCH  20  23
ATOM     21  C   UNL     1      -2.212  11.639  18.387  0.00  0.00    +0.000 C 
ATOM     22  O   UNL     1      -1.481  12.619  18.291  0.00  0.00    +0.000 OA
ATOM     23  N   UNL     1      -1.712  10.377  18.654  0.00  0.00    +0.000 N 
ATOM     24  H   UNL     1      -2.296   9.556  18.585  0.00  0.00    +0.000 HD
BRANCH  21  31
ATOM     25  C   UNL     1      -3.750  11.009  15.820  0.00  0.00    +0.000 C 
ATOM     26  C   UNL     1      -4.399  11.558  17.062  0.00  0.00    +0.000 A 
ATOM     27  C   UNL     1      -5.782  11.833  17.015  0.00  0.00    +0.000 A 
ATOM     28  C   UNL     1      -6.471  12.305  18.128  0.00  0.00    +0.000 A 
ATOM     29  C   UNL     1      -5.789  12.504  19.321  0.00  0.00    +0.000 A 
ATOM     30  C   UNL     1      -4.418  12.248  19.395  0.00  0.00    +0.000 A 
ATOM     31  C   UNL     1      -3.705  11.776  18.277  0.00  0.00    +0.000 A 
ENDBRANCH  21  31
ENDBRANCH  20  23
ENDBRANCH   1  20
TORSDOF 6
ENDMDL
MODEL 4
REMARK VINA RESULT:      -8.8      3.661      6.106
REMARK  Name = 
REMARK  7 active torsions:
REMARK  status: ('A' for Active; 'I' for Inactive)
REMARK    1  A    between atoms: C_1  and  C_2
REMARK    2  A    between atoms: C_7  and  C_8
REMARK    3  A    between atoms: N_10  and  C_11
REMARK    4  A    between atoms: C_11  and  C_12
REMARK    5  A    between atoms: C_17  and  C_18
REMARK    6  A    between atoms: C_21  and  C_22
REMARK    7  A    between atoms: C_22  and  N_23
REMARK                            x       y       z     vdW  Elec       q    Type
REMARK                         _______ _______ _______ _____ _____    ______ ____
ROOT
ATOM      1  C   UNL     1       0.223  10.356  20.460  0.00  0.00    +0.000 A 
ATOM      2  C   UNL     1      -0.617  11.078  21.341  0.00  0.00    +0.000 A 
ATOM      3  C   UNL     1      -0.786  10.688  22.667  0.00  0.00    +0.000 A 
ATOM      4  C   UNL     1      -0.124   9.567  23.137  0.00  0.00    +0.000 A 
ATOM      5  C   UNL     1       0.645   8.797  22.261  0.00  0.00    +0.000 A 
ATOM      6  C   UNL     1       0.822   9.145  20.900  0.00  0.00    +0.000 A 
ENDROOT
BRANCH   6   7
ATOM      7  C   UNL     1       1.607   8.232  20.021  0.00  0.00    +0.000 A 
ATOM      8  C   UNL     1       1.966   8.599  18.713  0.00  0.00    +0.000 A 
ATOM      9  C   UNL     1       2.730   7.764  17.891  0.00  0.00    +0.000 A 
ATOM     10  C   UNL     1       3.106   6.490  18.327  0.00  0.00    +0.000 A 
ATOM     11  C   UNL     1       2.712   6.079  19.603  0.00  0.00    +0.000 A 
ATOM     12  C   UNL     1       1.986   6.941  20.438  0.00  0.00    +0.000 A 
BRANCH  10  13
ATOM     13  C   UNL     1       3.966   5.605  17.458  0.00  0.00    +0.000 C 
BRANCH  13  14
ATOM     14  N   UNL     1       5.381   5.825  17.690  0.00  0.00    +0.000 N 
ATOM     15  C   UNL     1       6.064   7.018  17.251  0.00  0.00    +0.000 C 
ATOM     16  C   UNL     1       7.508   6.742  17.617  0.00  0.00    +0.000 C 
ATOM     17  C   UNL     1       7.401   5.881  18.869  0.00  0.00    +0.000 C 
ATOM     18  C   UNL     1       6.097   5.148  18.667  0.00  0.00    +0.000 C 
ATOM     19  O   UNL     1       5.728   4.175  19.304  0.00  0.00    +0.000 OA
ENDBRANCH  13  14
ENDBRANCH  10  13
ENDBRANCH   6   7
BRANCH   1  20
ATOM     20  C   UNL     1       0.522  11.009  19.123  0.00  0.00    +0.000 C 
BRANCH  20  23
ATOM     21  C   UNL     1       0.819  13.398  18.652  0.00  0.00    +0.000 C 
ATOM     22  O   UNL     1      -0.319  13.484  18.202  0.00  0.00    +0.000 OA
ATOM     23  N   UNL     1       1.289  12.235  19.233  0.00  0.00    +0.000 N 
ATOM     24  H   UNL     1       2.167  12.214  19.733  0.00  0.00    +0.000 HD
BRANCH  21  31
ATOM     25  C   UNL     1       0.185  16.206  19.685  0.00  0.00    +0.000 C 
ATOM     26  C   UNL     1       1.451  15.860  18.949  0.00  0.00    +0.000 A 
ATOM     27  C   UNL     1       2.367  16.901  18.687  0.00  0.00    +0.000 A 
ATOM     28  C   UNL     1       3.578  16.664  18.046  0.00  0.00    +0.000 A 
ATOM     29  C   UNL     1       3.907  15.372  17.660  0.00  0.00    +0.000 A 
ATOM     30  C   UNL     1       3.016  14.323  17.897  0.00  0.00    +0.000 A 
ATOM     31  C   UNL     1       1.783  14.546  18.538  0.00  0.00    +0.000 A 
ENDBRANCH  21  31
ENDBRANCH  20  23
ENDBRANCH   1  20
TORSDOF 6
ENDMDL
MODEL 5
REMARK VINA RESULT:      -8.8      3.442      6.046
REMARK  Name = 
REMARK  7 active torsions:
REMARK  status: ('A' for Active; 'I' for Inactive)
REMARK    1  A    between atoms: C_1  and  C_2
REMARK    2  A    between atoms: C_7  and  C_8
REMARK    3  A    between atoms: N_10  and  C_11
REMARK    4  A    between atoms: C_11  and  C_12
REMARK    5  A    between atoms: C_17  and  C_18
REMARK    6  A    between atoms: C_21  and  C_22
REMARK    7  A    between atoms: C_22  and  N_23
REMARK                            x       y       z     vdW  Elec       q    Type
REMARK                         _______ _______ _______ _____ _____    ______ ____
ROOT
ATOM      1  C   UNL     1      -0.180  10.010  20.687  0.00  0.00    +0.000 A 
ATOM      2  C   UNL     1      -0.962  10.764  21.596  0.00  0.00    +0.000 A 
ATOM      3  C   UNL     1      -0.806  10.629  22.973  0.00  0.00    +0.000 A 
ATOM      4  C   UNL     1       0.129   9.736  23.470  0.00  0.00    +0.000 A 
ATOM      5  C   UNL     1       0.851   8.927  22.589  0.00  0.00    +0.000 A 
ATOM      6  C   UNL     1       0.705   9.015  21.183  0.00  0.00    +0.000 A 
ENDROOT
BRANCH   6   7
ATOM      7  C   UNL     1       1.467   8.069  20.320  0.00  0.00    +0.000 A 
ATOM      8  C   UNL     1       1.999   8.466  19.082  0.00  0.00    +0.000 A 
ATOM      9  C   UNL     1       2.744   7.596  18.280  0.00  0.00    +0.000 A 
ATOM     10  C   UNL     1       2.926   6.263  18.658  0.00  0.00    +0.000 A 
ATOM     11  C   UNL     1       2.359   5.828  19.859  0.00  0.00    +0.000 A 
ATOM     12  C   UNL     1       1.653   6.719  20.679  0.00  0.00    +0.000 A 
BRANCH  10  13
ATOM     13  C   UNL     1       3.766   5.335  17.816  0.00  0.00    +0.000 C 
BRANCH  13  14
ATOM     14  N   UNL     1       3.429   3.942  18.041  0.00  0.00    +0.000 N 
ATOM     15  C   UNL     1       2.483   3.229  17.217  0.00  0.00    +0.000 C 
ATOM     16  C   UNL     1       2.388   1.876  17.894  0.00  0.00    +0.000 C 
ATOM     17  C   UNL     1       3.781   1.670  18.476  0.00  0.00    +0.000 C 
ATOM     18  C   UNL     1       4.241   3.080  18.763  0.00  0.00    +0.000 C 
ATOM     19  O   UNL     1       5.199   3.382  19.454  0.00  0.00    +0.000 OA
ENDBRANCH  13  14
ENDBRANCH  10  13
ENDBRANCH   6   7
BRANCH   1  20
ATOM     20  C   UNL     1      -0.261  10.415  19.228  0.00  0.00    +0.000 C 
BRANCH  20  23
ATOM     21  C   UNL     1      -2.199  11.763  18.557  0.00  0.00    +0.000 C 
ATOM     22  O   UNL     1      -1.546  12.799  18.633  0.00  0.00    +0.000 OA
ATOM     23  N   UNL     1      -1.619  10.519  18.728  0.00  0.00    +0.000 N 
ATOM     24  H   UNL     1      -2.125   9.670  18.518  0.00  0.00    +0.000 HD
BRANCH  21  31
ATOM     25  C   UNL     1      -3.488  11.032  15.882  0.00  0.00    +0.000 C 
ATOM     26  C   UNL     1      -4.267  11.537  17.066  0.00  0.00    +0.000 A 
ATOM     27  C   UNL     1      -5.657  11.721  16.910  0.00  0.00    +0.000 A 
ATOM     28  C   UNL     1      -6.459  12.148  17.963  0.00  0.00    +0.000 A 
ATOM     29  C   UNL     1      -5.887  12.391  19.205  0.00  0.00    +0.000 A 
ATOM     30  C   UNL     1      -4.512  12.226  19.386  0.00  0.00    +0.000 A 
ATOM     31  C   UNL     1      -3.684  11.801  18.330  0.00  0.00    +0.000 A 
ENDBRANCH  21  31
ENDBRANCH  20  23
ENDBRANCH   1  20
TORSDOF 6
ENDMDL
MODEL 6
REMARK VINA RESULT:      -8.7      5.292     10.251
REMARK  Name = 
REMARK  7 active torsions:
REMARK  status: ('A' for Active; 'I' for Inactive)
REMARK    1  A    between atoms: C_1  and  C_2
REMARK    2  A    between atoms: C_7  and  C_8
REMARK    3  A    between atoms: N_10  and  C_11
REMARK    4  A    between atoms: C_11  and  C_12
REMARK    5  A    between atoms: C_17  and  C_18
REMARK    6  A    between atoms: C_21  and  C_22
REMARK    7  A    between atoms: C_22  and  N_23
REMARK                            x       y       z     vdW  Elec       q    Type
REMARK                         _______ _______ _______ _____ _____    ______ ____
ROOT
ATOM      1  C   UNL     1       1.281   9.443  19.042  0.00  0.00    +0.000 A 
ATOM      2  C   UNL     1       2.031   8.414  18.423  0.00  0.00    +0.000 A 
ATOM      3  C   UNL     1       2.352   7.241  19.102  0.00  0.00    +0.000 A 
ATOM      4  C   UNL     1       1.936   7.075  20.412  0.00  0.00    +0.000 A 
ATOM      5  C   UNL     1       1.265   8.113  21.063  0.00  0.00    +0.000 A 
ATOM      6  C   UNL     1       0.941   9.331  20.418  0.00  0.00    +0.000 A 
ENDROOT
BRANCH   6   7
ATOM      7  C   UNL     1       0.282  10.410  21.206  0.00  0.00    +0.000 A 
ATOM      8  C   UNL     1      -0.707  10.124  22.163  0.00  0.00    +0.000 A 
ATOM      9  C   UNL     1      -1.308  11.126  22.931  0.00  0.00    +0.000 A 
ATOM     10  C   UNL     1      -0.990  12.470  22.720  0.00  0.00    +0.000 A 
ATOM     11  C   UNL     1      -0.050  12.785  21.735  0.00  0.00    +0.000 A 
ATOM     12  C   UNL     1       0.581  11.771  21.001  0.00  0.00    +0.000 A 
BRANCH  10  13
ATOM     13  C   UNL     1      -1.606  13.548  23.577  0.00  0.00    +0.000 C 
BRANCH  13  14
ATOM     14  N   UNL     1      -2.974  13.837  23.189  0.00  0.00    +0.000 N 
ATOM     15  C   UNL     1      -3.304  14.533  21.969  0.00  0.00    +0.000 C 
ATOM     16  C   UNL     1      -4.809  14.689  22.057  0.00  0.00    +0.000 C 
ATOM     17  C   UNL     1      -5.251  13.447  22.822  0.00  0.00    +0.000 C 
ATOM     18  C   UNL     1      -4.063  13.150  23.705  0.00  0.00    +0.000 C 
ATOM     19  O   UNL     1      -4.065  12.388  24.657  0.00  0.00    +0.000 OA
ENDBRANCH  13  14
ENDBRANCH  10  13
ENDBRANCH   6   7
BRANCH   1  20
ATOM     20  C   UNL     1       0.784  10.555  18.138  0.00  0.00    +0.000 C 
BRANCH  20  23
ATOM     21  C   UNL     1      -1.361  11.733  17.950  0.00  0.00    +0.000 C 
ATOM     22  O   UNL     1      -0.798  12.823  17.935  0.00  0.00    +0.000 OA
ATOM     23  N   UNL     1      -0.652  10.545  17.939  0.00  0.00    +0.000 N 
ATOM     24  H   UNL     1      -1.117   9.657  17.803  0.00  0.00    +0.000 HD
BRANCH  21  31
ATOM     25  C   UNL     1      -3.115  10.861  15.603  0.00  0.00    +0.000 C 
ATOM     26  C   UNL     1      -3.668  11.309  16.929  0.00  0.00    +0.000 A 
ATOM     27  C   UNL     1      -5.070  11.369  17.072  0.00  0.00    +0.000 A 
ATOM     28  C   UNL     1      -5.667  11.735  18.274  0.00  0.00    +0.000 A 
ATOM     29  C   UNL     1      -4.869  12.042  19.368  0.00  0.00    +0.000 A 
ATOM     30  C   UNL     1      -3.478  12.000  19.253  0.00  0.00    +0.000 A 
ATOM     31  C   UNL     1      -2.857  11.638  18.043  0.00  0.00    +0.000 A 
ENDBRANCH  21  31
ENDBRANCH  20  23
ENDBRANCH   1  20
TORSDOF 6
ENDMDL
MODEL 7
REMARK VINA RESULT:      -8.7      5.266     10.208
REMARK  Name = 
REMARK  7 active torsions:
REMARK  status: ('A' for Active; 'I' for Inactive)
REMARK    1  A    between atoms: C_1  and  C_2
REMARK    2  A    between atoms: C_7  and  C_8
REMARK    3  A    between atoms: N_10  and  C_11
REMARK    4  A    between atoms: C_11  and  C_12
REMARK    5  A    between atoms: C_17  and  C_18
REMARK    6  A    between atoms: C_21  and  C_22
REMARK    7  A    between atoms: C_22  and  N_23
REMARK                            x       y       z     vdW  Elec       q    Type
REMARK                         _______ _______ _______ _____ _____    ______ ____
ROOT
ATOM      1  C   UNL     1       1.293   9.435  19.007  0.00  0.00    +0.000 A 
ATOM      2  C   UNL     1       2.041   8.416  18.369  0.00  0.00    +0.000 A 
ATOM      3  C   UNL     1       2.372   7.236  19.031  0.00  0.00    +0.000 A 
ATOM      4  C   UNL     1       1.967   7.052  20.342  0.00  0.00    +0.000 A 
ATOM      5  C   UNL     1       1.298   8.080  21.011  0.00  0.00    +0.000 A 
ATOM      6  C   UNL     1       0.964   9.304  20.383  0.00  0.00    +0.000 A 
ENDROOT
BRANCH   6   7
ATOM      7  C   UNL     1       0.307  10.371  21.191  0.00  0.00    +0.000 A 
ATOM      8  C   UNL     1       0.617  11.729  21.009  0.00  0.00    +0.000 A 
ATOM      9  C   UNL     1      -0.018  12.740  21.738  0.00  0.00    +0.000 A 
ATOM     10  C   UNL     1      -0.944  12.421  22.734  0.00  0.00    +0.000 A 
ATOM     11  C   UNL     1      -1.229  11.075  22.973  0.00  0.00    +0.000 A 
ATOM     12  C   UNL     1      -0.622  10.070  22.206  0.00  0.00    +0.000 A 
BRANCH  10  13
ATOM     13  C   UNL     1      -1.661  13.512  23.491  0.00  0.00    +0.000 C 
BRANCH  13  14
ATOM     14  N   UNL     1      -3.096  13.468  23.280  0.00  0.00    +0.000 N 
ATOM     15  C   UNL     1      -4.013  12.973  24.277  0.00  0.00    +0.000 C 
ATOM     16  C   UNL     1      -5.352  13.026  23.569  0.00  0.00    +0.000 C 
ATOM     17  C   UNL     1      -5.215  14.221  22.635  0.00  0.00    +0.000 C 
ATOM     18  C   UNL     1      -3.737  14.240  22.322  0.00  0.00    +0.000 C 
ATOM     19  O   UNL     1      -3.215  14.880  21.425  0.00  0.00    +0.000 OA
ENDBRANCH  13  14
ENDBRANCH  10  13
ENDBRANCH   6   7
BRANCH   1  20
ATOM     20  C   UNL     1       0.785  10.556  18.120  0.00  0.00    +0.000 C 
BRANCH  20  23
ATOM     21  C   UNL     1      -1.354  11.748  17.964  0.00  0.00    +0.000 C 
ATOM     22  O   UNL     1      -0.784  12.834  17.929  0.00  0.00    +0.000 OA
ATOM     23  N   UNL     1      -0.655  10.555  17.949  0.00  0.00    +0.000 N 
ATOM     24  H   UNL     1      -1.128   9.670  17.828  0.00  0.00    +0.000 HD
BRANCH  21  31
ATOM     25  C   UNL     1      -3.158  10.869  15.657  0.00  0.00    +0.000 C 
ATOM     26  C   UNL     1      -3.683  11.333  16.989  0.00  0.00    +0.000 A 
ATOM     27  C   UNL     1      -5.082  11.404  17.158  0.00  0.00    +0.000 A 
ATOM     28  C   UNL     1      -5.654  11.784  18.367  0.00  0.00    +0.000 A 
ATOM     29  C   UNL     1      -4.833  12.094  19.444  0.00  0.00    +0.000 A 
ATOM     30  C   UNL     1      -3.445  12.042  19.304  0.00  0.00    +0.000 A 
ATOM     31  C   UNL     1      -2.850  11.665  18.085  0.00  0.00    +0.000 A 
ENDBRANCH  21  31
ENDBRANCH  20  23
ENDBRANCH   1  20
TORSDOF 6
ENDMDL
MODEL 8
REMARK VINA RESULT:      -8.7      3.669      6.435
REMARK  Name = 
REMARK  7 active torsions:
REMARK  status: ('A' for Active; 'I' for Inactive)
REMARK    1  A    between atoms: C_1  and  C_2
REMARK    2  A    between atoms: C_7  and  C_8
REMARK    3  A    between atoms: N_10  and  C_11
REMARK    4  A    between atoms: C_11  and  C_12
REMARK    5  A    between atoms: C_17  and  C_18
REMARK    6  A    between atoms: C_21  and  C_22
REMARK    7  A    between atoms: C_22  and  N_23
REMARK                            x       y       z     vdW  Elec       q    Type
REMARK                         _______ _______ _______ _____ _____    ______ ____
ROOT
ATOM      1  C   UNL     1      -0.005  10.537  20.509  0.00  0.00    +0.000 A 
ATOM      2  C   UNL     1      -0.854  11.320  21.326  0.00  0.00    +0.000 A 
ATOM      3  C   UNL     1      -1.060  11.010  22.668  0.00  0.00    +0.000 A 
ATOM      4  C   UNL     1      -0.427   9.908  23.218  0.00  0.00    +0.000 A 
ATOM      5  C   UNL     1       0.351   9.078  22.407  0.00  0.00    +0.000 A 
ATOM      6  C   UNL     1       0.565   9.344  21.033  0.00  0.00    +0.000 A 
ENDROOT
BRANCH   6   7
ATOM      7  C   UNL     1       1.356   8.371  20.227  0.00  0.00    +0.000 A 
ATOM      8  C   UNL     1       1.808   8.682  18.933  0.00  0.00    +0.000 A 
ATOM      9  C   UNL     1       2.578   7.789  18.181  0.00  0.00    +0.000 A 
ATOM     10  C   UNL     1       2.867   6.514  18.673  0.00  0.00    +0.000 A 
ATOM     11  C   UNL     1       2.382   6.159  19.934  0.00  0.00    +0.000 A 
ATOM     12  C   UNL     1       1.649   7.078  20.700  0.00  0.00    +0.000 A 
BRANCH  10  13
ATOM     13  C   UNL     1       3.734   5.565  17.882  0.00  0.00    +0.000 C 
BRANCH  13  14
ATOM     14  N   UNL     1       3.365   4.179  18.101  0.00  0.00    +0.000 N 
ATOM     15  C   UNL     1       2.350   3.513  17.323  0.00  0.00    +0.000 C 
ATOM     16  C   UNL     1       2.250   2.151  17.980  0.00  0.00    +0.000 C 
ATOM     17  C   UNL     1       3.667   1.890  18.475  0.00  0.00    +0.000 C 
ATOM     18  C   UNL     1       4.190   3.277  18.759  0.00  0.00    +0.000 C 
ATOM     19  O   UNL     1       5.196   3.535  19.397  0.00  0.00    +0.000 OA
ENDBRANCH  13  14
ENDBRANCH  10  13
ENDBRANCH   6   7
BRANCH   1  20
ATOM     20  C   UNL     1       0.336  11.106  19.145  0.00  0.00    +0.000 C 
BRANCH  20  23
ATOM     21  C   UNL     1       0.664  13.495  18.691  0.00  0.00    +0.000 C 
ATOM     22  O   UNL     1      -0.509  13.626  18.356  0.00  0.00    +0.000 OA
ATOM     23  N   UNL     1       1.149  12.305  19.202  0.00  0.00    +0.000 N 
ATOM     24  H   UNL     1       2.071  12.247  19.613  0.00  0.00    +0.000 HD
BRANCH  21  31
ATOM     25  C   UNL     1      -0.045  16.429  19.182  0.00  0.00    +0.000 C 
ATOM     26  C   UNL     1       1.291  15.976  18.659  0.00  0.00    +0.000 A 
ATOM     27  C   UNL     1       2.244  16.966  18.339  0.00  0.00    +0.000 A 
ATOM     28  C   UNL     1       3.517  16.636  17.887  0.00  0.00    +0.000 A 
ATOM     29  C   UNL     1       3.870  15.300  17.752  0.00  0.00    +0.000 A 
ATOM     30  C   UNL     1       2.944  14.298  18.052  0.00  0.00    +0.000 A 
ATOM     31  C   UNL     1       1.650  14.614  18.505  0.00  0.00    +0.000 A 
ENDBRANCH  21  31
ENDBRANCH  20  23
ENDBRANCH   1  20
TORSDOF 6
ENDMDL
MODEL 9
REMARK VINA RESULT:      -8.7      3.561      6.031
REMARK  Name = 
REMARK  7 active torsions:
REMARK  status: ('A' for Active; 'I' for Inactive)
REMARK    1  A    between atoms: C_1  and  C_2
REMARK    2  A    between atoms: C_7  and  C_8
REMARK    3  A    between atoms: N_10  and  C_11
REMARK    4  A    between atoms: C_11  and  C_12
REMARK    5  A    between atoms: C_17  and  C_18
REMARK    6  A    between atoms: C_21  and  C_22
REMARK    7  A    between atoms: C_22  and  N_23
REMARK                            x       y       z     vdW  Elec       q    Type
REMARK                         _______ _______ _______ _____ _____    ______ ____
ROOT
ATOM      1  C   UNL     1       0.164  10.449  20.553  0.00  0.00    +0.000 A 
ATOM      2  C   UNL     1      -0.666  11.230  21.393  0.00  0.00    +0.000 A 
ATOM      3  C   UNL     1      -0.903  10.869  22.717  0.00  0.00    +0.000 A 
ATOM      4  C   UNL     1      -0.321   9.720  23.227  0.00  0.00    +0.000 A 
ATOM      5  C   UNL     1       0.435   8.896  22.389  0.00  0.00    +0.000 A 
ATOM      6  C   UNL     1       0.680   9.214  21.031  0.00  0.00    +0.000 A 
ENDROOT
BRANCH   6   7
ATOM      7  C   UNL     1       1.443   8.246  20.193  0.00  0.00    +0.000 A 
ATOM      8  C   UNL     1       1.849   8.564  18.886  0.00  0.00    +0.000 A 
ATOM      9  C   UNL     1       2.594   7.676  18.103  0.00  0.00    +0.000 A 
ATOM     10  C   UNL     1       2.903   6.399  18.578  0.00  0.00    +0.000 A 
ATOM     11  C   UNL     1       2.462   6.037  19.854  0.00  0.00    +0.000 A 
ATOM     12  C   UNL     1       1.755   6.951  20.650  0.00  0.00    +0.000 A 
BRANCH  10  13
ATOM     13  C   UNL     1       3.743   5.456  17.752  0.00  0.00    +0.000 C 
BRANCH  13  14
ATOM     14  N   UNL     1       5.151   5.804  17.792  0.00  0.00    +0.000 N 
ATOM     15  C   UNL     1       6.054   5.272  18.783  0.00  0.00    +0.000 C 
ATOM     16  C   UNL     1       7.353   5.994  18.488  0.00  0.00    +0.000 C 
ATOM     17  C   UNL     1       7.307   6.209  16.980  0.00  0.00    +0.000 C 
ATOM     18  C   UNL     1       5.828   6.323  16.699  0.00  0.00    +0.000 C 
ATOM     19  O   UNL     1       5.337   6.738  15.662  0.00  0.00    +0.000 OA
ENDBRANCH  13  14
ENDBRANCH  10  13
ENDBRANCH   6   7
BRANCH   1  20
ATOM     20  C   UNL     1       0.547  11.064  19.220  0.00  0.00    +0.000 C 
BRANCH  20  23
ATOM     21  C   UNL     1       0.900  13.439  18.717  0.00  0.00    +0.000 C 
ATOM     22  O   UNL     1      -0.213  13.531  18.211  0.00  0.00    +0.000 OA
ATOM     23  N   UNL     1       1.325  12.281  19.343  0.00  0.00    +0.000 N 
ATOM     24  H   UNL     1       2.178  12.259  19.884  0.00  0.00    +0.000 HD
BRANCH  21  31
ATOM     25  C   UNL     1       0.454  16.138  20.084  0.00  0.00    +0.000 C 
ATOM     26  C   UNL     1       1.634  15.843  19.198  0.00  0.00    +0.000 A 
ATOM     27  C   UNL     1       2.554  16.885  18.956  0.00  0.00    +0.000 A 
ATOM     28  C   UNL     1       3.693  16.690  18.182  0.00  0.00    +0.000 A 
ATOM     29  C   UNL     1       3.943  15.437  17.637  0.00  0.00    +0.000 A 
ATOM     30  C   UNL     1       3.045  14.389  17.851  0.00  0.00    +0.000 A 
ATOM     31  C   UNL     1       1.885  14.571  18.628  0.00  0.00    +0.000 A 
ENDBRANCH  21  31
ENDBRANCH  20  23
ENDBRANCH   1  20
TORSDOF 6
ENDMDL
