MODEL 1
REMARK VINA RESULT:      -8.7      0.000      0.000
REMARK  Name = 
REMARK  3 active torsions:
REMARK  status: ('A' for Active; 'I' for Inactive)
REMARK    1  A    between atoms: C_1  and  C_2
REMARK    2  A    between atoms: C_2  and  C_5
REMARK    3  A    between atoms: C_10  and  N_11
REMARK                            x       y       z     vdW  Elec       q    Type
REMARK                         _______ _______ _______ _____ _____    ______ ____
ROOT
ATOM      1  N   UNL     1       2.498   7.106  18.655  0.00  0.00    +0.000 N 
ATOM      2  C   UNL     1       2.069   8.304  18.164  0.00  0.00    +0.000 C 
ATOM      3  O   UNL     1       2.388   8.733  17.055  0.00  0.00    +0.000 OA
ATOM      4  N   UNL     1       1.217   9.018  18.992  0.00  0.00    +0.000 N 
ATOM      5  C   UNL     1       0.705  10.250  18.459  0.00  0.00    +0.000 C 
ATOM      6  C   UNL     1       1.240  11.333  19.360  0.00  0.00    +0.000 C 
ATOM      7  C   UNL     1       0.357  11.492  20.728  0.00  0.00    +0.000 C 
ATOM      8  C   UNL     1      -0.376  12.538  19.787  0.00  0.00    +0.000 C 
ATOM      9  C   UNL     1      -1.711  12.555  19.558  0.00  0.00    +0.000 C 
ATOM     10  C   UNL     1      -2.232  12.767  20.914  0.00  0.00    +0.000 A 
ATOM     11  C   UNL     1      -2.966  13.874  21.306  0.00  0.00    +0.000 A 
ATOM     12  C   UNL     1      -3.185  14.061  22.668  0.00  0.00    +0.000 A 
ATOM     13  C   UNL     1      -2.695  13.130  23.601  0.00  0.00    +0.000 A 
ATOM     14  C   UNL     1      -1.962  12.002  23.190  0.00  0.00    +0.000 A 
ATOM     15  C   UNL     1      -1.714  11.848  21.839  0.00  0.00    +0.000 A 
ATOM     16  O   UNL     1      -0.901  10.871  21.268  0.00  0.00    +0.000 OA
ATOM     17  C   UNL     1       1.127  10.163  21.259  0.00  0.00    +0.000 C 
ATOM     18  C   UNL     1       0.931   8.842  20.425  0.00  0.00    +0.000 C 
ATOM     19  H   UNL     1       1.918   6.704  19.383  0.00  0.00    +0.000 HD
ENDROOT
BRANCH   1  25
ATOM     20  C   UNL     1       3.282   4.901  18.001  0.00  0.00    +0.000 A 
ATOM     21  C   UNL     1       4.331   4.062  17.590  0.00  0.00    +0.000 A 
ATOM     22  C   UNL     1       5.569   4.589  17.224  0.00  0.00    +0.000 A 
ATOM     23  C   UNL     1       5.770   5.964  17.256  0.00  0.00    +0.000 A 
ATOM     24  C   UNL     1       4.754   6.805  17.710  0.00  0.00    +0.000 A 
ATOM     25  C   UNL     1       3.509   6.287  18.109  0.00  0.00    +0.000 A 
BRANCH  20  27
ATOM     26  C   UNL     1       1.969   2.782  18.049  0.00  0.00    +0.000 C 
ATOM     27  C   UNL     1       1.903   4.300  18.181  0.00  0.00    +0.000 C 
ATOM     28  F   UNL     1       0.997   4.753  17.261  0.00  0.00    +0.000 F 
ATOM     29  F   UNL     1       1.351   4.592  19.396  0.00  0.00    +0.000 F 
ENDBRANCH  20  27
ENDBRANCH   1  25
TORSDOF 2
ENDMDL
MODEL 2
REMARK VINA RESULT:      -8.3      2.213      3.417
REMARK  Name = 
REMARK  3 active torsions:
REMARK  status: ('A' for Active; 'I' for Inactive)
REMARK    1  A    between atoms: C_1  and  C_2
REMARK    2  A    between atoms: C_2  and  C_5
REMARK    3  A    between atoms: C_10  and  N_11
REMARK                            x       y       z     vdW  Elec       q    Type
REMARK                         _______ _______ _______ _____ _____    ______ ____
ROOT
ATOM      1  N   UNL     1       2.494   6.414  18.589  0.00  0.00    +0.000 N 
ATOM      2  C   UNL     1       1.944   6.998  19.692  0.00  0.00    +0.000 C 
ATOM      3  O   UNL     1       1.711   6.387  20.735  0.00  0.00    +0.000 OA
ATOM      4  N   UNL     1       1.675   8.353  19.578  0.00  0.00    +0.000 N 
ATOM      5  C   UNL     1       1.157   8.995  20.755  0.00  0.00    +0.000 C 
ATOM      6  C   UNL     1      -0.221   9.475  20.380  0.00  0.00    +0.000 C 
ATOM      7  C   UNL     1      -0.181  10.888  19.558  0.00  0.00    +0.000 C 
ATOM      8  C   UNL     1      -0.322  11.423  21.045  0.00  0.00    +0.000 C 
ATOM      9  C   UNL     1       0.501  12.341  21.608  0.00  0.00    +0.000 C 
ATOM     10  C   UNL     1       0.292  13.494  20.723  0.00  0.00    +0.000 A 
ATOM     11  C   UNL     1      -0.237  14.707  21.128  0.00  0.00    +0.000 A 
ATOM     12  C   UNL     1      -0.603  15.620  20.144  0.00  0.00    +0.000 A 
ATOM     13  C   UNL     1      -0.408  15.316  18.785  0.00  0.00    +0.000 A 
ATOM     14  C   UNL     1       0.142  14.086  18.385  0.00  0.00    +0.000 A 
ATOM     15  C   UNL     1       0.463  13.169  19.368  0.00  0.00    +0.000 A 
ATOM     16  O   UNL     1       0.891  11.861  19.152  0.00  0.00    +0.000 OA
ATOM     17  C   UNL     1       0.262  10.008  18.265  0.00  0.00    +0.000 C 
ATOM     18  C   UNL     1       1.610   9.202  18.378  0.00  0.00    +0.000 C 
ATOM     19  H   UNL     1       2.955   7.049  17.948  0.00  0.00    +0.000 HD
ENDROOT
BRANCH   1  25
ATOM     20  C   UNL     1       3.978   4.545  18.134  0.00  0.00    +0.000 A 
ATOM     21  C   UNL     1       4.153   3.196  17.782  0.00  0.00    +0.000 A 
ATOM     22  C   UNL     1       3.069   2.321  17.734  0.00  0.00    +0.000 A 
ATOM     23  C   UNL     1       1.796   2.782  18.046  0.00  0.00    +0.000 A 
ATOM     24  C   UNL     1       1.600   4.129  18.348  0.00  0.00    +0.000 A 
ATOM     25  C   UNL     1       2.678   5.032  18.374  0.00  0.00    +0.000 A 
BRANCH  20  27
ATOM     26  C   UNL     1       6.458   4.659  17.908  0.00  0.00    +0.000 C 
ATOM     27  C   UNL     1       5.208   5.395  18.377  0.00  0.00    +0.000 C 
ATOM     28  F   UNL     1       5.389   5.710  19.697  0.00  0.00    +0.000 F 
ATOM     29  F   UNL     1       5.160   6.596  17.729  0.00  0.00    +0.000 F 
ENDBRANCH  20  27
ENDBRANCH   1  25
TORSDOF 2
ENDMDL
MODEL 3
REMARK VINA RESULT:      -7.9      3.460      9.266
REMARK  Name = 
REMARK  3 active torsions:
REMARK  status: ('A' for Active; 'I' for Inactive)
REMARK    1  A    between atoms: C_1  and  C_2
REMARK    2  A    between atoms: C_2  and  C_5
REMARK    3  A    between atoms: C_10  and  N_11
REMARK                            x       y       z     vdW  Elec       q    Type
REMARK                         _______ _______ _______ _____ _____    ______ ____
ROOT
ATOM      1  N   UNL     1      -0.894  13.205  23.108  0.00  0.00    +0.000 N 
ATOM      2  C   UNL     1      -0.636  13.105  21.772  0.00  0.00    +0.000 C 
ATOM      3  O   UNL     1      -0.909  13.992  20.964  0.00  0.00    +0.000 OA
ATOM      4  N   UNL     1      -0.016  11.933  21.370  0.00  0.00    +0.000 N 
ATOM      5  C   UNL     1       0.321  11.843  19.976  0.00  0.00    +0.000 C 
ATOM      6  C   UNL     1      -0.489  10.693  19.436  0.00  0.00    +0.000 C 
ATOM      7  C   UNL     1       0.204   9.246  19.755  0.00  0.00    +0.000 C 
ATOM      8  C   UNL     1       0.833   9.562  18.333  0.00  0.00    +0.000 C 
ATOM      9  C   UNL     1       2.161   9.538  18.064  0.00  0.00    +0.000 C 
ATOM     10  C   UNL     1       2.492   8.141  18.372  0.00  0.00    +0.000 A 
ATOM     11  C   UNL     1       2.972   7.228  17.449  0.00  0.00    +0.000 A 
ATOM     12  C   UNL     1       3.010   5.887  17.818  0.00  0.00    +0.000 A 
ATOM     13  C   UNL     1       2.599   5.492  19.104  0.00  0.00    +0.000 A 
ATOM     14  C   UNL     1       2.125   6.430  20.038  0.00  0.00    +0.000 A 
ATOM     15  C   UNL     1       2.051   7.753  19.646  0.00  0.00    +0.000 A 
ATOM     16  O   UNL     1       1.489   8.790  20.388  0.00  0.00    +0.000 OA
ATOM     17  C   UNL     1      -0.369   9.418  21.266  0.00  0.00    +0.000 C 
ATOM     18  C   UNL     1       0.145  10.658  22.088  0.00  0.00    +0.000 C 
ATOM     19  H   UNL     1      -0.331  12.607  23.702  0.00  0.00    +0.000 HD
ENDROOT
BRANCH   1  25
ATOM     20  C   UNL     1      -3.068  13.978  23.868  0.00  0.00    +0.000 A 
ATOM     21  C   UNL     1      -3.878  15.010  24.370  0.00  0.00    +0.000 A 
ATOM     22  C   UNL     1      -3.321  16.211  24.806  0.00  0.00    +0.000 A 
ATOM     23  C   UNL     1      -1.944  16.392  24.753  0.00  0.00    +0.000 A 
ATOM     24  C   UNL     1      -1.132  15.396  24.210  0.00  0.00    +0.000 A 
ATOM     25  C   UNL     1      -1.681  14.189  23.740  0.00  0.00    +0.000 A 
BRANCH  20  27
ATOM     26  C   UNL     1      -4.948  12.453  24.466  0.00  0.00    +0.000 C 
ATOM     27  C   UNL     1      -3.697  12.624  23.610  0.00  0.00    +0.000 C 
ATOM     28  F   UNL     1      -2.859  11.581  23.895  0.00  0.00    +0.000 F 
ATOM     29  F   UNL     1      -4.055  12.446  22.304  0.00  0.00    +0.000 F 
ENDBRANCH  20  27
ENDBRANCH   1  25
TORSDOF 2
ENDMDL
MODEL 4
REMARK VINA RESULT:      -7.8      1.043      1.122
REMARK  Name = 
REMARK  3 active torsions:
REMARK  status: ('A' for Active; 'I' for Inactive)
REMARK    1  A    between atoms: C_1  and  C_2
REMARK    2  A    between atoms: C_2  and  C_5
REMARK    3  A    between atoms: C_10  and  N_11
REMARK                            x       y       z     vdW  Elec       q    Type
REMARK                         _______ _______ _______ _____ _____    ______ ____
ROOT
ATOM      1  N   UNL     1       2.297   7.322  18.985  0.00  0.00    +0.000 N 
ATOM      2  C   UNL     1       1.931   8.530  18.469  0.00  0.00    +0.000 C 
ATOM      3  O   UNL     1       2.326   8.946  17.380  0.00  0.00    +0.000 OA
ATOM      4  N   UNL     1       1.054   9.270  19.246  0.00  0.00    +0.000 N 
ATOM      5  C   UNL     1       0.608  10.515  18.682  0.00  0.00    +0.000 C 
ATOM      6  C   UNL     1       1.120  11.585  19.611  0.00  0.00    +0.000 C 
ATOM      7  C   UNL     1       0.165  11.772  20.925  0.00  0.00    +0.000 C 
ATOM      8  C   UNL     1      -0.483  12.836  19.942  0.00  0.00    +0.000 C 
ATOM      9  C   UNL     1      -1.802  12.889  19.636  0.00  0.00    +0.000 C 
ATOM     10  C   UNL     1      -2.395  13.120  20.959  0.00  0.00    +0.000 A 
ATOM     11  C   UNL     1      -3.118  14.248  21.307  0.00  0.00    +0.000 A 
ATOM     12  C   UNL     1      -3.410  14.445  22.653  0.00  0.00    +0.000 A 
ATOM     13  C   UNL     1      -3.001  13.503  23.615  0.00  0.00    +0.000 A 
ATOM     14  C   UNL     1      -2.278  12.354  23.249  0.00  0.00    +0.000 A 
ATOM     15  C   UNL     1      -1.957  12.189  21.914  0.00  0.00    +0.000 A 
ATOM     16  O   UNL     1      -1.139  11.188  21.393  0.00  0.00    +0.000 OA
ATOM     17  C   UNL     1       0.865  10.423  21.502  0.00  0.00    +0.000 C 
ATOM     18  C   UNL     1       0.680   9.106  20.660  0.00  0.00    +0.000 C 
ATOM     19  H   UNL     1       1.665   6.939  19.679  0.00  0.00    +0.000 HD
ENDROOT
BRANCH   1  25
ATOM     20  C   UNL     1       3.508   5.219  19.111  0.00  0.00    +0.000 A 
ATOM     21  C   UNL     1       4.605   4.429  18.729  0.00  0.00    +0.000 A 
ATOM     22  C   UNL     1       5.462   4.837  17.708  0.00  0.00    +0.000 A 
ATOM     23  C   UNL     1       5.227   6.040  17.050  0.00  0.00    +0.000 A 
ATOM     24  C   UNL     1       4.173   6.858  17.454  0.00  0.00    +0.000 A 
ATOM     25  C   UNL     1       3.315   6.474  18.501  0.00  0.00    +0.000 A 
BRANCH  20  27
ATOM     26  C   UNL     1       1.362   3.963  19.299  0.00  0.00    +0.000 C 
ATOM     27  C   UNL     1       2.494   4.632  20.072  0.00  0.00    +0.000 C 
ATOM     28  F   UNL     1       1.930   5.571  20.894  0.00  0.00    +0.000 F 
ATOM     29  F   UNL     1       3.035   3.703  20.913  0.00  0.00    +0.000 F 
ENDBRANCH  20  27
ENDBRANCH   1  25
TORSDOF 2
ENDMDL
MODEL 5
REMARK VINA RESULT:      -7.7      7.509     11.418
REMARK  Name = 
REMARK  3 active torsions:
REMARK  status: ('A' for Active; 'I' for Inactive)
REMARK    1  A    between atoms: C_1  and  C_2
REMARK    2  A    between atoms: C_2  and  C_5
REMARK    3  A    between atoms: C_10  and  N_11
REMARK                            x       y       z     vdW  Elec       q    Type
REMARK                         _______ _______ _______ _____ _____    ______ ____
ROOT
ATOM      1  N   UNL     1       3.098  16.107  18.199  0.00  0.00    +0.000 N 
ATOM      2  C   UNL     1       4.189  16.542  18.893  0.00  0.00    +0.000 C 
ATOM      3  O   UNL     1       4.214  17.604  19.514  0.00  0.00    +0.000 OA
ATOM      4  N   UNL     1       5.283  15.692  18.878  0.00  0.00    +0.000 N 
ATOM      5  C   UNL     1       6.415  16.107  19.661  0.00  0.00    +0.000 C 
ATOM      6  C   UNL     1       7.534  16.315  18.674  0.00  0.00    +0.000 C 
ATOM      7  C   UNL     1       8.263  14.910  18.261  0.00  0.00    +0.000 C 
ATOM      8  C   UNL     1       9.166  15.356  19.488  0.00  0.00    +0.000 C 
ATOM      9  C   UNL     1       9.446  14.569  20.555  0.00  0.00    +0.000 C 
ATOM     10  C   UNL     1      10.134  13.444  19.910  0.00  0.00    +0.000 A 
ATOM     11  C   UNL     1      11.450  13.087  20.152  0.00  0.00    +0.000 A 
ATOM     12  C   UNL     1      12.041  12.160  19.299  0.00  0.00    +0.000 A 
ATOM     13  C   UNL     1      11.304  11.591  18.246  0.00  0.00    +0.000 A 
ATOM     14  C   UNL     1       9.964  11.951  18.017  0.00  0.00    +0.000 A 
ATOM     15  C   UNL     1       9.398  12.904  18.844  0.00  0.00    +0.000 A 
ATOM     16  O   UNL     1       8.136  13.473  18.685  0.00  0.00    +0.000 OA
ATOM     17  C   UNL     1       6.978  14.642  17.303  0.00  0.00    +0.000 C 
ATOM     18  C   UNL     1       5.572  14.544  18.005  0.00  0.00    +0.000 C 
ATOM     19  H   UNL     1       3.060  15.107  18.036  0.00  0.00    +0.000 HD
ENDROOT
BRANCH   1  25
ATOM     20  C   UNL     1       0.745  16.574  18.579  0.00  0.00    +0.000 A 
ATOM     21  C   UNL     1      -0.441  17.217  18.184  0.00  0.00    +0.000 A 
ATOM     22  C   UNL     1      -0.434  18.178  17.174  0.00  0.00    +0.000 A 
ATOM     23  C   UNL     1       0.761  18.514  16.550  0.00  0.00    +0.000 A 
ATOM     24  C   UNL     1       1.937  17.847  16.895  0.00  0.00    +0.000 A 
ATOM     25  C   UNL     1       1.943  16.856  17.893  0.00  0.00    +0.000 A 
BRANCH  20  27
ATOM     26  C   UNL     1      -0.698  15.630  20.380  0.00  0.00    +0.000 C 
ATOM     27  C   UNL     1       0.717  15.702  19.817  0.00  0.00    +0.000 C 
ATOM     28  F   UNL     1       1.533  16.164  20.814  0.00  0.00    +0.000 F 
ATOM     29  F   UNL     1       1.138  14.425  19.576  0.00  0.00    +0.000 F 
ENDBRANCH  20  27
ENDBRANCH   1  25
TORSDOF 2
ENDMDL
MODEL 6
REMARK VINA RESULT:      -7.5      3.067      8.602
REMARK  Name = 
REMARK  3 active torsions:
REMARK  status: ('A' for Active; 'I' for Inactive)
REMARK    1  A    between atoms: C_1  and  C_2
REMARK    2  A    between atoms: C_2  and  C_5
REMARK    3  A    between atoms: C_10  and  N_11
REMARK                            x       y       z     vdW  Elec       q    Type
REMARK                         _______ _______ _______ _____ _____    ______ ____
ROOT
ATOM      1  N   UNL     1       0.999  11.211  18.776  0.00  0.00    +0.000 N 
ATOM      2  C   UNL     1       1.034  10.295  19.786  0.00  0.00    +0.000 C 
ATOM      3  O   UNL     1       0.903  10.593  20.972  0.00  0.00    +0.000 OA
ATOM      4  N   UNL     1       1.209   8.978  19.392  0.00  0.00    +0.000 N 
ATOM      5  C   UNL     1       1.181   7.996  20.441  0.00  0.00    +0.000 C 
ATOM      6  C   UNL     1       2.551   7.369  20.444  0.00  0.00    +0.000 C 
ATOM      7  C   UNL     1       2.707   6.217  19.293  0.00  0.00    +0.000 C 
ATOM      8  C   UNL     1       2.223   5.336  20.520  0.00  0.00    +0.000 C 
ATOM      9  C   UNL     1       1.173   4.481  20.480  0.00  0.00    +0.000 C 
ATOM     10  C   UNL     1       1.603   3.547  19.432  0.00  0.00    +0.000 A 
ATOM     11  C   UNL     1       1.831   2.196  19.633  0.00  0.00    +0.000 A 
ATOM     12  C   UNL     1       2.465   1.485  18.619  0.00  0.00    +0.000 A 
ATOM     13  C   UNL     1       2.831   2.126  17.422  0.00  0.00    +0.000 A 
ATOM     14  C   UNL     1       2.583   3.496  17.224  0.00  0.00    +0.000 A 
ATOM     15  C   UNL     1       1.991   4.202  18.254  0.00  0.00    +0.000 A 
ATOM     16  O   UNL     1       1.792   5.581  18.284  0.00  0.00    +0.000 OA
ATOM     17  C   UNL     1       2.868   7.440  18.234  0.00  0.00    +0.000 C 
ATOM     18  C   UNL     1       1.654   8.433  18.099  0.00  0.00    +0.000 C 
ATOM     19  H   UNL     1       0.765  10.838  17.862  0.00  0.00    +0.000 HD
ENDROOT
BRANCH   1  25
ATOM     20  C   UNL     1      -0.186  13.322  18.974  0.00  0.00    +0.000 A 
ATOM     21  C   UNL     1      -0.165  14.727  18.969  0.00  0.00    +0.000 A 
ATOM     22  C   UNL     1       1.040  15.427  18.974  0.00  0.00    +0.000 A 
ATOM     23  C   UNL     1       2.243  14.729  18.992  0.00  0.00    +0.000 A 
ATOM     24  C   UNL     1       2.238  13.335  18.945  0.00  0.00    +0.000 A 
ATOM     25  C   UNL     1       1.030  12.614  18.912  0.00  0.00    +0.000 A 
BRANCH  20  27
ATOM     26  C   UNL     1      -1.923  11.882  17.914  0.00  0.00    +0.000 C 
ATOM     27  C   UNL     1      -1.511  12.619  19.183  0.00  0.00    +0.000 C 
ATOM     28  F   UNL     1      -2.527  13.477  19.508  0.00  0.00    +0.000 F 
ATOM     29  F   UNL     1      -1.475  11.710  20.203  0.00  0.00    +0.000 F 
ENDBRANCH  20  27
ENDBRANCH   1  25
TORSDOF 2
ENDMDL
MODEL 7
REMARK VINA RESULT:      -7.3      3.227      9.058
REMARK  Name = 
REMARK  3 active torsions:
REMARK  status: ('A' for Active; 'I' for Inactive)
REMARK    1  A    between atoms: C_1  and  C_2
REMARK    2  A    between atoms: C_2  and  C_5
REMARK    3  A    between atoms: C_10  and  N_11
REMARK                            x       y       z     vdW  Elec       q    Type
REMARK                         _______ _______ _______ _____ _____    ______ ____
ROOT
ATOM      1  N   UNL     1      -0.247  13.152  22.289  0.00  0.00    +0.000 N 
ATOM      2  C   UNL     1       0.108  12.903  20.996  0.00  0.00    +0.000 C 
ATOM      3  O   UNL     1       0.010  13.737  20.096  0.00  0.00    +0.000 OA
ATOM      4  N   UNL     1       0.618  11.638  20.750  0.00  0.00    +0.000 N 
ATOM      5  C   UNL     1       1.059  11.385  19.406  0.00  0.00    +0.000 C 
ATOM      6  C   UNL     1       0.168  10.286  18.888  0.00  0.00    +0.000 C 
ATOM      7  C   UNL     1       0.657   8.807  19.387  0.00  0.00    +0.000 C 
ATOM      8  C   UNL     1       1.436   8.921  18.009  0.00  0.00    +0.000 C 
ATOM      9  C   UNL     1       2.770   8.728  17.868  0.00  0.00    +0.000 C 
ATOM     10  C   UNL     1       2.908   7.337  18.319  0.00  0.00    +0.000 A 
ATOM     11  C   UNL     1       3.353   6.296  17.522  0.00  0.00    +0.000 A 
ATOM     12  C   UNL     1       3.204   4.999  18.001  0.00  0.00    +0.000 A 
ATOM     13  C   UNL     1       2.642   4.770  19.270  0.00  0.00    +0.000 A 
ATOM     14  C   UNL     1       2.205   5.835  20.077  0.00  0.00    +0.000 A 
ATOM     15  C   UNL     1       2.319   7.118  19.573  0.00  0.00    +0.000 A 
ATOM     16  O   UNL     1       1.822   8.273  20.173  0.00  0.00    +0.000 OA
ATOM     17  C   UNL     1      -0.017   9.178  20.819  0.00  0.00    +0.000 C 
ATOM     18  C   UNL     1       0.569  10.425  21.582  0.00  0.00    +0.000 C 
ATOM     19  H   UNL     1       0.190  12.553  22.981  0.00  0.00    +0.000 HD
ENDROOT
BRANCH   1  25
ATOM     20  C   UNL     1      -2.353  14.155  22.967  0.00  0.00    +0.000 A 
ATOM     21  C   UNL     1      -3.096  15.299  23.304  0.00  0.00    +0.000 A 
ATOM     22  C   UNL     1      -2.469  16.528  23.507  0.00  0.00    +0.000 A 
ATOM     23  C   UNL     1      -1.087  16.625  23.384  0.00  0.00    +0.000 A 
ATOM     24  C   UNL     1      -0.344  15.510  22.999  0.00  0.00    +0.000 A 
ATOM     25  C   UNL     1      -0.964  14.270  22.763  0.00  0.00    +0.000 A 
BRANCH  20  27
ATOM     26  C   UNL     1      -4.405  12.923  23.663  0.00  0.00    +0.000 C 
ATOM     27  C   UNL     1      -3.053  12.812  22.967  0.00  0.00    +0.000 C 
ATOM     28  F   UNL     1      -2.339  11.837  23.610  0.00  0.00    +0.000 F 
ATOM     29  F   UNL     1      -3.268  12.325  21.709  0.00  0.00    +0.000 F 
ENDBRANCH  20  27
ENDBRANCH   1  25
TORSDOF 2
ENDMDL
MODEL 8
REMARK VINA RESULT:      -7.0      2.947      8.730
REMARK  Name = 
REMARK  3 active torsions:
REMARK  status: ('A' for Active; 'I' for Inactive)
REMARK    1  A    between atoms: C_1  and  C_2
REMARK    2  A    between atoms: C_2  and  C_5
REMARK    3  A    between atoms: C_10  and  N_11
REMARK                            x       y       z     vdW  Elec       q    Type
REMARK                         _______ _______ _______ _____ _____    ______ ____
ROOT
ATOM      1  N   UNL     1       0.153  11.560  19.116  0.00  0.00    +0.000 N 
ATOM      2  C   UNL     1       0.194  10.579  20.062  0.00  0.00    +0.000 C 
ATOM      3  O   UNL     1      -0.111  10.764  21.240  0.00  0.00    +0.000 OA
ATOM      4  N   UNL     1       0.586   9.329  19.609  0.00  0.00    +0.000 N 
ATOM      5  C   UNL     1       0.569   8.271  20.582  0.00  0.00    +0.000 C 
ATOM      6  C   UNL     1       2.001   7.821  20.714  0.00  0.00    +0.000 C 
ATOM      7  C   UNL     1       2.438   6.793  19.520  0.00  0.00    +0.000 C 
ATOM      8  C   UNL     1       1.939   5.764  20.619  0.00  0.00    +0.000 C 
ATOM      9  C   UNL     1       1.023   4.791  20.395  0.00  0.00    +0.000 C 
ATOM     10  C   UNL     1       1.691   4.004  19.351  0.00  0.00    +0.000 A 
ATOM     11  C   UNL     1       2.072   2.680  19.491  0.00  0.00    +0.000 A 
ATOM     12  C   UNL     1       2.906   2.135  18.520  0.00  0.00    +0.000 A 
ATOM     13  C   UNL     1       3.318   2.910  17.421  0.00  0.00    +0.000 A 
ATOM     14  C   UNL     1       2.915   4.250  17.281  0.00  0.00    +0.000 A 
ATOM     15  C   UNL     1       2.120   4.794  18.273  0.00  0.00    +0.000 A 
ATOM     16  O   UNL     1       1.737   6.130  18.367  0.00  0.00    +0.000 OA
ATOM     17  C   UNL     1       2.556   8.106  18.570  0.00  0.00    +0.000 C 
ATOM     18  C   UNL     1       1.244   8.948  18.349  0.00  0.00    +0.000 C 
ATOM     19  H   UNL     1       0.077  11.236  18.159  0.00  0.00    +0.000 HD
ENDROOT
BRANCH   1  25
ATOM     20  C   UNL     1       1.072  13.809  19.133  0.00  0.00    +0.000 A 
ATOM     21  C   UNL     1       0.953  15.163  19.490  0.00  0.00    +0.000 A 
ATOM     22  C   UNL     1      -0.247  15.671  19.985  0.00  0.00    +0.000 A 
ATOM     23  C   UNL     1      -1.347  14.833  20.121  0.00  0.00    +0.000 A 
ATOM     24  C   UNL     1      -1.229  13.476  19.819  0.00  0.00    +0.000 A 
ATOM     25  C   UNL     1      -0.018  12.942  19.345  0.00  0.00    +0.000 A 
BRANCH  20  27
ATOM     26  C   UNL     1       3.379  14.459  18.445  0.00  0.00    +0.000 C 
ATOM     27  C   UNL     1       2.322  13.361  18.405  0.00  0.00    +0.000 C 
ATOM     28  F   UNL     1       2.096  13.056  17.090  0.00  0.00    +0.000 F 
ATOM     29  F   UNL     1       2.872  12.231  18.941  0.00  0.00    +0.000 F 
ENDBRANCH  20  27
ENDBRANCH   1  25
TORSDOF 2
ENDMDL
MODEL 9
REMARK VINA RESULT:      -6.9      8.191      9.330
REMARK  Name = 
REMARK  3 active torsions:
REMARK  status: ('A' for Active; 'I' for Inactive)
REMARK    1  A    between atoms: C_1  and  C_2
REMARK    2  A    between atoms: C_2  and  C_5
REMARK    3  A    between atoms: C_10  and  N_11
REMARK                            x       y       z     vdW  Elec       q    Type
REMARK                         _______ _______ _______ _____ _____    ______ ____
ROOT
ATOM      1  N   UNL     1       7.989  14.542  17.986  0.00  0.00    +0.000 N 
ATOM      2  C   UNL     1       7.206  14.739  19.085  0.00  0.00    +0.000 C 
ATOM      3  O   UNL     1       7.529  14.381  20.217  0.00  0.00    +0.000 OA
ATOM      4  N   UNL     1       6.010  15.400  18.855  0.00  0.00    +0.000 N 
ATOM      5  C   UNL     1       5.206  15.673  20.015  0.00  0.00    +0.000 C 
ATOM      6  C   UNL     1       3.929  14.900  19.813  0.00  0.00    +0.000 C 
ATOM      7  C   UNL     1       2.880  15.683  18.833  0.00  0.00    +0.000 C 
ATOM      8  C   UNL     1       2.412  16.224  20.249  0.00  0.00    +0.000 C 
ATOM      9  C   UNL     1       2.276  17.536  20.557  0.00  0.00    +0.000 C 
ATOM     10  C   UNL     1       1.257  17.955  19.586  0.00  0.00    +0.000 A 
ATOM     11  C   UNL     1       0.004  18.437  19.925  0.00  0.00    +0.000 A 
ATOM     12  C   UNL     1      -0.940  18.565  18.911  0.00  0.00    +0.000 A 
ATOM     13  C   UNL     1      -0.607  18.238  17.584  0.00  0.00    +0.000 A 
ATOM     14  C   UNL     1       0.673  17.762  17.249  0.00  0.00    +0.000 A 
ATOM     15  C   UNL     1       1.590  17.599  18.271  0.00  0.00    +0.000 A 
ATOM     16  O   UNL     1       2.851  17.019  18.145  0.00  0.00    +0.000 OA
ATOM     17  C   UNL     1       3.811  15.176  17.600  0.00  0.00    +0.000 C 
ATOM     18  C   UNL     1       5.308  15.664  17.589  0.00  0.00    +0.000 C 
ATOM     19  H   UNL     1       7.805  15.165  17.207  0.00  0.00    +0.000 HD
ENDROOT
BRANCH   1  25
ATOM     20  C   UNL     1      10.394  14.352  17.702  0.00  0.00    +0.000 A 
ATOM     21  C   UNL     1      11.528  13.550  17.486  0.00  0.00    +0.000 A 
ATOM     22  C   UNL     1      11.445  12.160  17.544  0.00  0.00    +0.000 A 
ATOM     23  C   UNL     1      10.227  11.553  17.828  0.00  0.00    +0.000 A 
ATOM     24  C   UNL     1       9.083  12.334  17.993  0.00  0.00    +0.000 A 
ATOM     25  C   UNL     1       9.144  13.736  17.910  0.00  0.00    +0.000 A 
BRANCH  20  27
ATOM     26  C   UNL     1      12.046  16.218  17.625  0.00  0.00    +0.000 C 
ATOM     27  C   UNL     1      10.582  15.848  17.838  0.00  0.00    +0.000 C 
ATOM     28  F   UNL     1      10.212  16.325  19.066  0.00  0.00    +0.000 F 
ATOM     29  F   UNL     1       9.836  16.561  16.942  0.00  0.00    +0.000 F 
ENDBRANCH  20  27
ENDBRANCH   1  25
TORSDOF 2
ENDMDL
