MODEL 1
REMARK VINA RESULT:      -8.4      0.000      0.000
REMARK  Name = 
REMARK  3 active torsions:
REMARK  status: ('A' for Active; 'I' for Inactive)
REMARK    1  A    between atoms: C_2  and  C_15
REMARK    2  A    between atoms: N_3  and  C_4
REMARK    3  A    between atoms: C_15  and  C_16
REMARK                            x       y       z     vdW  Elec       q    Type
REMARK                         _______ _______ _______ _____ _____    ______ ____
ROOT
ATOM      1  O   UNL     1       1.454   5.171  17.599  0.00  0.00    +0.000 OA
ATOM      2  C   UNL     1       2.564   5.308  18.114  0.00  0.00    +0.000 C 
ATOM      3  N   UNL     1       3.060   6.519  18.584  0.00  0.00    +0.000 N 
ATOM      4  H   UNL     1       4.057   6.594  18.729  0.00  0.00    +0.000 HD
ENDROOT
BRANCH   3   5
ATOM      5  C   UNL     1       2.312   7.707  18.767  0.00  0.00    +0.000 A 
ATOM      6  C   UNL     1       2.014   8.584  17.720  0.00  0.00    +0.000 A 
ATOM      7  C   UNL     1       1.279   9.753  17.939  0.00  0.00    +0.000 A 
ATOM      8  C   UNL     1       0.817  10.067  19.212  0.00  0.00    +0.000 A 
ATOM      9  N   UNL     1       0.088  11.255  19.389  0.00  0.00    +0.000 NA
ATOM     10  C   UNL     1      -0.326  11.527  20.576  0.00  0.00    +0.000 A 
ATOM     11  N   UNL     1      -0.104  10.730  21.662  0.00  0.00    +0.000 N 
ATOM     12  C   UNL     1       0.589   9.548  21.593  0.00  0.00    +0.000 A 
ATOM     13  O   UNL     1       0.779   8.841  22.575  0.00  0.00    +0.000 OA
ATOM     14  C   UNL     1       1.093   9.180  20.256  0.00  0.00    +0.000 A 
ATOM     15  C   UNL     1       1.825   8.001  20.046  0.00  0.00    +0.000 A 
ATOM     16  H   UNL     1      -0.454  10.996  22.572  0.00  0.00    +0.000 HD
ENDBRANCH   3   5
BRANCH   2  17
ATOM     17  C   UNL     1       3.545   4.098  18.194  0.00  0.00    +0.000 C 
ATOM     18  C   UNL     1       2.692   2.824  17.882  0.00  0.00    +0.000 C 
ATOM     19  C   UNL     1       3.473   1.545  18.132  0.00  0.00    +0.000 C 
ATOM     20  O   UNL     1       3.858   1.479  19.501  0.00  0.00    +0.000 OA
ATOM     21  C   UNL     1       4.717   2.553  19.870  0.00  0.00    +0.000 C 
ATOM     22  C   UNL     1       4.039   3.902  19.656  0.00  0.00    +0.000 C 
BRANCH  17  23
ATOM     23  C   UNL     1       4.669   4.327  17.153  0.00  0.00    +0.000 A 
ATOM     24  C   UNL     1       5.959   4.744  17.526  0.00  0.00    +0.000 A 
ATOM     25  C   UNL     1       6.947   5.005  16.568  0.00  0.00    +0.000 A 
ATOM     26  C   UNL     1       6.666   4.854  15.214  0.00  0.00    +0.000 A 
ATOM     27 CL   UNL     1       7.875   5.194  14.040  0.00  0.00    +0.000 Cl
ATOM     28  C   UNL     1       5.404   4.446  14.811  0.00  0.00    +0.000 A 
ATOM     29  C   UNL     1       4.415   4.199  15.770  0.00  0.00    +0.000 A 
ENDBRANCH  17  23
ENDBRANCH   2  17
TORSDOF 3
ENDMDL
MODEL 2
REMARK VINA RESULT:      -8.0      2.035      2.592
REMARK  Name = 
REMARK  3 active torsions:
REMARK  status: ('A' for Active; 'I' for Inactive)
REMARK    1  A    between atoms: C_2  and  C_15
REMARK    2  A    between atoms: N_3  and  C_4
REMARK    3  A    between atoms: C_15  and  C_16
REMARK                            x       y       z     vdW  Elec       q    Type
REMARK                         _______ _______ _______ _____ _____    ______ ____
ROOT
ATOM      1  O   UNL     1       1.285   5.146  20.764  0.00  0.00    +0.000 OA
ATOM      2  C   UNL     1       2.064   5.556  19.903  0.00  0.00    +0.000 C 
ATOM      3  N   UNL     1       2.198   6.894  19.548  0.00  0.00    +0.000 N 
ATOM      4  H   UNL     1       2.642   7.103  18.665  0.00  0.00    +0.000 HD
ENDROOT
BRANCH   3   5
ATOM      5  C   UNL     1       1.664   7.998  20.255  0.00  0.00    +0.000 A 
ATOM      6  C   UNL     1       1.733   8.112  21.647  0.00  0.00    +0.000 A 
ATOM      7  C   UNL     1       1.187   9.212  22.314  0.00  0.00    +0.000 A 
ATOM      8  C   UNL     1       0.566  10.232  21.601  0.00  0.00    +0.000 A 
ATOM      9  N   UNL     1       0.026  11.317  22.310  0.00  0.00    +0.000 NA
ATOM     10  C   UNL     1      -0.547  12.246  21.630  0.00  0.00    +0.000 A 
ATOM     11  N   UNL     1      -0.652  12.240  20.269  0.00  0.00    +0.000 N 
ATOM     12  C   UNL     1      -0.151  11.231  19.485  0.00  0.00    +0.000 A 
ATOM     13  O   UNL     1      -0.250  11.239  18.264  0.00  0.00    +0.000 OA
ATOM     14  C   UNL     1       0.518  10.132  20.208  0.00  0.00    +0.000 A 
ATOM     15  C   UNL     1       1.068   9.034  19.528  0.00  0.00    +0.000 A 
ATOM     16  H   UNL     1      -1.114  12.998  19.788  0.00  0.00    +0.000 HD
ENDBRANCH   3   5
BRANCH   2  17
ATOM     17  C   UNL     1       2.914   4.547  19.073  0.00  0.00    +0.000 C 
ATOM     18  C   UNL     1       2.008   4.089  17.882  0.00  0.00    +0.000 C 
ATOM     19  C   UNL     1       2.630   2.942  17.105  0.00  0.00    +0.000 C 
ATOM     20  O   UNL     1       2.807   1.821  17.965  0.00  0.00    +0.000 OA
ATOM     21  C   UNL     1       3.693   2.104  19.041  0.00  0.00    +0.000 C 
ATOM     22  C   UNL     1       3.172   3.254  19.899  0.00  0.00    +0.000 C 
BRANCH  17  23
ATOM     23  C   UNL     1       4.192   5.280  18.596  0.00  0.00    +0.000 A 
ATOM     24  C   UNL     1       5.413   5.178  19.287  0.00  0.00    +0.000 A 
ATOM     25  C   UNL     1       6.545   5.896  18.877  0.00  0.00    +0.000 A 
ATOM     26  C   UNL     1       6.480   6.731  17.767  0.00  0.00    +0.000 A 
ATOM     27 CL   UNL     1       7.865   7.625  17.279  0.00  0.00    +0.000 Cl
ATOM     28  C   UNL     1       5.291   6.856  17.064  0.00  0.00    +0.000 A 
ATOM     29  C   UNL     1       4.159   6.149  17.483  0.00  0.00    +0.000 A 
ENDBRANCH  17  23
ENDBRANCH   2  17
TORSDOF 3
ENDMDL
MODEL 3
REMARK VINA RESULT:      -8.0      3.667      8.540
REMARK  Name = 
REMARK  3 active torsions:
REMARK  status: ('A' for Active; 'I' for Inactive)
REMARK    1  A    between atoms: C_2  and  C_15
REMARK    2  A    between atoms: N_3  and  C_4
REMARK    3  A    between atoms: C_15  and  C_16
REMARK                            x       y       z     vdW  Elec       q    Type
REMARK                         _______ _______ _______ _____ _____    ______ ____
ROOT
ATOM      1  O   UNL     1       0.266   8.649  20.938  0.00  0.00    +0.000 OA
ATOM      2  C   UNL     1       0.958   9.104  20.027  0.00  0.00    +0.000 C 
ATOM      3  N   UNL     1       1.984   8.400  19.404  0.00  0.00    +0.000 N 
ATOM      4  H   UNL     1       2.664   8.930  18.876  0.00  0.00    +0.000 HD
ENDROOT
BRANCH   3   5
ATOM      5  C   UNL     1       2.238   7.014  19.535  0.00  0.00    +0.000 A 
ATOM      6  C   UNL     1       1.761   6.254  20.606  0.00  0.00    +0.000 A 
ATOM      7  C   UNL     1       2.037   4.887  20.708  0.00  0.00    +0.000 A 
ATOM      8  C   UNL     1       2.794   4.247  19.733  0.00  0.00    +0.000 A 
ATOM      9  N   UNL     1       3.054   2.874  19.877  0.00  0.00    +0.000 NA
ATOM     10  C   UNL     1       3.759   2.303  18.965  0.00  0.00    +0.000 A 
ATOM     11  N   UNL     1       4.257   2.950  17.871  0.00  0.00    +0.000 N 
ATOM     12  C   UNL     1       4.052   4.286  17.634  0.00  0.00    +0.000 A 
ATOM     13  O   UNL     1       4.504   4.854  16.647  0.00  0.00    +0.000 OA
ATOM     14  C   UNL     1       3.252   4.999  18.648  0.00  0.00    +0.000 A 
ATOM     15  C   UNL     1       2.974   6.370  18.533  0.00  0.00    +0.000 A 
ATOM     16  H   UNL     1       4.805   2.449  17.186  0.00  0.00    +0.000 HD
ENDBRANCH   3   5
BRANCH   2  17
ATOM     17  C   UNL     1       0.771  10.580  19.562  0.00  0.00    +0.000 C 
ATOM     18  C   UNL     1       1.940  10.875  18.565  0.00  0.00    +0.000 C 
ATOM     19  C   UNL     1       2.008  12.346  18.191  0.00  0.00    +0.000 C 
ATOM     20  O   UNL     1       2.234  13.127  19.360  0.00  0.00    +0.000 OA
ATOM     21  C   UNL     1       1.176  13.000  20.303  0.00  0.00    +0.000 C 
ATOM     22  C   UNL     1       1.006  11.552  20.753  0.00  0.00    +0.000 C 
BRANCH  17  23
ATOM     23  C   UNL     1      -0.622  10.695  18.893  0.00  0.00    +0.000 A 
ATOM     24  C   UNL     1      -0.937  10.013  17.705  0.00  0.00    +0.000 A 
ATOM     25  C   UNL     1      -2.181  10.175  17.079  0.00  0.00    +0.000 A 
ATOM     26  C   UNL     1      -3.135  11.024  17.629  0.00  0.00    +0.000 A 
ATOM     27 CL   UNL     1      -4.652  11.237  16.849  0.00  0.00    +0.000 Cl
ATOM     28  C   UNL     1      -2.855  11.713  18.799  0.00  0.00    +0.000 A 
ATOM     29  C   UNL     1      -1.608  11.560  19.415  0.00  0.00    +0.000 A 
ENDBRANCH  17  23
ENDBRANCH   2  17
TORSDOF 3
ENDMDL
MODEL 4
REMARK VINA RESULT:      -8.0      2.006      2.762
REMARK  Name = 
REMARK  3 active torsions:
REMARK  status: ('A' for Active; 'I' for Inactive)
REMARK    1  A    between atoms: C_2  and  C_15
REMARK    2  A    between atoms: N_3  and  C_4
REMARK    3  A    between atoms: C_15  and  C_16
REMARK                            x       y       z     vdW  Elec       q    Type
REMARK                         _______ _______ _______ _____ _____    ______ ____
ROOT
ATOM      1  O   UNL     1       2.224   7.171  18.739  0.00  0.00    +0.000 OA
ATOM      2  C   UNL     1       2.044   6.497  19.754  0.00  0.00    +0.000 C 
ATOM      3  N   UNL     1       1.582   7.013  20.960  0.00  0.00    +0.000 N 
ATOM      4  H   UNL     1       1.728   6.461  21.794  0.00  0.00    +0.000 HD
ENDROOT
BRANCH   3   5
ATOM      5  C   UNL     1       1.029   8.301  21.154  0.00  0.00    +0.000 A 
ATOM      6  C   UNL     1       0.207   8.618  22.239  0.00  0.00    +0.000 A 
ATOM      7  C   UNL     1      -0.329   9.899  22.396  0.00  0.00    +0.000 A 
ATOM      8  C   UNL     1      -0.047  10.899  21.471  0.00  0.00    +0.000 A 
ATOM      9  N   UNL     1      -0.611  12.171  21.662  0.00  0.00    +0.000 NA
ATOM     10  C   UNL     1      -0.339  13.079  20.792  0.00  0.00    +0.000 A 
ATOM     11  N   UNL     1       0.465  12.879  19.708  0.00  0.00    +0.000 N 
ATOM     12  C   UNL     1       1.069  11.676  19.437  0.00  0.00    +0.000 A 
ATOM     13  O   UNL     1       1.791  11.511  18.460  0.00  0.00    +0.000 OA
ATOM     14  C   UNL     1       0.794  10.592  20.398  0.00  0.00    +0.000 A 
ATOM     15  C   UNL     1       1.343   9.310  20.236  0.00  0.00    +0.000 A 
ATOM     16  H   UNL     1       0.643  13.630  19.057  0.00  0.00    +0.000 HD
ENDBRANCH   3   5
BRANCH   2  17
ATOM     17  C   UNL     1       2.420   4.983  19.765  0.00  0.00    +0.000 C 
ATOM     18  C   UNL     1       1.196   4.226  19.151  0.00  0.00    +0.000 C 
ATOM     19  C   UNL     1       1.333   2.720  19.293  0.00  0.00    +0.000 C 
ATOM     20  O   UNL     1       1.403   2.373  20.672  0.00  0.00    +0.000 OA
ATOM     21  C   UNL     1       2.541   2.942  21.311  0.00  0.00    +0.000 C 
ATOM     22  C   UNL     1       2.518   4.465  21.229  0.00  0.00    +0.000 C 
BRANCH  17  23
ATOM     23  C   UNL     1       3.708   4.805  18.925  0.00  0.00    +0.000 A 
ATOM     24  C   UNL     1       4.980   5.128  19.430  0.00  0.00    +0.000 A 
ATOM     25  C   UNL     1       6.130   5.019  18.637  0.00  0.00    +0.000 A 
ATOM     26  C   UNL     1       6.032   4.584  17.319  0.00  0.00    +0.000 A 
ATOM     27 CL   UNL     1       7.442   4.470  16.342  0.00  0.00    +0.000 Cl
ATOM     28  C   UNL     1       4.793   4.260  16.789  0.00  0.00    +0.000 A 
ATOM     29  C   UNL     1       3.645   4.383  17.579  0.00  0.00    +0.000 A 
ENDBRANCH  17  23
ENDBRANCH   2  17
TORSDOF 3
ENDMDL
MODEL 5
REMARK VINA RESULT:      -7.9      1.705      2.107
REMARK  Name = 
REMARK  3 active torsions:
REMARK  status: ('A' for Active; 'I' for Inactive)
REMARK    1  A    between atoms: C_2  and  C_15
REMARK    2  A    between atoms: N_3  and  C_4
REMARK    3  A    between atoms: C_15  and  C_16
REMARK                            x       y       z     vdW  Elec       q    Type
REMARK                         _______ _______ _______ _____ _____    ______ ____
ROOT
ATOM      1  O   UNL     1       1.817   6.846  17.974  0.00  0.00    +0.000 OA
ATOM      2  C   UNL     1       1.989   6.465  19.132  0.00  0.00    +0.000 C 
ATOM      3  N   UNL     1       1.884   7.291  20.247  0.00  0.00    +0.000 N 
ATOM      4  H   UNL     1       2.304   6.972  21.109  0.00  0.00    +0.000 HD
ENDROOT
BRANCH   3   5
ATOM      5  C   UNL     1       1.344   8.599  20.263  0.00  0.00    +0.000 A 
ATOM      6  C   UNL     1       1.418   9.463  19.166  0.00  0.00    +0.000 A 
ATOM      7  C   UNL     1       0.880  10.752  19.219  0.00  0.00    +0.000 A 
ATOM      8  C   UNL     1       0.246  11.204  20.371  0.00  0.00    +0.000 A 
ATOM      9  N   UNL     1      -0.275  12.509  20.384  0.00  0.00    +0.000 NA
ATOM     10  C   UNL     1      -0.853  12.907  21.461  0.00  0.00    +0.000 A 
ATOM     11  N   UNL     1      -0.994  12.138  22.580  0.00  0.00    +0.000 N 
ATOM     12  C   UNL     1      -0.528  10.850  22.665  0.00  0.00    +0.000 A 
ATOM     13  O   UNL     1      -0.663  10.169  23.675  0.00  0.00    +0.000 OA
ATOM     14  C   UNL     1       0.149  10.335  21.460  0.00  0.00    +0.000 A 
ATOM     15  C   UNL     1       0.681   9.036  21.415  0.00  0.00    +0.000 A 
ATOM     16  H   UNL     1      -1.458  12.505  23.398  0.00  0.00    +0.000 HD
ENDBRANCH   3   5
BRANCH   2  17
ATOM     17  C   UNL     1       2.434   4.998  19.416  0.00  0.00    +0.000 C 
ATOM     18  C   UNL     1       1.351   4.079  18.760  0.00  0.00    +0.000 C 
ATOM     19  C   UNL     1       1.541   2.621  19.139  0.00  0.00    +0.000 C 
ATOM     20  O   UNL     1       1.430   2.474  20.551  0.00  0.00    +0.000 OA
ATOM     21  C   UNL     1       2.434   3.203  21.247  0.00  0.00    +0.000 C 
ATOM     22  C   UNL     1       2.347   4.696  20.940  0.00  0.00    +0.000 C 
BRANCH  17  23
ATOM     23  C   UNL     1       3.837   4.796  18.792  0.00  0.00    +0.000 A 
ATOM     24  C   UNL     1       5.011   5.215  19.443  0.00  0.00    +0.000 A 
ATOM     25  C   UNL     1       6.268   5.080  18.839  0.00  0.00    +0.000 A 
ATOM     26  C   UNL     1       6.378   4.524  17.569  0.00  0.00    +0.000 A 
ATOM     27 CL   UNL     1       7.920   4.378  16.822  0.00  0.00    +0.000 Cl
ATOM     28  C   UNL     1       5.240   4.102  16.898  0.00  0.00    +0.000 A 
ATOM     29  C   UNL     1       3.985   4.250  17.498  0.00  0.00    +0.000 A 
ENDBRANCH  17  23
ENDBRANCH   2  17
TORSDOF 3
ENDMDL
MODEL 6
REMARK VINA RESULT:      -7.9      0.996      1.042
REMARK  Name = 
REMARK  3 active torsions:
REMARK  status: ('A' for Active; 'I' for Inactive)
REMARK    1  A    between atoms: C_2  and  C_15
REMARK    2  A    between atoms: N_3  and  C_4
REMARK    3  A    between atoms: C_15  and  C_16
REMARK                            x       y       z     vdW  Elec       q    Type
REMARK                         _______ _______ _______ _____ _____    ______ ____
ROOT
ATOM      1  O   UNL     1       4.034   7.352  17.351  0.00  0.00    +0.000 OA
ATOM      2  C   UNL     1       3.525   6.492  18.071  0.00  0.00    +0.000 C 
ATOM      3  N   UNL     1       2.584   6.763  19.060  0.00  0.00    +0.000 N 
ATOM      4  H   UNL     1       2.433   6.059  19.769  0.00  0.00    +0.000 HD
ENDROOT
BRANCH   3   5
ATOM      5  C   UNL     1       1.898   7.987  19.239  0.00  0.00    +0.000 A 
ATOM      6  C   UNL     1       1.611   8.858  18.183  0.00  0.00    +0.000 A 
ATOM      7  C   UNL     1       0.938  10.063  18.398  0.00  0.00    +0.000 A 
ATOM      8  C   UNL     1       0.526  10.423  19.676  0.00  0.00    +0.000 A 
ATOM      9  N   UNL     1      -0.143  11.646  19.849  0.00  0.00    +0.000 NA
ATOM     10  C   UNL     1      -0.511  11.959  21.041  0.00  0.00    +0.000 A 
ATOM     11  N   UNL     1      -0.296  11.174  22.136  0.00  0.00    +0.000 N 
ATOM     12  C   UNL     1       0.340   9.959  22.072  0.00  0.00    +0.000 A 
ATOM     13  O   UNL     1       0.524   9.263  23.063  0.00  0.00    +0.000 OA
ATOM     14  C   UNL     1       0.789   9.543  20.730  0.00  0.00    +0.000 A 
ATOM     15  C   UNL     1       1.460   8.327  20.524  0.00  0.00    +0.000 A 
ATOM     16  H   UNL     1      -0.608  11.472  23.049  0.00  0.00    +0.000 HD
ENDBRANCH   3   5
BRANCH   2  17
ATOM     17  C   UNL     1       3.986   5.007  17.964  0.00  0.00    +0.000 C 
ATOM     18  C   UNL     1       2.694   4.168  17.689  0.00  0.00    +0.000 C 
ATOM     19  C   UNL     1       2.961   2.675  17.772  0.00  0.00    +0.000 C 
ATOM     20  O   UNL     1       3.419   2.341  19.078  0.00  0.00    +0.000 OA
ATOM     21  C   UNL     1       4.647   2.986  19.397  0.00  0.00    +0.000 C 
ATOM     22  C   UNL     1       4.504   4.505  19.342  0.00  0.00    +0.000 C 
BRANCH  17  23
ATOM     23  C   UNL     1       5.012   4.909  16.808  0.00  0.00    +0.000 A 
ATOM     24  C   UNL     1       6.365   5.250  16.980  0.00  0.00    +0.000 A 
ATOM     25  C   UNL     1       7.269   5.213  15.909  0.00  0.00    +0.000 A 
ATOM     26  C   UNL     1       6.837   4.835  14.642  0.00  0.00    +0.000 A 
ATOM     27 CL   UNL     1       7.943   4.810  13.326  0.00  0.00    +0.000 Cl
ATOM     28  C   UNL     1       5.509   4.494  14.437  0.00  0.00    +0.000 A 
ATOM     29  C   UNL     1       4.606   4.544  15.505  0.00  0.00    +0.000 A 
ENDBRANCH  17  23
ENDBRANCH   2  17
TORSDOF 3
ENDMDL
MODEL 7
REMARK VINA RESULT:      -7.9      3.728      8.342
REMARK  Name = 
REMARK  3 active torsions:
REMARK  status: ('A' for Active; 'I' for Inactive)
REMARK    1  A    between atoms: C_2  and  C_15
REMARK    2  A    between atoms: N_3  and  C_4
REMARK    3  A    between atoms: C_15  and  C_16
REMARK                            x       y       z     vdW  Elec       q    Type
REMARK                         _______ _______ _______ _____ _____    ______ ____
ROOT
ATOM      1  O   UNL     1       2.161   9.600  17.189  0.00  0.00    +0.000 OA
ATOM      2  C   UNL     1       1.746   9.213  18.283  0.00  0.00    +0.000 C 
ATOM      3  N   UNL     1       1.927   7.924  18.772  0.00  0.00    +0.000 N 
ATOM      4  H   UNL     1       1.330   7.620  19.529  0.00  0.00    +0.000 HD
ENDROOT
BRANCH   3   5
ATOM      5  C   UNL     1       2.793   6.945  18.230  0.00  0.00    +0.000 A 
ATOM      6  C   UNL     1       2.393   5.627  17.991  0.00  0.00    +0.000 A 
ATOM      7  C   UNL     1       3.277   4.683  17.461  0.00  0.00    +0.000 A 
ATOM      8  C   UNL     1       4.585   5.039  17.150  0.00  0.00    +0.000 A 
ATOM      9  N   UNL     1       5.442   4.058  16.625  0.00  0.00    +0.000 NA
ATOM     10  C   UNL     1       6.649   4.410  16.349  0.00  0.00    +0.000 A 
ATOM     11  N   UNL     1       7.135   5.672  16.528  0.00  0.00    +0.000 N 
ATOM     12  C   UNL     1       6.376   6.702  17.026  0.00  0.00    +0.000 A 
ATOM     13  O   UNL     1       6.824   7.832  17.179  0.00  0.00    +0.000 OA
ATOM     14  C   UNL     1       4.981   6.361  17.365  0.00  0.00    +0.000 A 
ATOM     15  C   UNL     1       4.099   7.318  17.891  0.00  0.00    +0.000 A 
ATOM     16  H   UNL     1       8.092   5.890  16.293  0.00  0.00    +0.000 HD
ENDBRANCH   3   5
BRANCH   2  17
ATOM     17  C   UNL     1       0.889  10.162  19.176  0.00  0.00    +0.000 C 
ATOM     18  C   UNL     1       1.753  11.447  19.401  0.00  0.00    +0.000 C 
ATOM     19  C   UNL     1       1.131  12.374  20.430  0.00  0.00    +0.000 C 
ATOM     20  O   UNL     1       1.028  11.702  21.681  0.00  0.00    +0.000 OA
ATOM     21  C   UNL     1       0.184  10.558  21.608  0.00  0.00    +0.000 C 
ATOM     22  C   UNL     1       0.709   9.547  20.593  0.00  0.00    +0.000 C 
BRANCH  17  23
ATOM     23  C   UNL     1      -0.431  10.460  18.423  0.00  0.00    +0.000 A 
ATOM     24  C   UNL     1      -1.194  11.613  18.684  0.00  0.00    +0.000 A 
ATOM     25  C   UNL     1      -2.417  11.839  18.038  0.00  0.00    +0.000 A 
ATOM     26  C   UNL     1      -2.904  10.916  17.118  0.00  0.00    +0.000 A 
ATOM     27 CL   UNL     1      -4.414  11.186  16.343  0.00  0.00    +0.000 Cl
ATOM     28  C   UNL     1      -2.178   9.769  16.840  0.00  0.00    +0.000 A 
ATOM     29  C   UNL     1      -0.963   9.539  17.496  0.00  0.00    +0.000 A 
ENDBRANCH  17  23
ENDBRANCH   2  17
TORSDOF 3
ENDMDL
MODEL 8
REMARK VINA RESULT:      -7.7      1.206      1.427
REMARK  Name = 
REMARK  3 active torsions:
REMARK  status: ('A' for Active; 'I' for Inactive)
REMARK    1  A    between atoms: C_2  and  C_15
REMARK    2  A    between atoms: N_3  and  C_4
REMARK    3  A    between atoms: C_15  and  C_16
REMARK                            x       y       z     vdW  Elec       q    Type
REMARK                         _______ _______ _______ _____ _____    ______ ____
ROOT
ATOM      1  O   UNL     1       1.761   6.823  17.484  0.00  0.00    +0.000 OA
ATOM      2  C   UNL     1       2.197   6.400  18.555  0.00  0.00    +0.000 C 
ATOM      3  N   UNL     1       2.223   7.142  19.732  0.00  0.00    +0.000 N 
ATOM      4  H   UNL     1       2.836   6.827  20.472  0.00  0.00    +0.000 HD
ENDROOT
BRANCH   3   5
ATOM      5  C   UNL     1       1.558   8.371  19.952  0.00  0.00    +0.000 A 
ATOM      6  C   UNL     1       1.378   9.327  18.948  0.00  0.00    +0.000 A 
ATOM      7  C   UNL     1       0.724  10.535  19.203  0.00  0.00    +0.000 A 
ATOM      8  C   UNL     1       0.224  10.813  20.470  0.00  0.00    +0.000 A 
ATOM      9  N   UNL     1      -0.422  12.041  20.685  0.00  0.00    +0.000 NA
ATOM     10  C   UNL     1      -0.872  12.278  21.867  0.00  0.00    +0.000 A 
ATOM     11  N   UNL     1      -0.764  11.406  22.912  0.00  0.00    +0.000 N 
ATOM     12  C   UNL     1      -0.159  10.179  22.803  0.00  0.00    +0.000 A 
ATOM     13  O   UNL     1      -0.072   9.405  23.749  0.00  0.00    +0.000 OA
ATOM     14  C   UNL     1       0.381   9.849  21.470  0.00  0.00    +0.000 A 
ATOM     15  C   UNL     1       1.032   8.630  21.223  0.00  0.00    +0.000 A 
ATOM     16  H   UNL     1      -1.137  11.646  23.819  0.00  0.00    +0.000 HD
ENDBRANCH   3   5
BRANCH   2  17
ATOM     17  C   UNL     1       2.844   4.984  18.633  0.00  0.00    +0.000 C 
ATOM     18  C   UNL     1       1.732   3.971  18.203  0.00  0.00    +0.000 C 
ATOM     19  C   UNL     1       2.157   2.532  18.434  0.00  0.00    +0.000 C 
ATOM     20  O   UNL     1       2.412   2.324  19.819  0.00  0.00    +0.000 OA
ATOM     21  C   UNL     1       3.477   3.139  20.297  0.00  0.00    +0.000 C 
ATOM     22  C   UNL     1       3.166   4.621  20.112  0.00  0.00    +0.000 C 
BRANCH  17  23
ATOM     23  C   UNL     1       4.064   4.965  17.679  0.00  0.00    +0.000 A 
ATOM     24  C   UNL     1       5.084   5.930  17.751  0.00  0.00    +0.000 A 
ATOM     25  C   UNL     1       6.150   5.934  16.841  0.00  0.00    +0.000 A 
ATOM     26  C   UNL     1       6.218   4.973  15.839  0.00  0.00    +0.000 A 
ATOM     27 CL   UNL     1       7.516   4.992  14.712  0.00  0.00    +0.000 Cl
ATOM     28  C   UNL     1       5.228   4.008  15.738  0.00  0.00    +0.000 A 
ATOM     29  C   UNL     1       4.158   4.013  16.640  0.00  0.00    +0.000 A 
ENDBRANCH  17  23
ENDBRANCH   2  17
TORSDOF 3
ENDMDL
MODEL 9
REMARK VINA RESULT:      -7.7      2.443      3.662
REMARK  Name = 
REMARK  3 active torsions:
REMARK  status: ('A' for Active; 'I' for Inactive)
REMARK    1  A    between atoms: C_2  and  C_15
REMARK    2  A    between atoms: N_3  and  C_4
REMARK    3  A    between atoms: C_15  and  C_16
REMARK                            x       y       z     vdW  Elec       q    Type
REMARK                         _______ _______ _______ _____ _____    ______ ____
ROOT
ATOM      1  O   UNL     1       4.950   8.088  17.459  0.00  0.00    +0.000 OA
ATOM      2  C   UNL     1       4.398   7.008  17.671  0.00  0.00    +0.000 C 
ATOM      3  N   UNL     1       3.171   6.873  18.311  0.00  0.00    +0.000 N 
ATOM      4  H   UNL     1       2.932   5.964  18.683  0.00  0.00    +0.000 HD
ENDROOT
BRANCH   3   5
ATOM      5  C   UNL     1       2.266   7.922  18.599  0.00  0.00    +0.000 A 
ATOM      6  C   UNL     1       1.661   8.697  17.605  0.00  0.00    +0.000 A 
ATOM      7  C   UNL     1       0.778   9.731  17.926  0.00  0.00    +0.000 A 
ATOM      8  C   UNL     1       0.471  10.009  19.254  0.00  0.00    +0.000 A 
ATOM      9  N   UNL     1      -0.417  11.061  19.533  0.00  0.00    +0.000 NA
ATOM     10  C   UNL     1      -0.683  11.302  20.768  0.00  0.00    +0.000 A 
ATOM     11  N   UNL     1      -0.161  10.595  21.812  0.00  0.00    +0.000 N 
ATOM     12  C   UNL     1       0.708   9.546  21.645  0.00  0.00    +0.000 A 
ATOM     13  O   UNL     1       1.167   8.918  22.592  0.00  0.00    +0.000 OA
ATOM     14  C   UNL     1       1.055   9.220  20.249  0.00  0.00    +0.000 A 
ATOM     15  C   UNL     1       1.939   8.176  19.936  0.00  0.00    +0.000 A 
ATOM     16  H   UNL     1      -0.406  10.831  22.763  0.00  0.00    +0.000 HD
ENDBRANCH   3   5
BRANCH   2  17
ATOM     17  C   UNL     1       5.114   5.675  17.292  0.00  0.00    +0.000 C 
ATOM     18  C   UNL     1       6.531   5.738  17.952  0.00  0.00    +0.000 C 
ATOM     19  C   UNL     1       7.422   4.597  17.492  0.00  0.00    +0.000 C 
ATOM     20  O   UNL     1       7.602   4.670  16.081  0.00  0.00    +0.000 OA
ATOM     21  C   UNL     1       6.375   4.531  15.375  0.00  0.00    +0.000 C 
ATOM     22  C   UNL     1       5.387   5.628  15.761  0.00  0.00    +0.000 C 
BRANCH  17  23
ATOM     23  C   UNL     1       4.259   4.504  17.836  0.00  0.00    +0.000 A 
ATOM     24  C   UNL     1       3.307   3.842  17.041  0.00  0.00    +0.000 A 
ATOM     25  C   UNL     1       2.500   2.823  17.566  0.00  0.00    +0.000 A 
ATOM     26  C   UNL     1       2.627   2.447  18.898  0.00  0.00    +0.000 A 
ATOM     27 CL   UNL     1       1.621   1.211  19.544  0.00  0.00    +0.000 Cl
ATOM     28  C   UNL     1       3.555   3.080  19.710  0.00  0.00    +0.000 A 
ATOM     29  C   UNL     1       4.351   4.105  19.188  0.00  0.00    +0.000 A 
ENDBRANCH  17  23
ENDBRANCH   2  17
TORSDOF 3
ENDMDL
