MODEL 1
REMARK VINA RESULT:      -8.3      0.000      0.000
REMARK  Name = 
REMARK  3 active torsions:
REMARK  status: ('A' for Active; 'I' for Inactive)
REMARK    1  A    between atoms: C_2  and  C_16
REMARK    2  A    between atoms: C_6  and  C_7
REMARK    3  A    between atoms: N_19  and  C_20
REMARK                            x       y       z     vdW  Elec       q    Type
REMARK                         _______ _______ _______ _____ _____    ______ ____
ROOT
ATOM      1  O   UNL     1       2.052   9.401  17.505  0.00  0.00    +0.000 OA
ATOM      2  C   UNL     1       1.583   9.393  18.638  0.00  0.00    +0.000 C 
ATOM      3  N   UNL     1       1.679   8.362  19.548  0.00  0.00    +0.000 N 
ATOM      4  C   UNL     1       2.353   7.228  19.195  0.00  0.00    +0.000 A 
ATOM      5  N   UNL     1       3.111   7.034  18.151  0.00  0.00    +0.000 NA
ATOM      6  C   UNL     1       3.556   5.718  18.134  0.00  0.00    +0.000 A 
ATOM      7  N   UNL     1       3.169   4.910  19.134  0.00  0.00    +0.000 NA
ATOM      8  S   UNL     1       2.223   5.839  20.168  0.00  0.00    +0.000 S 
ATOM      9  H   UNL     1       1.169   8.421  20.418  0.00  0.00    +0.000 HD
ENDROOT
BRANCH   6  10
ATOM     10  C   UNL     1       4.423   5.292  17.030  0.00  0.00    +0.000 A 
ATOM     11  C   UNL     1       4.726   3.924  16.874  0.00  0.00    +0.000 A 
ATOM     12  C   UNL     1       5.544   3.484  15.832  0.00  0.00    +0.000 A 
ATOM     13  C   UNL     1       6.070   4.408  14.943  0.00  0.00    +0.000 A 
ATOM     14  F   UNL     1       6.858   3.991  13.945  0.00  0.00    +0.000 F 
ATOM     15  C   UNL     1       5.793   5.765  15.078  0.00  0.00    +0.000 A 
ATOM     16  C   UNL     1       4.968   6.207  16.119  0.00  0.00    +0.000 A 
ENDBRANCH   6  10
BRANCH   2  17
ATOM     17  C   UNL     1       0.790  10.539  19.101  0.00  0.00    +0.000 A 
ATOM     18  C   UNL     1       1.082  11.878  18.765  0.00  0.00    +0.000 A 
ATOM     19  C   UNL     1       0.142  12.628  19.414  0.00  0.00    +0.000 A 
ATOM     20  N   UNL     1      -0.656  11.764  20.128  0.00  0.00    +0.000 N 
ATOM     21  N   UNL     1      -0.297  10.456  19.895  0.00  0.00    +0.000 NA
BRANCH  20  22
ATOM     22  C   UNL     1      -1.712  12.094  21.024  0.00  0.00    +0.000 A 
ATOM     23  C   UNL     1      -2.901  12.649  20.525  0.00  0.00    +0.000 A 
ATOM     24  C   UNL     1      -3.958  12.948  21.394  0.00  0.00    +0.000 A 
ATOM     25  C   UNL     1      -3.839  12.705  22.761  0.00  0.00    +0.000 A 
ATOM     26  C   UNL     1      -2.661  12.161  23.263  0.00  0.00    +0.000 A 
ATOM     27  C   UNL     1      -1.609  11.859  22.401  0.00  0.00    +0.000 A 
ATOM     28  F   UNL     1      -0.506  11.346  22.961  0.00  0.00    +0.000 F 
ENDBRANCH  20  22
ENDBRANCH   2  17
TORSDOF 3
ENDMDL
MODEL 2
REMARK VINA RESULT:      -8.3      1.735      2.227
REMARK  Name = 
REMARK  3 active torsions:
REMARK  status: ('A' for Active; 'I' for Inactive)
REMARK    1  A    between atoms: C_2  and  C_16
REMARK    2  A    between atoms: C_6  and  C_7
REMARK    3  A    between atoms: N_19  and  C_20
REMARK                            x       y       z     vdW  Elec       q    Type
REMARK                         _______ _______ _______ _____ _____    ______ ____
ROOT
ATOM      1  O   UNL     1       1.689   8.888  19.453  0.00  0.00    +0.000 OA
ATOM      2  C   UNL     1       1.284   8.501  20.544  0.00  0.00    +0.000 C 
ATOM      3  N   UNL     1       1.455   7.240  21.072  0.00  0.00    +0.000 N 
ATOM      4  C   UNL     1       2.137   6.306  20.347  0.00  0.00    +0.000 A 
ATOM      5  N   UNL     1       2.841   6.485  19.263  0.00  0.00    +0.000 NA
ATOM      6  C   UNL     1       3.317   5.262  18.808  0.00  0.00    +0.000 A 
ATOM      7  N   UNL     1       3.005   4.163  19.514  0.00  0.00    +0.000 NA
ATOM      8  S   UNL     1       2.095   4.675  20.831  0.00  0.00    +0.000 S 
ATOM      9  H   UNL     1       0.992   7.000  21.938  0.00  0.00    +0.000 HD
ENDROOT
BRANCH   6  10
ATOM     10  C   UNL     1       4.132   5.244  17.588  0.00  0.00    +0.000 A 
ATOM     11  C   UNL     1       4.557   4.010  17.055  0.00  0.00    +0.000 A 
ATOM     12  C   UNL     1       5.330   3.957  15.894  0.00  0.00    +0.000 A 
ATOM     13  C   UNL     1       5.689   5.136  15.261  0.00  0.00    +0.000 A 
ATOM     14  F   UNL     1       6.434   5.091  14.150  0.00  0.00    +0.000 F 
ATOM     15  C   UNL     1       5.289   6.368  15.770  0.00  0.00    +0.000 A 
ATOM     16  C   UNL     1       4.509   6.422  16.931  0.00  0.00    +0.000 A 
ENDBRANCH   6  10
BRANCH   2  17
ATOM     17  C   UNL     1       0.488   9.408  21.383  0.00  0.00    +0.000 A 
ATOM     18  C   UNL     1       0.007   9.067  22.665  0.00  0.00    +0.000 A 
ATOM     19  C   UNL     1      -0.703  10.154  23.087  0.00  0.00    +0.000 A 
ATOM     20  N   UNL     1      -0.666  11.090  22.079  0.00  0.00    +0.000 N 
ATOM     21  N   UNL     1       0.121  10.659  21.036  0.00  0.00    +0.000 NA
BRANCH  20  22
ATOM     22  C   UNL     1      -1.337  12.344  22.031  0.00  0.00    +0.000 A 
ATOM     23  C   UNL     1      -1.132  13.284  23.053  0.00  0.00    +0.000 A 
ATOM     24  C   UNL     1      -1.764  14.533  22.999  0.00  0.00    +0.000 A 
ATOM     25  C   UNL     1      -2.606  14.854  21.936  0.00  0.00    +0.000 A 
ATOM     26  C   UNL     1      -2.818  13.925  20.923  0.00  0.00    +0.000 A 
ATOM     27  C   UNL     1      -2.189  12.682  20.972  0.00  0.00    +0.000 A 
ATOM     28  F   UNL     1      -2.451  11.840  19.964  0.00  0.00    +0.000 F 
ENDBRANCH  20  22
ENDBRANCH   2  17
TORSDOF 3
ENDMDL
MODEL 3
REMARK VINA RESULT:      -8.3      1.530      2.144
REMARK  Name = 
REMARK  3 active torsions:
REMARK  status: ('A' for Active; 'I' for Inactive)
REMARK    1  A    between atoms: C_2  and  C_16
REMARK    2  A    between atoms: C_6  and  C_7
REMARK    3  A    between atoms: N_19  and  C_20
REMARK                            x       y       z     vdW  Elec       q    Type
REMARK                         _______ _______ _______ _____ _____    ______ ____
ROOT
ATOM      1  O   UNL     1       1.684   8.849  19.411  0.00  0.00    +0.000 OA
ATOM      2  C   UNL     1       1.281   8.478  20.508  0.00  0.00    +0.000 C 
ATOM      3  N   UNL     1       1.457   7.225  21.056  0.00  0.00    +0.000 N 
ATOM      4  C   UNL     1       2.143   6.282  20.345  0.00  0.00    +0.000 A 
ATOM      5  N   UNL     1       2.845   6.447  19.258  0.00  0.00    +0.000 NA
ATOM      6  C   UNL     1       3.326   5.219  18.822  0.00  0.00    +0.000 A 
ATOM      7  N   UNL     1       3.019   4.130  19.545  0.00  0.00    +0.000 NA
ATOM      8  S   UNL     1       2.108   4.660  20.855  0.00  0.00    +0.000 S 
ATOM      9  H   UNL     1       0.996   6.997  21.925  0.00  0.00    +0.000 HD
ENDROOT
BRANCH   6  10
ATOM     10  C   UNL     1       4.140   5.185  17.602  0.00  0.00    +0.000 A 
ATOM     11  C   UNL     1       4.494   6.394  16.969  0.00  0.00    +0.000 A 
ATOM     12  C   UNL     1       5.271   6.398  15.809  0.00  0.00    +0.000 A 
ATOM     13  C   UNL     1       5.693   5.194  15.270  0.00  0.00    +0.000 A 
ATOM     14  F   UNL     1       6.435   5.191  14.156  0.00  0.00    +0.000 F 
ATOM     15  C   UNL     1       5.352   3.985  15.870  0.00  0.00    +0.000 A 
ATOM     16  C   UNL     1       4.578   3.981  17.036  0.00  0.00    +0.000 A 
ENDBRANCH   6  10
BRANCH   2  17
ATOM     17  C   UNL     1       0.482   9.394  21.333  0.00  0.00    +0.000 A 
ATOM     18  C   UNL     1       0.265   9.213  22.715  0.00  0.00    +0.000 A 
ATOM     19  C   UNL     1      -0.545  10.246  23.093  0.00  0.00    +0.000 A 
ATOM     20  N   UNL     1      -0.817  10.992  21.969  0.00  0.00    +0.000 N 
ATOM     21  N   UNL     1      -0.136  10.503  20.878  0.00  0.00    +0.000 NA
BRANCH  20  22
ATOM     22  C   UNL     1      -1.687  12.113  21.859  0.00  0.00    +0.000 A 
ATOM     23  C   UNL     1      -1.514  13.029  20.809  0.00  0.00    +0.000 A 
ATOM     24  C   UNL     1      -2.385  14.118  20.673  0.00  0.00    +0.000 A 
ATOM     25  C   UNL     1      -3.426  14.307  21.580  0.00  0.00    +0.000 A 
ATOM     26  C   UNL     1      -3.600  13.406  22.625  0.00  0.00    +0.000 A 
ATOM     27  C   UNL     1      -2.738  12.320  22.762  0.00  0.00    +0.000 A 
ATOM     28  F   UNL     1      -2.965  11.503  23.799  0.00  0.00    +0.000 F 
ENDBRANCH  20  22
ENDBRANCH   2  17
TORSDOF 3
ENDMDL
MODEL 4
REMARK VINA RESULT:      -8.2      1.724      2.081
REMARK  Name = 
REMARK  3 active torsions:
REMARK  status: ('A' for Active; 'I' for Inactive)
REMARK    1  A    between atoms: C_2  and  C_16
REMARK    2  A    between atoms: C_6  and  C_7
REMARK    3  A    between atoms: N_19  and  C_20
REMARK                            x       y       z     vdW  Elec       q    Type
REMARK                         _______ _______ _______ _____ _____    ______ ____
ROOT
ATOM      1  O   UNL     1       1.652   8.975  19.475  0.00  0.00    +0.000 OA
ATOM      2  C   UNL     1       1.245   8.586  20.565  0.00  0.00    +0.000 C 
ATOM      3  N   UNL     1       1.411   7.321  21.088  0.00  0.00    +0.000 N 
ATOM      4  C   UNL     1       2.087   6.387  20.358  0.00  0.00    +0.000 A 
ATOM      5  N   UNL     1       2.790   6.566  19.274  0.00  0.00    +0.000 NA
ATOM      6  C   UNL     1       3.259   5.343  18.812  0.00  0.00    +0.000 A 
ATOM      7  N   UNL     1       2.943   4.243  19.514  0.00  0.00    +0.000 NA
ATOM      8  S   UNL     1       2.037   4.755  20.835  0.00  0.00    +0.000 S 
ATOM      9  H   UNL     1       0.948   7.080  21.953  0.00  0.00    +0.000 HD
ENDROOT
BRANCH   6  10
ATOM     10  C   UNL     1       4.072   5.326  17.591  0.00  0.00    +0.000 A 
ATOM     11  C   UNL     1       4.460   4.091  17.032  0.00  0.00    +0.000 A 
ATOM     12  C   UNL     1       5.229   4.039  15.869  0.00  0.00    +0.000 A 
ATOM     13  C   UNL     1       5.624   5.220  15.261  0.00  0.00    +0.000 A 
ATOM     14  F   UNL     1       6.366   5.175  14.147  0.00  0.00    +0.000 F 
ATOM     15  C   UNL     1       5.262   6.453  15.795  0.00  0.00    +0.000 A 
ATOM     16  C   UNL     1       4.485   6.506  16.958  0.00  0.00    +0.000 A 
ENDBRANCH   6  10
BRANCH   2  17
ATOM     17  C   UNL     1       0.456   9.493  21.409  0.00  0.00    +0.000 A 
ATOM     18  C   UNL     1      -0.041   9.142  22.682  0.00  0.00    +0.000 A 
ATOM     19  C   UNL     1      -0.740  10.234  23.112  0.00  0.00    +0.000 A 
ATOM     20  N   UNL     1      -0.679  11.183  22.117  0.00  0.00    +0.000 N 
ATOM     21  N   UNL     1       0.111  10.754  21.076  0.00  0.00    +0.000 NA
BRANCH  20  22
ATOM     22  C   UNL     1      -1.332  12.447  22.080  0.00  0.00    +0.000 A 
ATOM     23  C   UNL     1      -2.734  12.509  22.112  0.00  0.00    +0.000 A 
ATOM     24  C   UNL     1      -3.385  13.749  22.108  0.00  0.00    +0.000 A 
ATOM     25  C   UNL     1      -2.651  14.933  22.066  0.00  0.00    +0.000 A 
ATOM     26  C   UNL     1      -1.261  14.879  22.029  0.00  0.00    +0.000 A 
ATOM     27  C   UNL     1      -0.610  13.646  22.036  0.00  0.00    +0.000 A 
ATOM     28  F   UNL     1       0.728  13.678  21.989  0.00  0.00    +0.000 F 
ENDBRANCH  20  22
ENDBRANCH   2  17
TORSDOF 3
ENDMDL
MODEL 5
REMARK VINA RESULT:      -8.2      0.929      1.308
REMARK  Name = 
REMARK  3 active torsions:
REMARK  status: ('A' for Active; 'I' for Inactive)
REMARK    1  A    between atoms: C_2  and  C_16
REMARK    2  A    between atoms: C_6  and  C_7
REMARK    3  A    between atoms: N_19  and  C_20
REMARK                            x       y       z     vdW  Elec       q    Type
REMARK                         _______ _______ _______ _____ _____    ______ ____
ROOT
ATOM      1  O   UNL     1       1.984   9.444  17.516  0.00  0.00    +0.000 OA
ATOM      2  C   UNL     1       1.525   9.430  18.654  0.00  0.00    +0.000 C 
ATOM      3  N   UNL     1       1.646   8.402  19.564  0.00  0.00    +0.000 N 
ATOM      4  C   UNL     1       2.337   7.280  19.207  0.00  0.00    +0.000 A 
ATOM      5  N   UNL     1       3.089   7.097  18.157  0.00  0.00    +0.000 NA
ATOM      6  C   UNL     1       3.557   5.789  18.139  0.00  0.00    +0.000 A 
ATOM      7  N   UNL     1       3.192   4.977  19.143  0.00  0.00    +0.000 NA
ATOM      8  S   UNL     1       2.239   5.891  20.184  0.00  0.00    +0.000 S 
ATOM      9  H   UNL     1       1.143   8.455  20.438  0.00  0.00    +0.000 HD
ENDROOT
BRANCH   6  10
ATOM     10  C   UNL     1       4.421   5.376  17.028  0.00  0.00    +0.000 A 
ATOM     11  C   UNL     1       4.693   4.007  16.832  0.00  0.00    +0.000 A 
ATOM     12  C   UNL     1       5.508   3.579  15.782  0.00  0.00    +0.000 A 
ATOM     13  C   UNL     1       6.063   4.516  14.927  0.00  0.00    +0.000 A 
ATOM     14  F   UNL     1       6.849   4.111  13.921  0.00  0.00    +0.000 F 
ATOM     15  C   UNL     1       5.818   5.875  15.102  0.00  0.00    +0.000 A 
ATOM     16  C   UNL     1       4.996   6.304  16.150  0.00  0.00    +0.000 A 
ENDBRANCH   6  10
BRANCH   2  17
ATOM     17  C   UNL     1       0.716  10.563  19.121  0.00  0.00    +0.000 A 
ATOM     18  C   UNL     1       0.977  11.906  18.775  0.00  0.00    +0.000 A 
ATOM     19  C   UNL     1       0.032  12.640  19.432  0.00  0.00    +0.000 A 
ATOM     20  N   UNL     1      -0.740  11.765  20.161  0.00  0.00    +0.000 N 
ATOM     21  N   UNL     1      -0.359  10.463  19.929  0.00  0.00    +0.000 NA
BRANCH  20  22
ATOM     22  C   UNL     1      -1.790  12.080  21.068  0.00  0.00    +0.000 A 
ATOM     23  C   UNL     1      -1.561  12.009  22.451  0.00  0.00    +0.000 A 
ATOM     24  C   UNL     1      -2.579  12.348  23.353  0.00  0.00    +0.000 A 
ATOM     25  C   UNL     1      -3.829  12.751  22.888  0.00  0.00    +0.000 A 
ATOM     26  C   UNL     1      -4.065  12.818  21.519  0.00  0.00    +0.000 A 
ATOM     27  C   UNL     1      -3.053  12.485  20.619  0.00  0.00    +0.000 A 
ATOM     28  F   UNL     1      -3.362  12.566  19.318  0.00  0.00    +0.000 F 
ENDBRANCH  20  22
ENDBRANCH   2  17
TORSDOF 3
ENDMDL
MODEL 6
REMARK VINA RESULT:      -8.0      0.541      1.131
REMARK  Name = 
REMARK  3 active torsions:
REMARK  status: ('A' for Active; 'I' for Inactive)
REMARK    1  A    between atoms: C_2  and  C_16
REMARK    2  A    between atoms: C_6  and  C_7
REMARK    3  A    between atoms: N_19  and  C_20
REMARK                            x       y       z     vdW  Elec       q    Type
REMARK                         _______ _______ _______ _____ _____    ______ ____
ROOT
ATOM      1  O   UNL     1       2.145   9.299  17.330  0.00  0.00    +0.000 OA
ATOM      2  C   UNL     1       1.678   9.339  18.463  0.00  0.00    +0.000 C 
ATOM      3  N   UNL     1       1.752   8.337  19.406  0.00  0.00    +0.000 N 
ATOM      4  C   UNL     1       2.399   7.177  19.090  0.00  0.00    +0.000 A 
ATOM      5  N   UNL     1       3.150   6.931  18.052  0.00  0.00    +0.000 NA
ATOM      6  C   UNL     1       3.565   5.606  18.079  0.00  0.00    +0.000 A 
ATOM      7  N   UNL     1       3.161   4.840  19.105  0.00  0.00    +0.000 NA
ATOM      8  S   UNL     1       2.239   5.824  20.110  0.00  0.00    +0.000 S 
ATOM      9  H   UNL     1       1.245   8.437  20.274  0.00  0.00    +0.000 HD
ENDROOT
BRANCH   6  10
ATOM     10  C   UNL     1       4.419   5.123  16.988  0.00  0.00    +0.000 A 
ATOM     11  C   UNL     1       4.971   6.046  16.078  0.00  0.00    +0.000 A 
ATOM     12  C   UNL     1       5.792   5.621  15.031  0.00  0.00    +0.000 A 
ATOM     13  C   UNL     1       6.058   4.270  14.883  0.00  0.00    +0.000 A 
ATOM     14  F   UNL     1       6.841   3.856  13.878  0.00  0.00    +0.000 F 
ATOM     15  C   UNL     1       5.520   3.335  15.762  0.00  0.00    +0.000 A 
ATOM     16  C   UNL     1       4.703   3.761  16.816  0.00  0.00    +0.000 A 
ENDBRANCH   6  10
BRANCH   2  17
ATOM     17  C   UNL     1       0.912  10.519  18.888  0.00  0.00    +0.000 A 
ATOM     18  C   UNL     1       1.443  11.825  18.919  0.00  0.00    +0.000 A 
ATOM     19  C   UNL     1       0.436  12.614  19.399  0.00  0.00    +0.000 A 
ATOM     20  N   UNL     1      -0.638  11.797  19.668  0.00  0.00    +0.000 N 
ATOM     21  N   UNL     1      -0.372  10.498  19.300  0.00  0.00    +0.000 NA
BRANCH  20  22
ATOM     22  C   UNL     1      -1.878  12.159  20.264  0.00  0.00    +0.000 A 
ATOM     23  C   UNL     1      -3.025  12.287  19.465  0.00  0.00    +0.000 A 
ATOM     24  C   UNL     1      -4.257  12.612  20.047  0.00  0.00    +0.000 A 
ATOM     25  C   UNL     1      -4.357  12.818  21.421  0.00  0.00    +0.000 A 
ATOM     26  C   UNL     1      -3.224  12.699  22.218  0.00  0.00    +0.000 A 
ATOM     27  C   UNL     1      -1.997  12.373  21.643  0.00  0.00    +0.000 A 
ATOM     28  F   UNL     1      -0.951  12.286  22.476  0.00  0.00    +0.000 F 
ENDBRANCH  20  22
ENDBRANCH   2  17
TORSDOF 3
ENDMDL
MODEL 7
REMARK VINA RESULT:      -7.9      2.993     10.247
REMARK  Name = 
REMARK  3 active torsions:
REMARK  status: ('A' for Active; 'I' for Inactive)
REMARK    1  A    between atoms: C_2  and  C_16
REMARK    2  A    between atoms: C_6  and  C_7
REMARK    3  A    between atoms: N_19  and  C_20
REMARK                            x       y       z     vdW  Elec       q    Type
REMARK                         _______ _______ _______ _____ _____    ______ ____
ROOT
ATOM      1  O   UNL     1       0.829   9.795  21.056  0.00  0.00    +0.000 OA
ATOM      2  C   UNL     1       0.733   9.671  19.840  0.00  0.00    +0.000 C 
ATOM      3  N   UNL     1      -0.191  10.296  19.031  0.00  0.00    +0.000 N 
ATOM      4  C   UNL     1      -1.100  11.143  19.597  0.00  0.00    +0.000 A 
ATOM      5  N   UNL     1      -1.113  11.614  20.813  0.00  0.00    +0.000 NA
ATOM      6  C   UNL     1      -2.248  12.392  21.001  0.00  0.00    +0.000 A 
ATOM      7  N   UNL     1      -3.092  12.534  19.967  0.00  0.00    +0.000 NA
ATOM      8  S   UNL     1      -2.428  11.680  18.680  0.00  0.00    +0.000 S 
ATOM      9  H   UNL     1      -0.243  10.044  18.054  0.00  0.00    +0.000 HD
ENDROOT
BRANCH   6  10
ATOM     10  C   UNL     1      -2.456  13.013  22.314  0.00  0.00    +0.000 A 
ATOM     11  C   UNL     1      -1.478  13.886  22.832  0.00  0.00    +0.000 A 
ATOM     12  C   UNL     1      -1.646  14.497  24.076  0.00  0.00    +0.000 A 
ATOM     13  C   UNL     1      -2.788  14.233  24.814  0.00  0.00    +0.000 A 
ATOM     14  F   UNL     1      -2.952  14.813  26.010  0.00  0.00    +0.000 F 
ATOM     15  C   UNL     1      -3.766  13.370  24.330  0.00  0.00    +0.000 A 
ATOM     16  C   UNL     1      -3.602  12.762  23.080  0.00  0.00    +0.000 A 
ENDBRANCH   6  10
BRANCH   2  17
ATOM     17  C   UNL     1       1.626   8.740  19.135  0.00  0.00    +0.000 A 
ATOM     18  C   UNL     1       2.251   9.036  17.907  0.00  0.00    +0.000 A 
ATOM     19  C   UNL     1       2.956   7.913  17.578  0.00  0.00    +0.000 A 
ATOM     20  N   UNL     1       2.730   6.980  18.564  0.00  0.00    +0.000 N 
ATOM     21  N   UNL     1       1.949   7.504  19.568  0.00  0.00    +0.000 NA
BRANCH  20  22
ATOM     22  C   UNL     1       3.185   5.632  18.605  0.00  0.00    +0.000 A 
ATOM     23  C   UNL     1       4.403   5.326  19.232  0.00  0.00    +0.000 A 
ATOM     24  C   UNL     1       4.844   3.998  19.306  0.00  0.00    +0.000 A 
ATOM     25  C   UNL     1       4.083   2.969  18.754  0.00  0.00    +0.000 A 
ATOM     26  C   UNL     1       2.877   3.266  18.127  0.00  0.00    +0.000 A 
ATOM     27  C   UNL     1       2.434   4.586  18.054  0.00  0.00    +0.000 A 
ATOM     28  F   UNL     1       1.269   4.791  17.426  0.00  0.00    +0.000 F 
ENDBRANCH  20  22
ENDBRANCH   2  17
TORSDOF 3
ENDMDL
MODEL 8
REMARK VINA RESULT:      -7.9      2.172      2.623
REMARK  Name = 
REMARK  3 active torsions:
REMARK  status: ('A' for Active; 'I' for Inactive)
REMARK    1  A    between atoms: C_2  and  C_16
REMARK    2  A    between atoms: C_6  and  C_7
REMARK    3  A    between atoms: N_19  and  C_20
REMARK                            x       y       z     vdW  Elec       q    Type
REMARK                         _______ _______ _______ _____ _____    ______ ____
ROOT
ATOM      1  O   UNL     1       1.833   9.327  17.326  0.00  0.00    +0.000 OA
ATOM      2  C   UNL     1       1.242   9.341  18.401  0.00  0.00    +0.000 C 
ATOM      3  N   UNL     1       1.392   8.426  19.420  0.00  0.00    +0.000 N 
ATOM      4  C   UNL     1       2.271   7.394  19.259  0.00  0.00    +0.000 A 
ATOM      5  N   UNL     1       3.166   7.237  18.323  0.00  0.00    +0.000 NA
ATOM      6  C   UNL     1       3.810   6.018  18.491  0.00  0.00    +0.000 A 
ATOM      7  N   UNL     1       3.441   5.249  19.528  0.00  0.00    +0.000 NA
ATOM      8  S   UNL     1       2.248   6.095  20.357  0.00  0.00    +0.000 S 
ATOM      9  H   UNL     1       0.781   8.477  20.223  0.00  0.00    +0.000 HD
ENDROOT
BRANCH   6  10
ATOM     10  C   UNL     1       4.855   5.646  17.531  0.00  0.00    +0.000 A 
ATOM     11  C   UNL     1       4.603   4.627  16.591  0.00  0.00    +0.000 A 
ATOM     12  C   UNL     1       5.574   4.251  15.660  0.00  0.00    +0.000 A 
ATOM     13  C   UNL     1       6.805   4.885  15.669  0.00  0.00    +0.000 A 
ATOM     14  F   UNL     1       7.741   4.525  14.782  0.00  0.00    +0.000 F 
ATOM     15  C   UNL     1       7.084   5.889  16.591  0.00  0.00    +0.000 A 
ATOM     16  C   UNL     1       6.109   6.271  17.520  0.00  0.00    +0.000 A 
ENDBRANCH   6  10
BRANCH   2  17
ATOM     17  C   UNL     1       0.231  10.376  18.657  0.00  0.00    +0.000 A 
ATOM     18  C   UNL     1       0.468  11.522  19.443  0.00  0.00    +0.000 A 
ATOM     19  C   UNL     1      -0.718  12.201  19.461  0.00  0.00    +0.000 A 
ATOM     20  N   UNL     1      -1.627  11.466  18.735  0.00  0.00    +0.000 N 
ATOM     21  N   UNL     1      -1.032  10.356  18.182  0.00  0.00    +0.000 NA
BRANCH  20  22
ATOM     22  C   UNL     1      -3.013  11.733  18.552  0.00  0.00    +0.000 A 
ATOM     23  C   UNL     1      -3.762  12.282  19.604  0.00  0.00    +0.000 A 
ATOM     24  C   UNL     1      -5.119  12.578  19.423  0.00  0.00    +0.000 A 
ATOM     25  C   UNL     1      -5.741  12.326  18.202  0.00  0.00    +0.000 A 
ATOM     26  C   UNL     1      -5.005  11.777  17.156  0.00  0.00    +0.000 A 
ATOM     27  C   UNL     1      -3.654  11.484  17.332  0.00  0.00    +0.000 A 
ATOM     28  F   UNL     1      -3.018  10.949  16.281  0.00  0.00    +0.000 F 
ENDBRANCH  20  22
ENDBRANCH   2  17
TORSDOF 3
ENDMDL
MODEL 9
REMARK VINA RESULT:      -7.9      1.978      2.912
REMARK  Name = 
REMARK  3 active torsions:
REMARK  status: ('A' for Active; 'I' for Inactive)
REMARK    1  A    between atoms: C_2  and  C_16
REMARK    2  A    between atoms: C_6  and  C_7
REMARK    3  A    between atoms: N_19  and  C_20
REMARK                            x       y       z     vdW  Elec       q    Type
REMARK                         _______ _______ _______ _____ _____    ______ ____
ROOT
ATOM      1  O   UNL     1       3.019   7.808  17.496  0.00  0.00    +0.000 OA
ATOM      2  C   UNL     1       2.624   7.332  18.556  0.00  0.00    +0.000 C 
ATOM      3  N   UNL     1       2.819   6.036  18.984  0.00  0.00    +0.000 N 
ATOM      4  C   UNL     1       3.512   5.172  18.186  0.00  0.00    +0.000 A 
ATOM      5  N   UNL     1       4.208   5.446  17.117  0.00  0.00    +0.000 NA
ATOM      6  C   UNL     1       4.702   4.269  16.567  0.00  0.00    +0.000 A 
ATOM      7  N   UNL     1       4.411   3.115  17.187  0.00  0.00    +0.000 NA
ATOM      8  S   UNL     1       3.499   3.509  18.543  0.00  0.00    +0.000 S 
ATOM      9  H   UNL     1       2.364   5.722  19.830  0.00  0.00    +0.000 HD
ENDROOT
BRANCH   6  10
ATOM     10  C   UNL     1       5.511   4.359  15.347  0.00  0.00    +0.000 A 
ATOM     11  C   UNL     1       5.112   3.651  14.195  0.00  0.00    +0.000 A 
ATOM     12  C   UNL     1       5.857   3.717  13.016  0.00  0.00    +0.000 A 
ATOM     13  C   UNL     1       7.009   4.486  12.983  0.00  0.00    +0.000 A 
ATOM     14  F   UNL     1       7.729   4.549  11.856  0.00  0.00    +0.000 F 
ATOM     15  C   UNL     1       7.430   5.189  14.107  0.00  0.00    +0.000 A 
ATOM     16  C   UNL     1       6.681   5.128  15.288  0.00  0.00    +0.000 A 
ENDBRANCH   6  10
BRANCH   2  17
ATOM     17  C   UNL     1       1.818   8.158  19.465  0.00  0.00    +0.000 A 
ATOM     18  C   UNL     1       1.582   7.829  20.816  0.00  0.00    +0.000 A 
ATOM     19  C   UNL     1       0.772   8.820  21.294  0.00  0.00    +0.000 A 
ATOM     20  N   UNL     1       0.517   9.684  20.254  0.00  0.00    +0.000 N 
ATOM     21  N   UNL     1       1.210   9.312  19.125  0.00  0.00    +0.000 NA
BRANCH  20  22
ATOM     22  C   UNL     1      -0.347  10.815  20.254  0.00  0.00    +0.000 A 
ATOM     23  C   UNL     1      -0.215  11.793  21.252  0.00  0.00    +0.000 A 
ATOM     24  C   UNL     1      -1.040  12.925  21.243  0.00  0.00    +0.000 A 
ATOM     25  C   UNL     1      -2.003  13.090  20.249  0.00  0.00    +0.000 A 
ATOM     26  C   UNL     1      -2.143  12.121  19.260  0.00  0.00    +0.000 A 
ATOM     27  C   UNL     1      -1.322  10.995  19.265  0.00  0.00    +0.000 A 
ATOM     28  F   UNL     1      -1.525  10.104  18.285  0.00  0.00    +0.000 F 
ENDBRANCH  20  22
ENDBRANCH   2  17
TORSDOF 3
ENDMDL
