MODEL 1
REMARK VINA RESULT:      -8.9      0.000      0.000
REMARK  Name = 
REMARK  7 active torsions:
REMARK  status: ('A' for Active; 'I' for Inactive)
REMARK    1  A    between atoms: C_1  and  C_2
REMARK    2  A    between atoms: C_5  and  N_6
REMARK    3  A    between atoms: C_7  and  C_9
REMARK    4  A    between atoms: C_9  and  N_10
REMARK    5  A    between atoms: C_9  and  C_21
REMARK    6  A    between atoms: N_10  and  C_11
REMARK    7  A    between atoms: C_11  and  C_12
REMARK                            x       y       z     vdW  Elec       q    Type
REMARK                         _______ _______ _______ _____ _____    ______ ____
ROOT
ATOM      1  C   UNL     1       2.796   6.049  20.302  0.00  0.00    +0.000 C 
ENDROOT
BRANCH   1   2
ATOM      2  C   UNL     1       2.006   4.859  19.735  0.00  0.00    +0.000 A 
ATOM      3  C   UNL     1       1.901   4.628  18.351  0.00  0.00    +0.000 A 
ATOM      4  C   UNL     1       1.231   3.503  17.855  0.00  0.00    +0.000 A 
ATOM      5  C   UNL     1       0.660   2.582  18.730  0.00  0.00    +0.000 A 
ATOM      6  C   UNL     1       0.746   2.793  20.101  0.00  0.00    +0.000 A 
ATOM      7  C   UNL     1       1.415   3.915  20.598  0.00  0.00    +0.000 A 
ENDBRANCH   1   2
BRANCH   1   9
ATOM      8  N   UNL     1       1.261   7.703  21.330  0.00  0.00    +0.000 N 
ATOM      9  C   UNL     1       1.973   7.361  20.183  0.00  0.00    +0.000 C 
ATOM     10  O   UNL     1       2.059   8.041  19.163  0.00  0.00    +0.000 OA
ATOM     11  H   UNL     1       1.365   7.113  22.149  0.00  0.00    +0.000 HD
BRANCH   8  16
ATOM     12  C   UNL     1      -1.921  12.432  21.937  0.00  0.00    +0.000 C 
ATOM     13  C   UNL     1      -1.042  11.229  21.775  0.00  0.00    +0.000 A 
ATOM     14  C   UNL     1      -0.613  10.529  22.901  0.00  0.00    +0.000 A 
ATOM     15  C   UNL     1       0.178   9.390  22.766  0.00  0.00    +0.000 A 
ATOM     16  C   UNL     1       0.542   8.908  21.507  0.00  0.00    +0.000 A 
ATOM     17  C   UNL     1       0.154   9.636  20.376  0.00  0.00    +0.000 A 
ATOM     18  C   UNL     1      -0.638  10.786  20.509  0.00  0.00    +0.000 A 
ENDBRANCH   8  16
ENDBRANCH   1   9
BRANCH   1  19
ATOM     19  N   UNL     1       4.080   6.268  19.583  0.00  0.00    +0.000 NA
ATOM     20  H   UNL     1       4.600   6.958  20.134  0.00  0.00    +0.000 HD
BRANCH  19  21
ATOM     21  C   UNL     1       4.905   5.059  19.489  0.00  0.00    +0.000 C 
BRANCH  21  22
ATOM     22  C   UNL     1       5.720   5.096  18.216  0.00  0.00    +0.000 A 
ATOM     23  C   UNL     1       6.701   6.100  18.023  0.00  0.00    +0.000 A 
ATOM     24  C   UNL     1       7.367   6.227  16.799  0.00  0.00    +0.000 A 
ATOM     25  C   UNL     1       7.026   5.353  15.792  0.00  0.00    +0.000 A 
ATOM     26  C   UNL     1       6.097   4.357  15.980  0.00  0.00    +0.000 A 
ATOM     27  C   UNL     1       5.436   4.195  17.178  0.00  0.00    +0.000 A 
ATOM     28  O   UNL     1       5.899   3.613  14.860  0.00  0.00    +0.000 OA
ATOM     29  C   UNL     1       6.728   4.323  13.918  0.00  0.00    +0.000 C 
ATOM     30  O   UNL     1       7.519   5.367  14.524  0.00  0.00    +0.000 OA
ENDBRANCH  21  22
ENDBRANCH  19  21
ENDBRANCH   1  19
TORSDOF 6
ENDMDL
MODEL 2
REMARK VINA RESULT:      -8.8      0.825      1.863
REMARK  Name = 
REMARK  7 active torsions:
REMARK  status: ('A' for Active; 'I' for Inactive)
REMARK    1  A    between atoms: C_1  and  C_2
REMARK    2  A    between atoms: C_5  and  N_6
REMARK    3  A    between atoms: C_7  and  C_9
REMARK    4  A    between atoms: C_9  and  N_10
REMARK    5  A    between atoms: C_9  and  C_21
REMARK    6  A    between atoms: N_10  and  C_11
REMARK    7  A    between atoms: C_11  and  C_12
REMARK                            x       y       z     vdW  Elec       q    Type
REMARK                         _______ _______ _______ _____ _____    ______ ____
ROOT
ATOM      1  C   UNL     1       3.030   6.250  19.935  0.00  0.00    +0.000 C 
ENDROOT
BRANCH   1   2
ATOM      2  C   UNL     1       2.257   4.931  19.779  0.00  0.00    +0.000 A 
ATOM      3  C   UNL     1       1.969   4.103  20.880  0.00  0.00    +0.000 A 
ATOM      4  C   UNL     1       1.208   2.938  20.728  0.00  0.00    +0.000 A 
ATOM      5  C   UNL     1       0.711   2.581  19.478  0.00  0.00    +0.000 A 
ATOM      6  C   UNL     1       0.987   3.380  18.375  0.00  0.00    +0.000 A 
ATOM      7  C   UNL     1       1.747   4.544  18.524  0.00  0.00    +0.000 A 
ENDBRANCH   1   2
BRANCH   1   9
ATOM      8  N   UNL     1       1.647   7.822  21.264  0.00  0.00    +0.000 N 
ATOM      9  C   UNL     1       2.053   7.457  19.982  0.00  0.00    +0.000 C 
ATOM     10  O   UNL     1       1.773   8.052  18.944  0.00  0.00    +0.000 OA
ATOM     11  H   UNL     1       2.042   7.318  22.051  0.00  0.00    +0.000 HD
BRANCH   8  16
ATOM     12  C   UNL     1      -1.334  12.482  22.766  0.00  0.00    +0.000 C 
ATOM     13  C   UNL     1      -0.601  11.245  22.345  0.00  0.00    +0.000 A 
ATOM     14  C   UNL     1       0.224  11.277  21.222  0.00  0.00    +0.000 A 
ATOM     15  C   UNL     1       0.937  10.144  20.836  0.00  0.00    +0.000 A 
ATOM     16  C   UNL     1       0.863   8.959  21.571  0.00  0.00    +0.000 A 
ATOM     17  C   UNL     1      -0.002   8.908  22.670  0.00  0.00    +0.000 A 
ATOM     18  C   UNL     1      -0.725  10.046  23.058  0.00  0.00    +0.000 A 
ENDBRANCH   8  16
ENDBRANCH   1   9
BRANCH   1  19
ATOM     19  N   UNL     1       3.971   6.490  18.808  0.00  0.00    +0.000 NA
ATOM     20  H   UNL     1       4.383   7.413  18.972  0.00  0.00    +0.000 HD
BRANCH  19  21
ATOM     21  C   UNL     1       5.067   5.517  18.751  0.00  0.00    +0.000 C 
BRANCH  21  22
ATOM     22  C   UNL     1       5.320   5.115  17.316  0.00  0.00    +0.000 A 
ATOM     23  C   UNL     1       4.568   4.072  16.722  0.00  0.00    +0.000 A 
ATOM     24  C   UNL     1       4.880   3.600  15.442  0.00  0.00    +0.000 A 
ATOM     25  C   UNL     1       5.947   4.178  14.791  0.00  0.00    +0.000 A 
ATOM     26  C   UNL     1       6.664   5.210  15.349  0.00  0.00    +0.000 A 
ATOM     27  C   UNL     1       6.371   5.708  16.599  0.00  0.00    +0.000 A 
ATOM     28  O   UNL     1       7.682   5.628  14.549  0.00  0.00    +0.000 OA
ATOM     29  C   UNL     1       7.589   4.668  13.478  0.00  0.00    +0.000 C 
ATOM     30  O   UNL     1       6.435   3.807  13.577  0.00  0.00    +0.000 OA
ENDBRANCH  21  22
ENDBRANCH  19  21
ENDBRANCH   1  19
TORSDOF 6
ENDMDL
MODEL 3
REMARK VINA RESULT:      -8.5      1.966      2.673
REMARK  Name = 
REMARK  7 active torsions:
REMARK  status: ('A' for Active; 'I' for Inactive)
REMARK    1  A    between atoms: C_1  and  C_2
REMARK    2  A    between atoms: C_5  and  N_6
REMARK    3  A    between atoms: C_7  and  C_9
REMARK    4  A    between atoms: C_9  and  N_10
REMARK    5  A    between atoms: C_9  and  C_21
REMARK    6  A    between atoms: N_10  and  C_11
REMARK    7  A    between atoms: C_11  and  C_12
REMARK                            x       y       z     vdW  Elec       q    Type
REMARK                         _______ _______ _______ _____ _____    ______ ____
ROOT
ATOM      1  C   UNL     1       3.259   5.478  18.804  0.00  0.00    +0.000 C 
ENDROOT
BRANCH   1   2
ATOM      2  C   UNL     1       2.604   4.388  19.665  0.00  0.00    +0.000 A 
ATOM      3  C   UNL     1       3.295   3.751  20.712  0.00  0.00    +0.000 A 
ATOM      4  C   UNL     1       2.662   2.805  21.527  0.00  0.00    +0.000 A 
ATOM      5  C   UNL     1       1.323   2.483  21.320  0.00  0.00    +0.000 A 
ATOM      6  C   UNL     1       0.621   3.094  20.287  0.00  0.00    +0.000 A 
ATOM      7  C   UNL     1       1.252   4.039  19.473  0.00  0.00    +0.000 A 
ENDBRANCH   1   2
BRANCH   1   9
ATOM      8  N   UNL     1       2.082   7.149  20.209  0.00  0.00    +0.000 N 
ATOM      9  C   UNL     1       2.471   6.812  18.914  0.00  0.00    +0.000 C 
ATOM     10  O   UNL     1       2.314   7.510  17.914  0.00  0.00    +0.000 OA
ATOM     11  H   UNL     1       2.373   6.541  20.967  0.00  0.00    +0.000 HD
BRANCH   8  16
ATOM     12  C   UNL     1      -0.701  11.966  21.589  0.00  0.00    +0.000 C 
ATOM     13  C   UNL     1       0.077  10.737  21.227  0.00  0.00    +0.000 A 
ATOM     14  C   UNL     1       0.502   9.867  22.229  0.00  0.00    +0.000 A 
ATOM     15  C   UNL     1       1.197   8.703  21.906  0.00  0.00    +0.000 A 
ATOM     16  C   UNL     1       1.466   8.367  20.578  0.00  0.00    +0.000 A 
ATOM     17  C   UNL     1       1.084   9.263  19.572  0.00  0.00    +0.000 A 
ATOM     18  C   UNL     1       0.388  10.438  19.895  0.00  0.00    +0.000 A 
ENDBRANCH   8  16
ENDBRANCH   1   9
BRANCH   1  19
ATOM     19  N   UNL     1       3.302   5.111  17.364  0.00  0.00    +0.000 NA
ATOM     20  H   UNL     1       3.272   5.993  16.843  0.00  0.00    +0.000 HD
BRANCH  19  21
ATOM     21  C   UNL     1       4.533   4.411  16.980  0.00  0.00    +0.000 C 
BRANCH  21  22
ATOM     22  C   UNL     1       5.735   5.226  17.400  0.00  0.00    +0.000 A 
ATOM     23  C   UNL     1       6.632   4.728  18.377  0.00  0.00    +0.000 A 
ATOM     24  C   UNL     1       7.670   5.525  18.872  0.00  0.00    +0.000 A 
ATOM     25  C   UNL     1       7.779   6.808  18.385  0.00  0.00    +0.000 A 
ATOM     26  C   UNL     1       6.931   7.289  17.415  0.00  0.00    +0.000 A 
ATOM     27  C   UNL     1       5.910   6.524  16.896  0.00  0.00    +0.000 A 
ATOM     28  O   UNL     1       7.201   8.580  17.082  0.00  0.00    +0.000 OA
ATOM     29  C   UNL     1       8.243   8.886  18.031  0.00  0.00    +0.000 C 
ATOM     30  O   UNL     1       8.680   7.742  18.793  0.00  0.00    +0.000 OA
ENDBRANCH  21  22
ENDBRANCH  19  21
ENDBRANCH   1  19
TORSDOF 6
ENDMDL
MODEL 4
REMARK VINA RESULT:      -8.5      1.573      2.171
REMARK  Name = 
REMARK  7 active torsions:
REMARK  status: ('A' for Active; 'I' for Inactive)
REMARK    1  A    between atoms: C_1  and  C_2
REMARK    2  A    between atoms: C_5  and  N_6
REMARK    3  A    between atoms: C_7  and  C_9
REMARK    4  A    between atoms: C_9  and  N_10
REMARK    5  A    between atoms: C_9  and  C_21
REMARK    6  A    between atoms: N_10  and  C_11
REMARK    7  A    between atoms: C_11  and  C_12
REMARK                            x       y       z     vdW  Elec       q    Type
REMARK                         _______ _______ _______ _____ _____    ______ ____
ROOT
ATOM      1  C   UNL     1       2.445   6.690  19.862  0.00  0.00    +0.000 C 
ENDROOT
BRANCH   1   2
ATOM      2  C   UNL     1       2.000   5.258  20.196  0.00  0.00    +0.000 A 
ATOM      3  C   UNL     1       1.206   4.501  19.314  0.00  0.00    +0.000 A 
ATOM      4  C   UNL     1       0.863   3.176  19.607  0.00  0.00    +0.000 A 
ATOM      5  C   UNL     1       1.313   2.576  20.780  0.00  0.00    +0.000 A 
ATOM      6  C   UNL     1       2.092   3.306  21.670  0.00  0.00    +0.000 A 
ATOM      7  C   UNL     1       2.436   4.630  21.379  0.00  0.00    +0.000 A 
ENDBRANCH   1   2
BRANCH   1   9
ATOM      8  N   UNL     1       1.356   8.914  19.724  0.00  0.00    +0.000 N 
ATOM      9  C   UNL     1       1.447   7.726  20.448  0.00  0.00    +0.000 C 
ATOM     10  O   UNL     1       0.759   7.425  21.420  0.00  0.00    +0.000 OA
ATOM     11  H   UNL     1       1.897   8.994  18.870  0.00  0.00    +0.000 HD
BRANCH   8  16
ATOM     12  C   UNL     1      -2.162  13.335  20.690  0.00  0.00    +0.000 C 
ATOM     13  C   UNL     1      -1.274  12.147  20.475  0.00  0.00    +0.000 A 
ATOM     14  C   UNL     1      -1.500  11.301  19.391  0.00  0.00    +0.000 A 
ATOM     15  C   UNL     1      -0.663  10.211  19.159  0.00  0.00    +0.000 A 
ATOM     16  C   UNL     1       0.431   9.952  19.986  0.00  0.00    +0.000 A 
ATOM     17  C   UNL     1       0.633  10.771  21.103  0.00  0.00    +0.000 A 
ATOM     18  C   UNL     1      -0.211  11.866  21.343  0.00  0.00    +0.000 A 
ENDBRANCH   8  16
ENDBRANCH   1   9
BRANCH   1  19
ATOM     19  N   UNL     1       2.519   6.931  18.396  0.00  0.00    +0.000 NA
ATOM     20  H   UNL     1       1.910   7.734  18.208  0.00  0.00    +0.000 HD
BRANCH  19  21
ATOM     21  C   UNL     1       3.868   7.278  17.933  0.00  0.00    +0.000 C 
BRANCH  21  22
ATOM     22  C   UNL     1       4.385   6.196  17.014  0.00  0.00    +0.000 A 
ATOM     23  C   UNL     1       4.140   4.831  17.304  0.00  0.00    +0.000 A 
ATOM     24  C   UNL     1       4.724   3.816  16.538  0.00  0.00    +0.000 A 
ATOM     25  C   UNL     1       5.552   4.193  15.505  0.00  0.00    +0.000 A 
ATOM     26  C   UNL     1       5.774   5.515  15.198  0.00  0.00    +0.000 A 
ATOM     27  C   UNL     1       5.200   6.537  15.923  0.00  0.00    +0.000 A 
ATOM     28  O   UNL     1       6.631   5.670  14.154  0.00  0.00    +0.000 OA
ATOM     29  C   UNL     1       7.005   4.299  13.912  0.00  0.00    +0.000 C 
ATOM     30  O   UNL     1       6.255   3.351  14.700  0.00  0.00    +0.000 OA
ENDBRANCH  21  22
ENDBRANCH  19  21
ENDBRANCH   1  19
TORSDOF 6
ENDMDL
MODEL 5
REMARK VINA RESULT:      -8.5      0.981      1.458
REMARK  Name = 
REMARK  7 active torsions:
REMARK  status: ('A' for Active; 'I' for Inactive)
REMARK    1  A    between atoms: C_1  and  C_2
REMARK    2  A    between atoms: C_5  and  N_6
REMARK    3  A    between atoms: C_7  and  C_9
REMARK    4  A    between atoms: C_9  and  N_10
REMARK    5  A    between atoms: C_9  and  C_21
REMARK    6  A    between atoms: N_10  and  C_11
REMARK    7  A    between atoms: C_11  and  C_12
REMARK                            x       y       z     vdW  Elec       q    Type
REMARK                         _______ _______ _______ _____ _____    ______ ____
ROOT
ATOM      1  C   UNL     1       2.961   6.296  19.846  0.00  0.00    +0.000 C 
ENDROOT
BRANCH   1   2
ATOM      2  C   UNL     1       2.230   5.030  20.321  0.00  0.00    +0.000 A 
ATOM      3  C   UNL     1       1.162   4.471  19.595  0.00  0.00    +0.000 A 
ATOM      4  C   UNL     1       0.551   3.282  20.010  0.00  0.00    +0.000 A 
ATOM      5  C   UNL     1       0.998   2.622  21.151  0.00  0.00    +0.000 A 
ATOM      6  C   UNL     1       2.048   3.159  21.888  0.00  0.00    +0.000 A 
ATOM      7  C   UNL     1       2.660   4.346  21.476  0.00  0.00    +0.000 A 
ENDBRANCH   1   2
BRANCH   1   9
ATOM      8  N   UNL     1       1.534   7.804  21.201  0.00  0.00    +0.000 N 
ATOM      9  C   UNL     1       2.025   7.533  19.925  0.00  0.00    +0.000 C 
ATOM     10  O   UNL     1       1.845   8.224  18.925  0.00  0.00    +0.000 OA
ATOM     11  H   UNL     1       1.850   7.221  21.968  0.00  0.00    +0.000 HD
BRANCH   8  16
ATOM     12  C   UNL     1      -1.355  12.477  22.841  0.00  0.00    +0.000 C 
ATOM     13  C   UNL     1      -0.649  11.234  22.388  0.00  0.00    +0.000 A 
ATOM     14  C   UNL     1       0.071  11.243  21.194  0.00  0.00    +0.000 A 
ATOM     15  C   UNL     1       0.759  10.107  20.776  0.00  0.00    +0.000 A 
ATOM     16  C   UNL     1       0.767   8.942  21.547  0.00  0.00    +0.000 A 
ATOM     17  C   UNL     1       0.006   8.914  22.721  0.00  0.00    +0.000 A 
ATOM     18  C   UNL     1      -0.692  10.055  23.143  0.00  0.00    +0.000 A 
ENDBRANCH   8  16
ENDBRANCH   1   9
BRANCH   1  19
ATOM     19  N   UNL     1       3.423   6.185  18.436  0.00  0.00    +0.000 NA
ATOM     20  H   UNL     1       4.256   6.778  18.362  0.00  0.00    +0.000 HD
BRANCH  19  21
ATOM     21  C   UNL     1       3.813   4.822  18.060  0.00  0.00    +0.000 C 
BRANCH  21  22
ATOM     22  C   UNL     1       4.983   4.871  17.103  0.00  0.00    +0.000 A 
ATOM     23  C   UNL     1       6.104   5.691  17.385  0.00  0.00    +0.000 A 
ATOM     24  C   UNL     1       7.131   5.850  16.449  0.00  0.00    +0.000 A 
ATOM     25  C   UNL     1       7.005   5.194  15.245  0.00  0.00    +0.000 A 
ATOM     26  C   UNL     1       5.935   4.375  14.974  0.00  0.00    +0.000 A 
ATOM     27  C   UNL     1       4.916   4.184  15.882  0.00  0.00    +0.000 A 
ATOM     28  O   UNL     1       5.996   3.834  13.728  0.00  0.00    +0.000 OA
ATOM     29  C   UNL     1       7.169   4.493  13.210  0.00  0.00    +0.000 C 
ATOM     30  O   UNL     1       7.867   5.282  14.196  0.00  0.00    +0.000 OA
ENDBRANCH  21  22
ENDBRANCH  19  21
ENDBRANCH   1  19
TORSDOF 6
ENDMDL
MODEL 6
REMARK VINA RESULT:      -8.5      0.899      1.539
REMARK  Name = 
REMARK  7 active torsions:
REMARK  status: ('A' for Active; 'I' for Inactive)
REMARK    1  A    between atoms: C_1  and  C_2
REMARK    2  A    between atoms: C_5  and  N_6
REMARK    3  A    between atoms: C_7  and  C_9
REMARK    4  A    between atoms: C_9  and  N_10
REMARK    5  A    between atoms: C_9  and  C_21
REMARK    6  A    between atoms: N_10  and  C_11
REMARK    7  A    between atoms: C_11  and  C_12
REMARK                            x       y       z     vdW  Elec       q    Type
REMARK                         _______ _______ _______ _____ _____    ______ ____
ROOT
ATOM      1  C   UNL     1       3.301   6.039  19.646  0.00  0.00    +0.000 C 
ENDROOT
BRANCH   1   2
ATOM      2  C   UNL     1       2.525   4.723  19.484  0.00  0.00    +0.000 A 
ATOM      3  C   UNL     1       1.757   4.448  18.338  0.00  0.00    +0.000 A 
ATOM      4  C   UNL     1       1.109   3.217  18.180  0.00  0.00    +0.000 A 
ATOM      5  C   UNL     1       1.222   2.232  19.157  0.00  0.00    +0.000 A 
ATOM      6  C   UNL     1       1.970   2.483  20.302  0.00  0.00    +0.000 A 
ATOM      7  C   UNL     1       2.618   3.712  20.461  0.00  0.00    +0.000 A 
ENDBRANCH   1   2
BRANCH   1   9
ATOM      8  N   UNL     1       1.834   7.520  20.989  0.00  0.00    +0.000 N 
ATOM      9  C   UNL     1       2.325   7.246  19.714  0.00  0.00    +0.000 C 
ATOM     10  O   UNL     1       2.117   7.917  18.706  0.00  0.00    +0.000 OA
ATOM     11  H   UNL     1       2.174   6.958  21.762  0.00  0.00    +0.000 HD
BRANCH   8  16
ATOM     12  C   UNL     1      -1.675  11.873  22.255  0.00  0.00    +0.000 C 
ATOM     13  C   UNL     1      -0.714  10.773  21.918  0.00  0.00    +0.000 A 
ATOM     14  C   UNL     1      -0.102  10.051  22.941  0.00  0.00    +0.000 A 
ATOM     15  C   UNL     1       0.768   9.004  22.644  0.00  0.00    +0.000 A 
ATOM     16  C   UNL     1       1.033   8.637  21.324  0.00  0.00    +0.000 A 
ATOM     17  C   UNL     1       0.459   9.392  20.293  0.00  0.00    +0.000 A 
ATOM     18  C   UNL     1      -0.414  10.449  20.589  0.00  0.00    +0.000 A 
ENDBRANCH   8  16
ENDBRANCH   1   9
BRANCH   1  19
ATOM     19  N   UNL     1       4.231   6.290  18.512  0.00  0.00    +0.000 NA
ATOM     20  H   UNL     1       4.688   7.184  18.711  0.00  0.00    +0.000 HD
BRANCH  19  21
ATOM     21  C   UNL     1       5.280   5.271  18.387  0.00  0.00    +0.000 C 
BRANCH  21  22
ATOM     22  C   UNL     1       5.511   4.954  16.927  0.00  0.00    +0.000 A 
ATOM     23  C   UNL     1       4.743   3.955  16.281  0.00  0.00    +0.000 A 
ATOM     24  C   UNL     1       5.036   3.558  14.972  0.00  0.00    +0.000 A 
ATOM     25  C   UNL     1       6.101   4.163  14.344  0.00  0.00    +0.000 A 
ATOM     26  C   UNL     1       6.835   5.154  14.953  0.00  0.00    +0.000 A 
ATOM     27  C   UNL     1       6.560   5.579  16.235  0.00  0.00    +0.000 A 
ATOM     28  O   UNL     1       7.847   5.609  14.168  0.00  0.00    +0.000 OA
ATOM     29  C   UNL     1       7.732   4.716  13.042  0.00  0.00    +0.000 C 
ATOM     30  O   UNL     1       6.571   3.861  13.104  0.00  0.00    +0.000 OA
ENDBRANCH  21  22
ENDBRANCH  19  21
ENDBRANCH   1  19
TORSDOF 6
ENDMDL
MODEL 7
REMARK VINA RESULT:      -8.5      2.696      3.168
REMARK  Name = 
REMARK  7 active torsions:
REMARK  status: ('A' for Active; 'I' for Inactive)
REMARK    1  A    between atoms: C_1  and  C_2
REMARK    2  A    between atoms: C_5  and  N_6
REMARK    3  A    between atoms: C_7  and  C_9
REMARK    4  A    between atoms: C_9  and  N_10
REMARK    5  A    between atoms: C_9  and  C_21
REMARK    6  A    between atoms: N_10  and  C_11
REMARK    7  A    between atoms: C_11  and  C_12
REMARK                            x       y       z     vdW  Elec       q    Type
REMARK                         _______ _______ _______ _____ _____    ______ ____
ROOT
ATOM      1  C   UNL     1       3.012   6.015  19.074  0.00  0.00    +0.000 C 
ENDROOT
BRANCH   1   2
ATOM      2  C   UNL     1       2.320   4.846  19.793  0.00  0.00    +0.000 A 
ATOM      3  C   UNL     1       1.331   4.067  19.164  0.00  0.00    +0.000 A 
ATOM      4  C   UNL     1       0.757   2.967  19.812  0.00  0.00    +0.000 A 
ATOM      5  C   UNL     1       1.165   2.616  21.096  0.00  0.00    +0.000 A 
ATOM      6  C   UNL     1       2.135   3.375  21.740  0.00  0.00    +0.000 A 
ATOM      7  C   UNL     1       2.710   4.474  21.095  0.00  0.00    +0.000 A 
ENDBRANCH   1   2
BRANCH   1   9
ATOM      8  N   UNL     1       2.221   8.234  18.299  0.00  0.00    +0.000 N 
ATOM      9  C   UNL     1       2.285   7.354  19.378  0.00  0.00    +0.000 C 
ATOM     10  O   UNL     1       1.755   7.522  20.474  0.00  0.00    +0.000 OA
ATOM     11  H   UNL     1       2.601   7.927  17.411  0.00  0.00    +0.000 HD
BRANCH   8  16
ATOM     12  C   UNL     1      -0.777  13.111  18.580  0.00  0.00    +0.000 C 
ATOM     13  C   UNL     1       0.005  11.840  18.448  0.00  0.00    +0.000 A 
ATOM     14  C   UNL     1       1.396  11.872  18.518  0.00  0.00    +0.000 A 
ATOM     15  C   UNL     1       2.135  10.694  18.430  0.00  0.00    +0.000 A 
ATOM     16  C   UNL     1       1.507   9.455  18.294  0.00  0.00    +0.000 A 
ATOM     17  C   UNL     1       0.113   9.423  18.174  0.00  0.00    +0.000 A 
ATOM     18  C   UNL     1      -0.634  10.608  18.257  0.00  0.00    +0.000 A 
ENDBRANCH   8  16
ENDBRANCH   1   9
BRANCH   1  19
ATOM     19  N   UNL     1       3.019   5.845  17.597  0.00  0.00    +0.000 NA
ATOM     20  H   UNL     1       3.140   6.782  17.202  0.00  0.00    +0.000 HD
BRANCH  19  21
ATOM     21  C   UNL     1       4.128   5.013  17.115  0.00  0.00    +0.000 C 
BRANCH  21  22
ATOM     22  C   UNL     1       5.446   5.648  17.497  0.00  0.00    +0.000 A 
ATOM     23  C   UNL     1       6.319   4.996  18.401  0.00  0.00    +0.000 A 
ATOM     24  C   UNL     1       7.476   5.629  18.867  0.00  0.00    +0.000 A 
ATOM     25  C   UNL     1       7.725   6.909  18.424  0.00  0.00    +0.000 A 
ATOM     26  C   UNL     1       6.898   7.539  17.525  0.00  0.00    +0.000 A 
ATOM     27  C   UNL     1       5.761   6.935  17.035  0.00  0.00    +0.000 A 
ATOM     28  O   UNL     1       7.316   8.799  17.228  0.00  0.00    +0.000 OA
ATOM     29  C   UNL     1       8.436   8.926  18.127  0.00  0.00    +0.000 C 
ATOM     30  O   UNL     1       8.759   7.701  18.817  0.00  0.00    +0.000 OA
ENDBRANCH  21  22
ENDBRANCH  19  21
ENDBRANCH   1  19
TORSDOF 6
ENDMDL
MODEL 8
REMARK VINA RESULT:      -8.5      2.011      2.745
REMARK  Name = 
REMARK  7 active torsions:
REMARK  status: ('A' for Active; 'I' for Inactive)
REMARK    1  A    between atoms: C_1  and  C_2
REMARK    2  A    between atoms: C_5  and  N_6
REMARK    3  A    between atoms: C_7  and  C_9
REMARK    4  A    between atoms: C_9  and  N_10
REMARK    5  A    between atoms: C_9  and  C_21
REMARK    6  A    between atoms: N_10  and  C_11
REMARK    7  A    between atoms: C_11  and  C_12
REMARK                            x       y       z     vdW  Elec       q    Type
REMARK                         _______ _______ _______ _____ _____    ______ ____
ROOT
ATOM      1  C   UNL     1       3.145   5.639  18.870  0.00  0.00    +0.000 C 
ENDROOT
BRANCH   1   2
ATOM      2  C   UNL     1       2.516   4.543  19.745  0.00  0.00    +0.000 A 
ATOM      3  C   UNL     1       1.193   4.104  19.549  0.00  0.00    +0.000 A 
ATOM      4  C   UNL     1       0.658   3.061  20.313  0.00  0.00    +0.000 A 
ATOM      5  C   UNL     1       1.433   2.428  21.281  0.00  0.00    +0.000 A 
ATOM      6  C   UNL     1       2.741   2.850  21.497  0.00  0.00    +0.000 A 
ATOM      7  C   UNL     1       3.277   3.891  20.735  0.00  0.00    +0.000 A 
ENDBRANCH   1   2
BRANCH   1   9
ATOM      8  N   UNL     1       1.956   7.319  20.253  0.00  0.00    +0.000 N 
ATOM      9  C   UNL     1       2.322   6.953  18.959  0.00  0.00    +0.000 C 
ATOM     10  O   UNL     1       2.121   7.614  17.943  0.00  0.00    +0.000 OA
ATOM     11  H   UNL     1       2.283   6.744  21.022  0.00  0.00    +0.000 HD
BRANCH   8  16
ATOM     12  C   UNL     1      -0.367  12.324  21.807  0.00  0.00    +0.000 C 
ATOM     13  C   UNL     1       0.186  10.993  21.396  0.00  0.00    +0.000 A 
ATOM     14  C   UNL     1       0.524  10.765  20.063  0.00  0.00    +0.000 A 
ATOM     15  C   UNL     1       1.070   9.545  19.671  0.00  0.00    +0.000 A 
ATOM     16  C   UNL     1       1.315   8.531  20.599  0.00  0.00    +0.000 A 
ATOM     17  C   UNL     1       0.932   8.738  21.930  0.00  0.00    +0.000 A 
ATOM     18  C   UNL     1       0.377   9.965  22.327  0.00  0.00    +0.000 A 
ENDBRANCH   8  16
ENDBRANCH   1   9
BRANCH   1  19
ATOM     19  N   UNL     1       3.202   5.253  17.435  0.00  0.00    +0.000 NA
ATOM     20  H   UNL     1       3.227   6.129  16.905  0.00  0.00    +0.000 HD
BRANCH  19  21
ATOM     21  C   UNL     1       4.406   4.489  17.088  0.00  0.00    +0.000 C 
BRANCH  21  22
ATOM     22  C   UNL     1       5.638   5.278  17.469  0.00  0.00    +0.000 A 
ATOM     23  C   UNL     1       6.556   4.759  18.415  0.00  0.00    +0.000 A 
ATOM     24  C   UNL     1       7.627   5.532  18.877  0.00  0.00    +0.000 A 
ATOM     25  C   UNL     1       7.746   6.814  18.389  0.00  0.00    +0.000 A 
ATOM     26  C   UNL     1       6.877   7.316  17.449  0.00  0.00    +0.000 A 
ATOM     27  C   UNL     1       5.823   6.573  16.962  0.00  0.00    +0.000 A 
ATOM     28  O   UNL     1       7.163   8.601  17.110  0.00  0.00    +0.000 OA
ATOM     29  C   UNL     1       8.242   8.883  18.024  0.00  0.00    +0.000 C 
ATOM     30  O   UNL     1       8.679   7.727  18.769  0.00  0.00    +0.000 OA
ENDBRANCH  21  22
ENDBRANCH  19  21
ENDBRANCH   1  19
TORSDOF 6
ENDMDL
MODEL 9
REMARK VINA RESULT:      -8.5      1.068      1.474
REMARK  Name = 
REMARK  7 active torsions:
REMARK  status: ('A' for Active; 'I' for Inactive)
REMARK    1  A    between atoms: C_1  and  C_2
REMARK    2  A    between atoms: C_5  and  N_6
REMARK    3  A    between atoms: C_7  and  C_9
REMARK    4  A    between atoms: C_9  and  N_10
REMARK    5  A    between atoms: C_9  and  C_21
REMARK    6  A    between atoms: N_10  and  C_11
REMARK    7  A    between atoms: C_11  and  C_12
REMARK                            x       y       z     vdW  Elec       q    Type
REMARK                         _______ _______ _______ _____ _____    ______ ____
ROOT
ATOM      1  C   UNL     1       2.756   6.242  20.127  0.00  0.00    +0.000 C 
ENDROOT
BRANCH   1   2
ATOM      2  C   UNL     1       1.987   5.009  19.626  0.00  0.00    +0.000 A 
ATOM      3  C   UNL     1       1.865   4.715  18.256  0.00  0.00    +0.000 A 
ATOM      4  C   UNL     1       1.216   3.554  17.821  0.00  0.00    +0.000 A 
ATOM      5  C   UNL     1       0.683   2.658  18.744  0.00  0.00    +0.000 A 
ATOM      6  C   UNL     1       0.786   2.931  20.104  0.00  0.00    +0.000 A 
ATOM      7  C   UNL     1       1.434   4.090  20.540  0.00  0.00    +0.000 A 
ENDBRANCH   1   2
BRANCH   1   9
ATOM      8  N   UNL     1       1.291   8.230  20.347  0.00  0.00    +0.000 N 
ATOM      9  C   UNL     1       2.169   7.542  19.512  0.00  0.00    +0.000 C 
ATOM     10  O   UNL     1       2.558   7.923  18.411  0.00  0.00    +0.000 OA
ATOM     11  H   UNL     1       1.139   7.868  21.282  0.00  0.00    +0.000 HD
BRANCH   8  16
ATOM     12  C   UNL     1      -0.688  13.466  19.109  0.00  0.00    +0.000 C 
ATOM     13  C   UNL     1      -0.218  12.088  19.466  0.00  0.00    +0.000 A 
ATOM     14  C   UNL     1      -0.488  11.021  18.612  0.00  0.00    +0.000 A 
ATOM     15  C   UNL     1      -0.030   9.741  18.914  0.00  0.00    +0.000 A 
ATOM     16  C   UNL     1       0.728   9.496  20.061  0.00  0.00    +0.000 A 
ATOM     17  C   UNL     1       0.961  10.556  20.946  0.00  0.00    +0.000 A 
ATOM     18  C   UNL     1       0.496  11.845  20.647  0.00  0.00    +0.000 A 
ENDBRANCH   8  16
ENDBRANCH   1   9
BRANCH   1  19
ATOM     19  N   UNL     1       4.197   6.195  19.761  0.00  0.00    +0.000 NA
ATOM     20  H   UNL     1       4.714   6.475  20.601  0.00  0.00    +0.000 HD
BRANCH  19  21
ATOM     21  C   UNL     1       4.656   4.854  19.383  0.00  0.00    +0.000 C 
BRANCH  21  22
ATOM     22  C   UNL     1       5.546   4.944  18.164  0.00  0.00    +0.000 A 
ATOM     23  C   UNL     1       6.547   5.942  18.081  0.00  0.00    +0.000 A 
ATOM     24  C   UNL     1       7.287   6.122  16.907  0.00  0.00    +0.000 A 
ATOM     25  C   UNL     1       6.996   5.305  15.838  0.00  0.00    +0.000 A 
ATOM     26  C   UNL     1       6.045   4.315  15.918  0.00  0.00    +0.000 A 
ATOM     27  C   UNL     1       5.313   4.102  17.066  0.00  0.00    +0.000 A 
ATOM     28  O   UNL     1       5.905   3.632  14.751  0.00  0.00    +0.000 OA
ATOM     29  C   UNL     1       6.797   4.378  13.898  0.00  0.00    +0.000 C 
ATOM     30  O   UNL     1       7.563   5.378  14.603  0.00  0.00    +0.000 OA
ENDBRANCH  21  22
ENDBRANCH  19  21
ENDBRANCH   1  19
TORSDOF 6
ENDMDL
