MODEL 1
REMARK VINA RESULT:      -8.5      0.000      0.000
REMARK  Name = 
REMARK  6 active torsions:
REMARK  status: ('A' for Active; 'I' for Inactive)
REMARK    1  A    between atoms: C_1  and  O_2
REMARK    2  A    between atoms: O_2  and  C_3
REMARK    3  A    between atoms: C_5  and  N_6
REMARK    4  A    between atoms: C_7  and  C_9
REMARK    5  A    between atoms: C_24  and  N_25
REMARK    6  A    between atoms: C_26  and  C_27
REMARK                            x       y       z     vdW  Elec       q    Type
REMARK                         _______ _______ _______ _____ _____    ______ ____
ROOT
ATOM      1  N   UNL     1       0.424   9.717  18.020  0.00  0.00    +0.000 N 
ATOM      2  C   UNL     1       0.891   9.063  19.162  0.00  0.00    +0.000 C 
ATOM      3  O   UNL     1       0.381   9.219  20.272  0.00  0.00    +0.000 OA
ATOM      4  H   UNL     1       1.057   9.789  17.237  0.00  0.00    +0.000 HD
ENDROOT
BRANCH   2   5
ATOM      5  C   UNL     1       2.016   8.149  19.002  0.00  0.00    +0.000 A 
ATOM      6  C   UNL     1       2.271   7.044  19.801  0.00  0.00    +0.000 A 
ATOM      7  C   UNL     1       3.217   6.149  19.215  0.00  0.00    +0.000 A 
ATOM      8  C   UNL     1       3.700   6.645  18.021  0.00  0.00    +0.000 A 
ATOM      9  S   UNL     1       3.116   8.222  17.705  0.00  0.00    +0.000 S 
ATOM     10  C   UNL     1       4.526   5.868  17.093  0.00  0.00    +0.000 A 
ATOM     11  C   UNL     1       4.929   6.352  15.840  0.00  0.00    +0.000 A 
ATOM     12  C   UNL     1       5.598   5.527  14.936  0.00  0.00    +0.000 A 
ATOM     13  C   UNL     1       5.889   4.211  15.278  0.00  0.00    +0.000 A 
ATOM     14  C   UNL     1       5.522   3.719  16.529  0.00  0.00    +0.000 A 
ATOM     15  C   UNL     1       4.835   4.536  17.445  0.00  0.00    +0.000 A 
ATOM     16  C   UNL     1       4.428   3.936  18.777  0.00  0.00    +0.000 C 
ATOM     17  C   UNL     1       3.562   4.786  19.726  0.00  0.00    +0.000 C 
ENDBRANCH   2   5
BRANCH   1  20
ATOM     18  C   UNL     1      -3.008  10.676  16.849  0.00  0.00    +0.000 A 
ATOM     19  C   UNL     1      -1.730  10.098  16.906  0.00  0.00    +0.000 A 
ATOM     20  C   UNL     1      -0.831  10.374  17.937  0.00  0.00    +0.000 A 
ATOM     21  C   UNL     1      -1.182  11.346  18.869  0.00  0.00    +0.000 A 
ATOM     22  C   UNL     1      -2.453  11.955  18.816  0.00  0.00    +0.000 A 
ATOM     23  C   UNL     1      -3.385  11.615  17.826  0.00  0.00    +0.000 A 
BRANCH  23  24
ATOM     24  N   UNL     1      -4.702  12.149  17.772  0.00  0.00    +0.000 N 
ATOM     25  C   UNL     1      -5.876  11.522  18.153  0.00  0.00    +0.000 C 
ATOM     26  C   UNL     1      -7.115  12.344  17.879  0.00  0.00    +0.000 C 
ATOM     27  O   UNL     1      -5.980  10.416  18.676  0.00  0.00    +0.000 OA
ATOM     28  H   UNL     1      -4.754  13.082  17.382  0.00  0.00    +0.000 HD
ENDBRANCH  23  24
BRANCH  18  30
ATOM     29  C   UNL     1      -3.384  10.209  14.555  0.00  0.00    +0.000 C 
ATOM     30  O   UNL     1      -3.927  10.372  15.869  0.00  0.00    +0.000 OA
ENDBRANCH  18  30
ENDBRANCH   1  20
TORSDOF 4
ENDMDL
MODEL 2
REMARK VINA RESULT:      -8.3      0.882      1.837
REMARK  Name = 
REMARK  6 active torsions:
REMARK  status: ('A' for Active; 'I' for Inactive)
REMARK    1  A    between atoms: C_1  and  O_2
REMARK    2  A    between atoms: O_2  and  C_3
REMARK    3  A    between atoms: C_5  and  N_6
REMARK    4  A    between atoms: C_7  and  C_9
REMARK    5  A    between atoms: C_24  and  N_25
REMARK    6  A    between atoms: C_26  and  C_27
REMARK                            x       y       z     vdW  Elec       q    Type
REMARK                         _______ _______ _______ _____ _____    ______ ____
ROOT
ATOM      1  N   UNL     1       0.093   9.654  17.934  0.00  0.00    +0.000 N 
ATOM      2  C   UNL     1       0.721   9.252  19.114  0.00  0.00    +0.000 C 
ATOM      3  O   UNL     1       0.342   9.617  20.227  0.00  0.00    +0.000 OA
ATOM      4  H   UNL     1       0.624   9.580  17.079  0.00  0.00    +0.000 HD
ENDROOT
BRANCH   2   5
ATOM      5  C   UNL     1       1.858   8.346  18.997  0.00  0.00    +0.000 A 
ATOM      6  C   UNL     1       2.108   7.262  19.826  0.00  0.00    +0.000 A 
ATOM      7  C   UNL     1       3.074   6.364  19.279  0.00  0.00    +0.000 A 
ATOM      8  C   UNL     1       3.575   6.837  18.083  0.00  0.00    +0.000 A 
ATOM      9  S   UNL     1       2.982   8.401  17.719  0.00  0.00    +0.000 S 
ATOM     10  C   UNL     1       4.427   6.047  17.189  0.00  0.00    +0.000 A 
ATOM     11  C   UNL     1       4.849   6.507  15.934  0.00  0.00    +0.000 A 
ATOM     12  C   UNL     1       5.544   5.668  15.061  0.00  0.00    +0.000 A 
ATOM     13  C   UNL     1       5.841   4.364  15.439  0.00  0.00    +0.000 A 
ATOM     14  C   UNL     1       5.454   3.897  16.694  0.00  0.00    +0.000 A 
ATOM     15  C   UNL     1       4.742   4.727  17.578  0.00  0.00    +0.000 A 
ATOM     16  C   UNL     1       4.316   4.154  18.915  0.00  0.00    +0.000 C 
ATOM     17  C   UNL     1       3.422   5.016  19.828  0.00  0.00    +0.000 C 
ENDBRANCH   2   5
BRANCH   1  20
ATOM     18  C   UNL     1      -2.860  11.795  18.809  0.00  0.00    +0.000 A 
ATOM     19  C   UNL     1      -1.628  11.125  18.882  0.00  0.00    +0.000 A 
ATOM     20  C   UNL     1      -1.191  10.257  17.881  0.00  0.00    +0.000 A 
ATOM     21  C   UNL     1      -2.066   9.965  16.840  0.00  0.00    +0.000 A 
ATOM     22  C   UNL     1      -3.317  10.610  16.761  0.00  0.00    +0.000 A 
ATOM     23  C   UNL     1      -3.720  11.545  17.725  0.00  0.00    +0.000 A 
BRANCH  23  24
ATOM     24  N   UNL     1      -4.939  12.272  17.652  0.00  0.00    +0.000 N 
ATOM     25  C   UNL     1      -6.215  11.795  17.897  0.00  0.00    +0.000 C 
ATOM     26  C   UNL     1      -7.301  12.816  17.642  0.00  0.00    +0.000 C 
ATOM     27  O   UNL     1      -6.514  10.672  18.293  0.00  0.00    +0.000 OA
ATOM     28  H   UNL     1      -4.828  13.236  17.362  0.00  0.00    +0.000 HD
ENDBRANCH  23  24
BRANCH  18  30
ATOM     29  C   UNL     1      -2.271  13.135  20.675  0.00  0.00    +0.000 C 
ATOM     30  O   UNL     1      -3.282  12.698  19.762  0.00  0.00    +0.000 OA
ENDBRANCH  18  30
ENDBRANCH   1  20
TORSDOF 4
ENDMDL
MODEL 3
REMARK VINA RESULT:      -8.2      7.853     11.003
REMARK  Name = 
REMARK  6 active torsions:
REMARK  status: ('A' for Active; 'I' for Inactive)
REMARK    1  A    between atoms: C_1  and  O_2
REMARK    2  A    between atoms: O_2  and  C_3
REMARK    3  A    between atoms: C_5  and  N_6
REMARK    4  A    between atoms: C_7  and  C_9
REMARK    5  A    between atoms: C_24  and  N_25
REMARK    6  A    between atoms: C_26  and  C_27
REMARK                            x       y       z     vdW  Elec       q    Type
REMARK                         _______ _______ _______ _____ _____    ______ ____
ROOT
ATOM      1  N   UNL     1       8.742   7.948  18.582  0.00  0.00    +0.000 N 
ATOM      2  C   UNL     1       8.447   9.279  18.282  0.00  0.00    +0.000 C 
ATOM      3  O   UNL     1       7.472   9.608  17.607  0.00  0.00    +0.000 OA
ATOM      4  H   UNL     1       9.689   7.735  18.857  0.00  0.00    +0.000 HD
ENDROOT
BRANCH   2   5
ATOM      5  C   UNL     1       9.337  10.303  18.819  0.00  0.00    +0.000 A 
ATOM      6  C   UNL     1      10.349  10.935  18.113  0.00  0.00    +0.000 A 
ATOM      7  C   UNL     1      10.819  12.116  18.765  0.00  0.00    +0.000 A 
ATOM      8  C   UNL     1      10.192  12.297  19.981  0.00  0.00    +0.000 A 
ATOM      9  S   UNL     1       9.166  10.984  20.371  0.00  0.00    +0.000 S 
ATOM     10  C   UNL     1      10.314  13.517  20.785  0.00  0.00    +0.000 A 
ATOM     11  C   UNL     1       9.596  13.725  21.971  0.00  0.00    +0.000 A 
ATOM     12  C   UNL     1       9.641  14.955  22.628  0.00  0.00    +0.000 A 
ATOM     13  C   UNL     1      10.419  15.989  22.118  0.00  0.00    +0.000 A 
ATOM     14  C   UNL     1      11.162  15.793  20.956  0.00  0.00    +0.000 A 
ATOM     15  C   UNL     1      11.115  14.562  20.276  0.00  0.00    +0.000 A 
ATOM     16  C   UNL     1      11.916  14.418  18.997  0.00  0.00    +0.000 C 
ATOM     17  C   UNL     1      11.762  13.120  18.181  0.00  0.00    +0.000 C 
ENDBRANCH   2   5
BRANCH   1  20
ATOM     18  C   UNL     1       6.388   5.505  16.983  0.00  0.00    +0.000 A 
ATOM     19  C   UNL     1       7.231   6.609  17.186  0.00  0.00    +0.000 A 
ATOM     20  C   UNL     1       7.829   6.874  18.419  0.00  0.00    +0.000 A 
ATOM     21  C   UNL     1       7.476   6.076  19.503  0.00  0.00    +0.000 A 
ATOM     22  C   UNL     1       6.613   4.976  19.323  0.00  0.00    +0.000 A 
ATOM     23  C   UNL     1       6.078   4.663  18.066  0.00  0.00    +0.000 A 
BRANCH  23  24
ATOM     24  N   UNL     1       5.261   3.526  17.820  0.00  0.00    +0.000 N 
ATOM     25  C   UNL     1       3.921   3.376  18.129  0.00  0.00    +0.000 C 
ATOM     26  C   UNL     1       3.378   2.001  17.810  0.00  0.00    +0.000 C 
ATOM     27  O   UNL     1       3.178   4.230  18.605  0.00  0.00    +0.000 OA
ATOM     28  H   UNL     1       5.752   2.749  17.395  0.00  0.00    +0.000 HD
ENDBRANCH  23  24
BRANCH  18  30
ATOM     29  C   UNL     1       6.759   4.726  14.774  0.00  0.00    +0.000 C 
ATOM     30  O   UNL     1       5.834   5.198  15.758  0.00  0.00    +0.000 OA
ENDBRANCH  18  30
ENDBRANCH   1  20
TORSDOF 4
ENDMDL
MODEL 4
REMARK VINA RESULT:      -7.9      1.649      1.857
REMARK  Name = 
REMARK  6 active torsions:
REMARK  status: ('A' for Active; 'I' for Inactive)
REMARK    1  A    between atoms: C_1  and  O_2
REMARK    2  A    between atoms: O_2  and  C_3
REMARK    3  A    between atoms: C_5  and  N_6
REMARK    4  A    between atoms: C_7  and  C_9
REMARK    5  A    between atoms: C_24  and  N_25
REMARK    6  A    between atoms: C_26  and  C_27
REMARK                            x       y       z     vdW  Elec       q    Type
REMARK                         _______ _______ _______ _____ _____    ______ ____
ROOT
ATOM      1  N   UNL     1       0.747   9.762  19.719  0.00  0.00    +0.000 N 
ATOM      2  C   UNL     1       0.771   8.539  20.393  0.00  0.00    +0.000 C 
ATOM      3  O   UNL     1      -0.036   8.251  21.277  0.00  0.00    +0.000 OA
ATOM      4  H   UNL     1       1.594  10.048  19.251  0.00  0.00    +0.000 HD
ENDROOT
BRANCH   2   5
ATOM      5  C   UNL     1       1.791   7.574  19.999  0.00  0.00    +0.000 A 
ATOM      6  C   UNL     1       1.869   6.263  20.445  0.00  0.00    +0.000 A 
ATOM      7  C   UNL     1       2.740   5.461  19.646  0.00  0.00    +0.000 A 
ATOM      8  C   UNL     1       3.348   6.214  18.662  0.00  0.00    +0.000 A 
ATOM      9  S   UNL     1       2.970   7.876  18.807  0.00  0.00    +0.000 S 
ATOM     10  C   UNL     1       4.134   5.638  17.567  0.00  0.00    +0.000 A 
ATOM     11  C   UNL     1       4.665   6.406  16.522  0.00  0.00    +0.000 A 
ATOM     12  C   UNL     1       5.288   5.798  15.432  0.00  0.00    +0.000 A 
ATOM     13  C   UNL     1       5.406   4.413  15.380  0.00  0.00    +0.000 A 
ATOM     14  C   UNL     1       4.909   3.634  16.423  0.00  0.00    +0.000 A 
ATOM     15  C   UNL     1       4.266   4.233  17.521  0.00  0.00    +0.000 A 
ATOM     16  C   UNL     1       3.713   3.332  18.608  0.00  0.00    +0.000 C 
ATOM     17  C   UNL     1       2.894   3.976  19.743  0.00  0.00    +0.000 C 
ENDBRANCH   2   5
BRANCH   1  20
ATOM     18  C   UNL     1      -2.459  11.481  18.807  0.00  0.00    +0.000 A 
ATOM     19  C   UNL     1      -1.327  10.652  18.755  0.00  0.00    +0.000 A 
ATOM     20  C   UNL     1      -0.347  10.665  19.748  0.00  0.00    +0.000 A 
ATOM     21  C   UNL     1      -0.449  11.618  20.757  0.00  0.00    +0.000 A 
ATOM     22  C   UNL     1      -1.568  12.474  20.814  0.00  0.00    +0.000 A 
ATOM     23  C   UNL     1      -2.592  12.403  19.861  0.00  0.00    +0.000 A 
BRANCH  23  24
ATOM     24  N   UNL     1      -3.772  13.196  19.914  0.00  0.00    +0.000 N 
ATOM     25  C   UNL     1      -4.839  13.051  20.783  0.00  0.00    +0.000 C 
ATOM     26  C   UNL     1      -5.976  14.010  20.509  0.00  0.00    +0.000 C 
ATOM     27  O   UNL     1      -4.923  12.255  21.714  0.00  0.00    +0.000 OA
ATOM     28  H   UNL     1      -3.815  13.921  19.208  0.00  0.00    +0.000 HD
ENDBRANCH  23  24
BRANCH  18  30
ATOM     29  C   UNL     1      -3.414  10.325  16.970  0.00  0.00    +0.000 C 
ATOM     30  O   UNL     1      -3.463  11.441  17.864  0.00  0.00    +0.000 OA
ENDBRANCH  18  30
ENDBRANCH   1  20
TORSDOF 4
ENDMDL
MODEL 5
REMARK VINA RESULT:      -7.8      3.606      3.930
REMARK  Name = 
REMARK  6 active torsions:
REMARK  status: ('A' for Active; 'I' for Inactive)
REMARK    1  A    between atoms: C_1  and  O_2
REMARK    2  A    between atoms: O_2  and  C_3
REMARK    3  A    between atoms: C_5  and  N_6
REMARK    4  A    between atoms: C_7  and  C_9
REMARK    5  A    between atoms: C_24  and  N_25
REMARK    6  A    between atoms: C_26  and  C_27
REMARK                            x       y       z     vdW  Elec       q    Type
REMARK                         _______ _______ _______ _____ _____    ______ ____
ROOT
ATOM      1  N   UNL     1       1.143   8.424  20.923  0.00  0.00    +0.000 N 
ATOM      2  C   UNL     1       1.523   8.385  19.580  0.00  0.00    +0.000 C 
ATOM      3  O   UNL     1       1.092   9.180  18.744  0.00  0.00    +0.000 OA
ATOM      4  H   UNL     1       1.279   7.585  21.467  0.00  0.00    +0.000 HD
ENDROOT
BRANCH   2   5
ATOM      5  C   UNL     1       2.486   7.364  19.182  0.00  0.00    +0.000 A 
ATOM      6  C   UNL     1       2.485   6.048  19.619  0.00  0.00    +0.000 A 
ATOM      7  C   UNL     1       3.310   5.203  18.816  0.00  0.00    +0.000 A 
ATOM      8  C   UNL     1       3.963   5.925  17.839  0.00  0.00    +0.000 A 
ATOM      9  S   UNL     1       3.683   7.606  17.995  0.00  0.00    +0.000 S 
ATOM     10  C   UNL     1       4.718   5.311  16.742  0.00  0.00    +0.000 A 
ATOM     11  C   UNL     1       5.296   6.055  15.703  0.00  0.00    +0.000 A 
ATOM     12  C   UNL     1       5.885   5.418  14.610  0.00  0.00    +0.000 A 
ATOM     13  C   UNL     1       5.921   4.030  14.549  0.00  0.00    +0.000 A 
ATOM     14  C   UNL     1       5.377   3.273  15.585  0.00  0.00    +0.000 A 
ATOM     15  C   UNL     1       4.767   3.902  16.686  0.00  0.00    +0.000 A 
ATOM     16  C   UNL     1       4.160   3.027  17.766  0.00  0.00    +0.000 C 
ATOM     17  C   UNL     1       3.376   3.710  18.903  0.00  0.00    +0.000 C 
ENDBRANCH   2   5
BRANCH   1  20
ATOM     18  C   UNL     1      -0.053  11.915  21.595  0.00  0.00    +0.000 A 
ATOM     19  C   UNL     1       0.652  10.825  21.060  0.00  0.00    +0.000 A 
ATOM     20  C   UNL     1       0.483   9.523  21.532  0.00  0.00    +0.000 A 
ATOM     21  C   UNL     1      -0.327   9.331  22.647  0.00  0.00    +0.000 A 
ATOM     22  C   UNL     1      -1.026  10.416  23.213  0.00  0.00    +0.000 A 
ATOM     23  C   UNL     1      -0.918  11.710  22.685  0.00  0.00    +0.000 A 
BRANCH  23  24
ATOM     24  N   UNL     1      -1.655  12.823  23.176  0.00  0.00    +0.000 N 
ATOM     25  C   UNL     1      -3.023  13.016  23.108  0.00  0.00    +0.000 C 
ATOM     26  C   UNL     1      -3.472  14.355  23.649  0.00  0.00    +0.000 C 
ATOM     27  O   UNL     1      -3.855  12.223  22.675  0.00  0.00    +0.000 OA
ATOM     28  H   UNL     1      -1.082  13.547  23.591  0.00  0.00    +0.000 HD
ENDBRANCH  23  24
BRANCH  18  30
ATOM     29  C   UNL     1       1.141  13.404  20.188  0.00  0.00    +0.000 C 
ATOM     30  O   UNL     1       0.061  13.198  21.104  0.00  0.00    +0.000 OA
ENDBRANCH  18  30
ENDBRANCH   1  20
TORSDOF 4
ENDMDL
MODEL 6
REMARK VINA RESULT:      -7.7      3.055      3.800
REMARK  Name = 
REMARK  6 active torsions:
REMARK  status: ('A' for Active; 'I' for Inactive)
REMARK    1  A    between atoms: C_1  and  O_2
REMARK    2  A    between atoms: O_2  and  C_3
REMARK    3  A    between atoms: C_5  and  N_6
REMARK    4  A    between atoms: C_7  and  C_9
REMARK    5  A    between atoms: C_24  and  N_25
REMARK    6  A    between atoms: C_26  and  C_27
REMARK                            x       y       z     vdW  Elec       q    Type
REMARK                         _______ _______ _______ _____ _____    ______ ____
ROOT
ATOM      1  N   UNL     1       0.778   8.565  20.704  0.00  0.00    +0.000 N 
ATOM      2  C   UNL     1       1.344   8.597  19.428  0.00  0.00    +0.000 C 
ATOM      3  O   UNL     1       1.030   9.435  18.582  0.00  0.00    +0.000 OA
ATOM      4  H   UNL     1       0.843   7.698  21.216  0.00  0.00    +0.000 HD
ENDROOT
BRANCH   2   5
ATOM      5  C   UNL     1       2.362   7.599  19.117  0.00  0.00    +0.000 A 
ATOM      6  C   UNL     1       2.444   6.336  19.683  0.00  0.00    +0.000 A 
ATOM      7  C   UNL     1       3.309   5.464  18.954  0.00  0.00    +0.000 A 
ATOM      8  C   UNL     1       3.908   6.121  17.899  0.00  0.00    +0.000 A 
ATOM      9  S   UNL     1       3.530   7.790  17.892  0.00  0.00    +0.000 S 
ATOM     10  C   UNL     1       4.685   5.445  16.855  0.00  0.00    +0.000 A 
ATOM     11  C   UNL     1       5.206   6.113  15.738  0.00  0.00    +0.000 A 
ATOM     12  C   UNL     1       5.820   5.406  14.704  0.00  0.00    +0.000 A 
ATOM     13  C   UNL     1       5.938   4.022  14.781  0.00  0.00    +0.000 A 
ATOM     14  C   UNL     1       5.451   3.343  15.896  0.00  0.00    +0.000 A 
ATOM     15  C   UNL     1       4.818   4.042  16.939  0.00  0.00    +0.000 A 
ATOM     16  C   UNL     1       4.275   3.247  18.110  0.00  0.00    +0.000 C 
ATOM     17  C   UNL     1       3.465   3.993  19.188  0.00  0.00    +0.000 C 
ENDBRANCH   2   5
BRANCH   1  20
ATOM     18  C   UNL     1      -1.191  11.741  21.020  0.00  0.00    +0.000 A 
ATOM     19  C   UNL     1      -0.383  10.718  20.500  0.00  0.00    +0.000 A 
ATOM     20  C   UNL     1       0.031   9.630  21.270  0.00  0.00    +0.000 A 
ATOM     21  C   UNL     1      -0.279   9.632  22.627  0.00  0.00    +0.000 A 
ATOM     22  C   UNL     1      -1.072  10.662  23.172  0.00  0.00    +0.000 A 
ATOM     23  C   UNL     1      -1.554  11.712  22.379  0.00  0.00    +0.000 A 
BRANCH  23  24
ATOM     24  N   UNL     1      -2.412  12.735  22.866  0.00  0.00    +0.000 N 
ATOM     25  C   UNL     1      -2.053  13.845  23.611  0.00  0.00    +0.000 C 
ATOM     26  C   UNL     1      -3.231  14.690  24.042  0.00  0.00    +0.000 C 
ATOM     27  O   UNL     1      -0.914  14.183  23.920  0.00  0.00    +0.000 OA
ATOM     28  H   UNL     1      -3.391  12.592  22.650  0.00  0.00    +0.000 HD
ENDBRANCH  23  24
BRANCH  18  30
ATOM     29  C   UNL     1      -0.919  13.042  19.056  0.00  0.00    +0.000 C 
ATOM     30  O   UNL     1      -1.653  12.793  20.259  0.00  0.00    +0.000 OA
ENDBRANCH  18  30
ENDBRANCH   1  20
TORSDOF 4
ENDMDL
MODEL 7
REMARK VINA RESULT:      -7.7      2.141      2.943
REMARK  Name = 
REMARK  6 active torsions:
REMARK  status: ('A' for Active; 'I' for Inactive)
REMARK    1  A    between atoms: C_1  and  O_2
REMARK    2  A    between atoms: O_2  and  C_3
REMARK    3  A    between atoms: C_5  and  N_6
REMARK    4  A    between atoms: C_7  and  C_9
REMARK    5  A    between atoms: C_24  and  N_25
REMARK    6  A    between atoms: C_26  and  C_27
REMARK                            x       y       z     vdW  Elec       q    Type
REMARK                         _______ _______ _______ _____ _____    ______ ____
ROOT
ATOM      1  N   UNL     1       1.040   9.524  19.543  0.00  0.00    +0.000 N 
ATOM      2  C   UNL     1       1.167   8.319  20.236  0.00  0.00    +0.000 C 
ATOM      3  O   UNL     1       0.455   8.026  21.197  0.00  0.00    +0.000 OA
ATOM      4  H   UNL     1       1.830   9.827  18.993  0.00  0.00    +0.000 HD
ENDROOT
BRANCH   2   5
ATOM      5  C   UNL     1       2.180   7.378  19.771  0.00  0.00    +0.000 A 
ATOM      6  C   UNL     1       2.275   6.048  20.153  0.00  0.00    +0.000 A 
ATOM      7  C   UNL     1       3.127   5.290  19.294  0.00  0.00    +0.000 A 
ATOM      8  C   UNL     1       3.705   6.091  18.330  0.00  0.00    +0.000 A 
ATOM      9  S   UNL     1       3.325   7.743  18.564  0.00  0.00    +0.000 S 
ATOM     10  C   UNL     1       4.465   5.571  17.189  0.00  0.00    +0.000 A 
ATOM     11  C   UNL     1       4.964   6.390  16.167  0.00  0.00    +0.000 A 
ATOM     12  C   UNL     1       5.560   5.837  15.033  0.00  0.00    +0.000 A 
ATOM     13  C   UNL     1       5.681   4.457  14.913  0.00  0.00    +0.000 A 
ATOM     14  C   UNL     1       5.216   3.627  15.931  0.00  0.00    +0.000 A 
ATOM     15  C   UNL     1       4.600   4.170  17.073  0.00  0.00    +0.000 A 
ATOM     16  C   UNL     1       4.081   3.217  18.131  0.00  0.00    +0.000 C 
ATOM     17  C   UNL     1       3.290   3.802  19.317  0.00  0.00    +0.000 C 
ENDBRANCH   2   5
BRANCH   1  20
ATOM     18  C   UNL     1      -1.223  12.258  20.756  0.00  0.00    +0.000 A 
ATOM     19  C   UNL     1      -0.166  11.338  20.675  0.00  0.00    +0.000 A 
ATOM     20  C   UNL     1      -0.078  10.391  19.654  0.00  0.00    +0.000 A 
ATOM     21  C   UNL     1      -1.140  10.292  18.760  0.00  0.00    +0.000 A 
ATOM     22  C   UNL     1      -2.221  11.193  18.838  0.00  0.00    +0.000 A 
ATOM     23  C   UNL     1      -2.267  12.196  19.816  0.00  0.00    +0.000 A 
BRANCH  23  24
ATOM     24  N   UNL     1      -3.299  13.171  19.894  0.00  0.00    +0.000 N 
ATOM     25  C   UNL     1      -4.442  13.121  20.673  0.00  0.00    +0.000 C 
ATOM     26  C   UNL     1      -5.378  14.287  20.448  0.00  0.00    +0.000 C 
ATOM     27  O   UNL     1      -4.731  12.255  21.494  0.00  0.00    +0.000 OA
ATOM     28  H   UNL     1      -3.165  13.965  19.279  0.00  0.00    +0.000 HD
ENDBRANCH  23  24
BRANCH  18  30
ATOM     29  C   UNL     1      -1.270  12.755  23.075  0.00  0.00    +0.000 C 
ATOM     30  O   UNL     1      -1.296  13.235  21.726  0.00  0.00    +0.000 OA
ENDBRANCH  18  30
ENDBRANCH   1  20
TORSDOF 4
ENDMDL
MODEL 8
REMARK VINA RESULT:      -7.7      3.412      9.897
REMARK  Name = 
REMARK  6 active torsions:
REMARK  status: ('A' for Active; 'I' for Inactive)
REMARK    1  A    between atoms: C_1  and  O_2
REMARK    2  A    between atoms: O_2  and  C_3
REMARK    3  A    between atoms: C_5  and  N_6
REMARK    4  A    between atoms: C_7  and  C_9
REMARK    5  A    between atoms: C_24  and  N_25
REMARK    6  A    between atoms: C_26  and  C_27
REMARK                            x       y       z     vdW  Elec       q    Type
REMARK                         _______ _______ _______ _____ _____    ______ ____
ROOT
ATOM      1  N   UNL     1       1.631   8.556  19.725  0.00  0.00    +0.000 N 
ATOM      2  C   UNL     1       1.219   9.417  18.706  0.00  0.00    +0.000 C 
ATOM      3  O   UNL     1       1.577   9.282  17.536  0.00  0.00    +0.000 OA
ATOM      4  H   UNL     1       1.561   8.895  20.673  0.00  0.00    +0.000 HD
ENDROOT
BRANCH   2   5
ATOM      5  C   UNL     1       0.310  10.500  19.066  0.00  0.00    +0.000 A 
ATOM      6  C   UNL     1      -0.925  10.738  18.482  0.00  0.00    +0.000 A 
ATOM      7  C   UNL     1      -1.733  11.629  19.251  0.00  0.00    +0.000 A 
ATOM      8  C   UNL     1      -1.052  12.092  20.358  0.00  0.00    +0.000 A 
ATOM      9  S   UNL     1       0.575  11.561  20.372  0.00  0.00    +0.000 S 
ATOM     10  C   UNL     1      -1.681  12.858  21.439  0.00  0.00    +0.000 A 
ATOM     11  C   UNL     1      -0.998  13.239  22.602  0.00  0.00    +0.000 A 
ATOM     12  C   UNL     1      -1.673  13.846  23.662  0.00  0.00    +0.000 A 
ATOM     13  C   UNL     1      -3.037  14.097  23.566  0.00  0.00    +0.000 A 
ATOM     14  C   UNL     1      -3.728  13.751  22.406  0.00  0.00    +0.000 A 
ATOM     15  C   UNL     1      -3.063  13.126  21.336  0.00  0.00    +0.000 A 
ATOM     16  C   UNL     1      -3.874  12.739  20.115  0.00  0.00    +0.000 C 
ATOM     17  C   UNL     1      -3.176  11.937  18.999  0.00  0.00    +0.000 C 
ENDBRANCH   2   5
BRANCH   1  20
ATOM     18  C   UNL     1       2.640   4.974  20.190  0.00  0.00    +0.000 A 
ATOM     19  C   UNL     1       2.117   6.255  20.427  0.00  0.00    +0.000 A 
ATOM     20  C   UNL     1       2.238   7.293  19.503  0.00  0.00    +0.000 A 
ATOM     21  C   UNL     1       3.006   7.070  18.364  0.00  0.00    +0.000 A 
ATOM     22  C   UNL     1       3.558   5.796  18.118  0.00  0.00    +0.000 A 
ATOM     23  C   UNL     1       3.366   4.732  19.009  0.00  0.00    +0.000 A 
BRANCH  23  24
ATOM     24  N   UNL     1       3.843   3.413  18.773  0.00  0.00    +0.000 N 
ATOM     25  C   UNL     1       3.218   2.414  18.049  0.00  0.00    +0.000 C 
ATOM     26  C   UNL     1       3.961   1.097  18.069  0.00  0.00    +0.000 C 
ATOM     27  O   UNL     1       2.169   2.513  17.417  0.00  0.00    +0.000 OA
ATOM     28  H   UNL     1       4.728   3.208  19.220  0.00  0.00    +0.000 HD
ENDBRANCH  23  24
BRANCH  18  30
ATOM     29  C   UNL     1       1.211   3.267  21.007  0.00  0.00    +0.000 C 
ATOM     30  O   UNL     1       2.481   3.923  21.067  0.00  0.00    +0.000 OA
ENDBRANCH  18  30
ENDBRANCH   1  20
TORSDOF 4
ENDMDL
MODEL 9
REMARK VINA RESULT:      -7.7      3.582     10.275
REMARK  Name = 
REMARK  6 active torsions:
REMARK  status: ('A' for Active; 'I' for Inactive)
REMARK    1  A    between atoms: C_1  and  O_2
REMARK    2  A    between atoms: O_2  and  C_3
REMARK    3  A    between atoms: C_5  and  N_6
REMARK    4  A    between atoms: C_7  and  C_9
REMARK    5  A    between atoms: C_24  and  N_25
REMARK    6  A    between atoms: C_26  and  C_27
REMARK                            x       y       z     vdW  Elec       q    Type
REMARK                         _______ _______ _______ _____ _____    ______ ____
ROOT
ATOM      1  N   UNL     1       0.578   9.611  20.024  0.00  0.00    +0.000 N 
ATOM      2  C   UNL     1       0.506  10.968  19.703  0.00  0.00    +0.000 C 
ATOM      3  O   UNL     1       1.379  11.546  19.056  0.00  0.00    +0.000 OA
ATOM      4  H   UNL     1       0.012   9.287  20.794  0.00  0.00    +0.000 HD
ENDROOT
BRANCH   2   5
ATOM      5  C   UNL     1      -0.673  11.703  20.148  0.00  0.00    +0.000 A 
ATOM      6  C   UNL     1      -1.734  12.082  19.339  0.00  0.00    +0.000 A 
ATOM      7  C   UNL     1      -2.885  12.471  20.089  0.00  0.00    +0.000 A 
ATOM      8  C   UNL     1      -2.631  12.440  21.446  0.00  0.00    +0.000 A 
ATOM      9  S   UNL     1      -0.991  12.083  21.778  0.00  0.00    +0.000 S 
ATOM     10  C   UNL     1      -3.668  12.591  22.471  0.00  0.00    +0.000 A 
ATOM     11  C   UNL     1      -3.410  12.461  23.843  0.00  0.00    +0.000 A 
ATOM     12  C   UNL     1      -4.451  12.476  24.771  0.00  0.00    +0.000 A 
ATOM     13  C   UNL     1      -5.764  12.640  24.343  0.00  0.00    +0.000 A 
ATOM     14  C   UNL     1      -6.038  12.798  22.985  0.00  0.00    +0.000 A 
ATOM     15  C   UNL     1      -5.000  12.770  22.037  0.00  0.00    +0.000 A 
ATOM     16  C   UNL     1      -5.361  12.911  20.572  0.00  0.00    +0.000 C 
ATOM     17  C   UNL     1      -4.243  12.748  19.525  0.00  0.00    +0.000 C 
ENDBRANCH   2   5
BRANCH   1  20
ATOM     18  C   UNL     1       2.733   6.593  19.461  0.00  0.00    +0.000 A 
ATOM     19  C   UNL     1       1.913   7.552  20.078  0.00  0.00    +0.000 A 
ATOM     20  C   UNL     1       1.472   8.695  19.410  0.00  0.00    +0.000 A 
ATOM     21  C   UNL     1       1.963   8.938  18.131  0.00  0.00    +0.000 A 
ATOM     22  C   UNL     1       2.804   7.997  17.503  0.00  0.00    +0.000 A 
ATOM     23  C   UNL     1       3.181   6.809  18.146  0.00  0.00    +0.000 A 
BRANCH  23  24
ATOM     24  N   UNL     1       3.969   5.799  17.530  0.00  0.00    +0.000 N 
ATOM     25  C   UNL     1       5.257   5.924  17.040  0.00  0.00    +0.000 C 
ATOM     26  C   UNL     1       5.771   4.673  16.365  0.00  0.00    +0.000 C 
ATOM     27  O   UNL     1       5.977   6.916  17.117  0.00  0.00    +0.000 OA
ATOM     28  H   UNL     1       3.497   4.908  17.432  0.00  0.00    +0.000 HD
ENDBRANCH  23  24
BRANCH  18  30
ATOM     29  C   UNL     1       2.080   4.677  20.698  0.00  0.00    +0.000 C 
ATOM     30  O   UNL     1       3.132   5.432  20.088  0.00  0.00    +0.000 OA
ENDBRANCH  18  30
ENDBRANCH   1  20
TORSDOF 4
ENDMDL
