MODEL 1
REMARK VINA RESULT:      -9.0      0.000      0.000
REMARK  Name = 
REMARK  4 active torsions:
REMARK  status: ('A' for Active; 'I' for Inactive)
REMARK    1  A    between atoms: C_1  and  C_2
REMARK    2  A    between atoms: C_11  and  C_12
REMARK    3  A    between atoms: N_14  and  C_15
REMARK    4  A    between atoms: C_18  and  C_19
REMARK                            x       y       z     vdW  Elec       q    Type
REMARK                         _______ _______ _______ _____ _____    ______ ____
ROOT
ATOM      1  C   UNL     1       0.334   9.780  19.520  0.00  0.00    +0.000 A 
ATOM      2  C   UNL     1       0.791   9.779  18.203  0.00  0.00    +0.000 A 
ATOM      3  C   UNL     1       1.744   8.858  17.778  0.00  0.00    +0.000 A 
ATOM      4  C   UNL     1       2.284   7.921  18.662  0.00  0.00    +0.000 A 
ATOM      5  C   UNL     1       1.922   8.007  20.015  0.00  0.00    +0.000 A 
ATOM      6  C   UNL     1       0.946   8.922  20.440  0.00  0.00    +0.000 A 
ENDROOT
BRANCH   4   7
ATOM      7  C   UNL     1       3.176   6.900  18.109  0.00  0.00    +0.000 A 
ATOM      8  N   UNL     1       4.244   7.166  17.377  0.00  0.00    +0.000 NA
ATOM      9  N   UNL     1       4.773   5.994  16.917  0.00  0.00    +0.000 NA
ATOM     10  C   UNL     1       4.024   5.005  17.358  0.00  0.00    +0.000 A 
ATOM     11  N   UNL     1       2.999   5.528  18.110  0.00  0.00    +0.000 N 
ATOM     12  C   UNL     1       1.914   4.793  18.731  0.00  0.00    +0.000 C 
ATOM     13  C   UNL     1       1.397   3.608  17.923  0.00  0.00    +0.000 C 
ATOM     14  C   UNL     1       2.262   2.355  18.037  0.00  0.00    +0.000 C 
ATOM     15  C   UNL     1       3.768   2.599  18.096  0.00  0.00    +0.000 C 
ATOM     16  C   UNL     1       4.258   3.570  17.031  0.00  0.00    +0.000 C 
ENDBRANCH   4   7
BRANCH   1  19
ATOM     17  C   UNL     1      -0.673  11.974  20.104  0.00  0.00    +0.000 C 
ATOM     18  O   UNL     1       0.316  12.680  19.920  0.00  0.00    +0.000 OA
ATOM     19  N   UNL     1      -0.739  10.599  19.945  0.00  0.00    +0.000 N 
ATOM     20  H   UNL     1      -1.674  10.201  19.919  0.00  0.00    +0.000 HD
BRANCH  17  31
ATOM     21  C   UNL     1      -1.241  12.514  23.025  0.00  0.00    +0.000 C 
ATOM     22  C   UNL     1      -2.333  12.236  21.997  0.00  0.00    +0.000 C 
ATOM     23  O   UNL     1      -3.480  13.005  22.414  0.00  0.00    +0.000 OA
ATOM     24  C   UNL     1      -4.474  12.975  21.472  0.00  0.00    +0.000 A 
ATOM     25  C   UNL     1      -5.744  13.361  21.890  0.00  0.00    +0.000 A 
ATOM     26  C   UNL     1      -6.813  13.299  20.998  0.00  0.00    +0.000 A 
ATOM     27  C   UNL     1      -6.610  12.862  19.687  0.00  0.00    +0.000 A 
ATOM     28  C   UNL     1      -5.328  12.504  19.260  0.00  0.00    +0.000 A 
ATOM     29  C   UNL     1      -4.260  12.576  20.149  0.00  0.00    +0.000 A 
ATOM     30  O   UNL     1      -3.028  12.224  19.662  0.00  0.00    +0.000 OA
ATOM     31  C   UNL     1      -1.976  12.626  20.560  0.00  0.00    +0.000 C 
ENDBRANCH  17  31
ENDBRANCH   1  19
TORSDOF 3
ENDMDL
MODEL 2
REMARK VINA RESULT:      -8.8      6.902     10.261
REMARK  Name = 
REMARK  4 active torsions:
REMARK  status: ('A' for Active; 'I' for Inactive)
REMARK    1  A    between atoms: C_1  and  C_2
REMARK    2  A    between atoms: C_11  and  C_12
REMARK    3  A    between atoms: N_14  and  C_15
REMARK    4  A    between atoms: C_18  and  C_19
REMARK                            x       y       z     vdW  Elec       q    Type
REMARK                         _______ _______ _______ _____ _____    ______ ____
ROOT
ATOM      1  C   UNL     1       8.129   7.805  18.275  0.00  0.00    +0.000 A 
ATOM      2  C   UNL     1       7.141   7.865  17.293  0.00  0.00    +0.000 A 
ATOM      3  C   UNL     1       6.221   6.832  17.142  0.00  0.00    +0.000 A 
ATOM      4  C   UNL     1       6.271   5.698  17.956  0.00  0.00    +0.000 A 
ATOM      5  C   UNL     1       7.343   5.580  18.854  0.00  0.00    +0.000 A 
ATOM      6  C   UNL     1       8.259   6.630  19.021  0.00  0.00    +0.000 A 
ENDROOT
BRANCH   4   7
ATOM      7  C   UNL     1       5.188   4.721  17.829  0.00  0.00    +0.000 A 
ATOM      8  N   UNL     1       5.076   3.865  16.828  0.00  0.00    +0.000 NA
ATOM      9  N   UNL     1       3.893   3.192  16.947  0.00  0.00    +0.000 NA
ATOM     10  C   UNL     1       3.272   3.641  18.018  0.00  0.00    +0.000 A 
ATOM     11  N   UNL     1       4.048   4.613  18.605  0.00  0.00    +0.000 N 
ATOM     12  C   UNL     1       3.711   5.408  19.769  0.00  0.00    +0.000 C 
ATOM     13  C   UNL     1       2.241   5.799  19.876  0.00  0.00    +0.000 C 
ATOM     14  C   UNL     1       1.342   4.692  20.418  0.00  0.00    +0.000 C 
ATOM     15  C   UNL     1       1.692   3.277  19.959  0.00  0.00    +0.000 C 
ATOM     16  C   UNL     1       1.926   3.177  18.458  0.00  0.00    +0.000 C 
ENDBRANCH   4   7
BRANCH   1  19
ATOM     17  C   UNL     1       8.682  10.227  18.287  0.00  0.00    +0.000 C 
ATOM     18  O   UNL     1       7.654  10.648  17.761  0.00  0.00    +0.000 OA
ATOM     19  N   UNL     1       8.981   8.901  18.554  0.00  0.00    +0.000 N 
ATOM     20  H   UNL     1       9.760   8.742  19.187  0.00  0.00    +0.000 HD
BRANCH  17  31
ATOM     21  C   UNL     1       9.129  10.982  21.182  0.00  0.00    +0.000 C 
ATOM     22  C   UNL     1       9.424  11.921  20.015  0.00  0.00    +0.000 C 
ATOM     23  O   UNL     1      10.555  12.720  20.422  0.00  0.00    +0.000 OA
ATOM     24  C   UNL     1      11.026  13.484  19.388  0.00  0.00    +0.000 A 
ATOM     25  C   UNL     1      11.860  14.547  19.725  0.00  0.00    +0.000 A 
ATOM     26  C   UNL     1      12.329  15.400  18.728  0.00  0.00    +0.000 A 
ATOM     27  C   UNL     1      11.973  15.184  17.395  0.00  0.00    +0.000 A 
ATOM     28  C   UNL     1      11.160  14.100  17.054  0.00  0.00    +0.000 A 
ATOM     29  C   UNL     1      10.701  13.243  18.049  0.00  0.00    +0.000 A 
ATOM     30  O   UNL     1       9.920  12.191  17.646  0.00  0.00    +0.000 OA
ATOM     31  C   UNL     1       9.766  11.220  18.698  0.00  0.00    +0.000 C 
ENDBRANCH  17  31
ENDBRANCH   1  19
TORSDOF 3
ENDMDL
MODEL 3
REMARK VINA RESULT:      -8.7      1.602      1.938
REMARK  Name = 
REMARK  4 active torsions:
REMARK  status: ('A' for Active; 'I' for Inactive)
REMARK    1  A    between atoms: C_1  and  C_2
REMARK    2  A    between atoms: C_11  and  C_12
REMARK    3  A    between atoms: N_14  and  C_15
REMARK    4  A    between atoms: C_18  and  C_19
REMARK                            x       y       z     vdW  Elec       q    Type
REMARK                         _______ _______ _______ _____ _____    ______ ____
ROOT
ATOM      1  C   UNL     1       0.529   9.718  19.507  0.00  0.00    +0.000 A 
ATOM      2  C   UNL     1       1.066   9.768  18.222  0.00  0.00    +0.000 A 
ATOM      3  C   UNL     1       1.988   8.818  17.795  0.00  0.00    +0.000 A 
ATOM      4  C   UNL     1       2.417   7.797  18.647  0.00  0.00    +0.000 A 
ATOM      5  C   UNL     1       1.977   7.823  19.979  0.00  0.00    +0.000 A 
ATOM      6  C   UNL     1       1.031   8.769  20.404  0.00  0.00    +0.000 A 
ENDROOT
BRANCH   4   7
ATOM      7  C   UNL     1       3.281   6.758  18.082  0.00  0.00    +0.000 A 
ATOM      8  N   UNL     1       4.345   7.002  17.336  0.00  0.00    +0.000 NA
ATOM      9  N   UNL     1       4.844   5.820  16.869  0.00  0.00    +0.000 NA
ATOM     10  C   UNL     1       4.080   4.847  17.320  0.00  0.00    +0.000 A 
ATOM     11  N   UNL     1       3.075   5.390  18.085  0.00  0.00    +0.000 N 
ATOM     12  C   UNL     1       1.984   4.677  18.719  0.00  0.00    +0.000 C 
ATOM     13  C   UNL     1       1.433   3.503  17.918  0.00  0.00    +0.000 C 
ATOM     14  C   UNL     1       2.272   2.233  18.021  0.00  0.00    +0.000 C 
ATOM     15  C   UNL     1       3.785   2.446  18.061  0.00  0.00    +0.000 C 
ATOM     16  C   UNL     1       4.280   3.407  16.989  0.00  0.00    +0.000 C 
ENDBRANCH   4   7
BRANCH   1  19
ATOM     17  C   UNL     1      -0.417  11.526  20.923  0.00  0.00    +0.000 C 
ATOM     18  O   UNL     1       0.577  11.757  21.608  0.00  0.00    +0.000 OA
ATOM     19  N   UNL     1      -0.519  10.575  19.921  0.00  0.00    +0.000 N 
ATOM     20  H   UNL     1      -1.325  10.662  19.307  0.00  0.00    +0.000 HD
BRANCH  17  31
ATOM     21  C   UNL     1      -0.791  14.293  19.760  0.00  0.00    +0.000 C 
ATOM     22  C   UNL     1      -1.436  13.839  21.067  0.00  0.00    +0.000 C 
ATOM     23  O   UNL     1      -2.700  14.529  21.149  0.00  0.00    +0.000 OA
ATOM     24  C   UNL     1      -3.454  14.070  22.197  0.00  0.00    +0.000 A 
ATOM     25  C   UNL     1      -4.513  14.877  22.605  0.00  0.00    +0.000 A 
ATOM     26  C   UNL     1      -5.285  14.499  23.702  0.00  0.00    +0.000 A 
ATOM     27  C   UNL     1      -5.005  13.311  24.382  0.00  0.00    +0.000 A 
ATOM     28  C   UNL     1      -3.962  12.488  23.952  0.00  0.00    +0.000 A 
ATOM     29  C   UNL     1      -3.197  12.862  22.851  0.00  0.00    +0.000 A 
ATOM     30  O   UNL     1      -2.198  12.002  22.473  0.00  0.00    +0.000 OA
ATOM     31  C   UNL     1      -1.690  12.332  21.167  0.00  0.00    +0.000 C 
ENDBRANCH  17  31
ENDBRANCH   1  19
TORSDOF 3
ENDMDL
MODEL 4
REMARK VINA RESULT:      -8.7      4.063     10.747
REMARK  Name = 
REMARK  4 active torsions:
REMARK  status: ('A' for Active; 'I' for Inactive)
REMARK    1  A    between atoms: C_1  and  C_2
REMARK    2  A    between atoms: C_11  and  C_12
REMARK    3  A    between atoms: N_14  and  C_15
REMARK    4  A    between atoms: C_18  and  C_19
REMARK                            x       y       z     vdW  Elec       q    Type
REMARK                         _______ _______ _______ _____ _____    ______ ____
ROOT
ATOM      1  C   UNL     1       2.989   7.258  18.377  0.00  0.00    +0.000 A 
ATOM      2  C   UNL     1       2.434   8.507  18.108  0.00  0.00    +0.000 A 
ATOM      3  C   UNL     1       1.640   9.155  19.050  0.00  0.00    +0.000 A 
ATOM      4  C   UNL     1       1.362   8.564  20.285  0.00  0.00    +0.000 A 
ATOM      5  C   UNL     1       1.813   7.254  20.504  0.00  0.00    +0.000 A 
ATOM      6  C   UNL     1       2.630   6.609  19.563  0.00  0.00    +0.000 A 
ENDROOT
BRANCH   4   7
ATOM      7  C   UNL     1       0.637   9.365  21.274  0.00  0.00    +0.000 A 
ATOM      8  N   UNL     1       0.547   9.057  22.556  0.00  0.00    +0.000 NA
ATOM      9  N   UNL     1      -0.301   9.935  23.168  0.00  0.00    +0.000 NA
ATOM     10  C   UNL     1      -0.742  10.779  22.259  0.00  0.00    +0.000 A 
ATOM     11  N   UNL     1      -0.183  10.456  21.045  0.00  0.00    +0.000 N 
ATOM     12  C   UNL     1      -0.446  11.092  19.770  0.00  0.00    +0.000 C 
ATOM     13  C   UNL     1      -1.889  11.538  19.560  0.00  0.00    +0.000 C 
ATOM     14  C   UNL     1      -2.237  12.855  20.248  0.00  0.00    +0.000 C 
ATOM     15  C   UNL     1      -1.594  13.072  21.616  0.00  0.00    +0.000 C 
ATOM     16  C   UNL     1      -1.725  11.865  22.535  0.00  0.00    +0.000 C 
ENDBRANCH   4   7
BRANCH   1  19
ATOM     17  C   UNL     1       4.767   5.603  17.854  0.00  0.00    +0.000 C 
ATOM     18  O   UNL     1       4.850   5.074  18.961  0.00  0.00    +0.000 OA
ATOM     19  N   UNL     1       3.920   6.643  17.505  0.00  0.00    +0.000 N 
ATOM     20  H   UNL     1       3.814   6.812  16.509  0.00  0.00    +0.000 HD
BRANCH  17  31
ATOM     21  C   UNL     1       7.491   6.814  17.347  0.00  0.00    +0.000 C 
ATOM     22  C   UNL     1       6.631   6.197  16.249  0.00  0.00    +0.000 C 
ATOM     23  O   UNL     1       7.550   5.618  15.299  0.00  0.00    +0.000 OA
ATOM     24  C   UNL     1       6.893   4.880  14.351  0.00  0.00    +0.000 A 
ATOM     25  C   UNL     1       7.602   4.575  13.193  0.00  0.00    +0.000 A 
ATOM     26  C   UNL     1       6.976   3.876  12.163  0.00  0.00    +0.000 A 
ATOM     27  C   UNL     1       5.645   3.474  12.296  0.00  0.00    +0.000 A 
ATOM     28  C   UNL     1       4.944   3.754  13.471  0.00  0.00    +0.000 A 
ATOM     29  C   UNL     1       5.573   4.443  14.503  0.00  0.00    +0.000 A 
ATOM     30  O   UNL     1       4.833   4.673  15.634  0.00  0.00    +0.000 OA
ATOM     31  C   UNL     1       5.666   5.108  16.725  0.00  0.00    +0.000 C 
ENDBRANCH  17  31
ENDBRANCH   1  19
TORSDOF 3
ENDMDL
MODEL 5
REMARK VINA RESULT:      -8.6      1.909      2.360
REMARK  Name = 
REMARK  4 active torsions:
REMARK  status: ('A' for Active; 'I' for Inactive)
REMARK    1  A    between atoms: C_1  and  C_2
REMARK    2  A    between atoms: C_11  and  C_12
REMARK    3  A    between atoms: N_14  and  C_15
REMARK    4  A    between atoms: C_18  and  C_19
REMARK                            x       y       z     vdW  Elec       q    Type
REMARK                         _______ _______ _______ _____ _____    ______ ____
ROOT
ATOM      1  C   UNL     1       1.042   9.577  19.563  0.00  0.00    +0.000 A 
ATOM      2  C   UNL     1       1.578   9.500  18.279  0.00  0.00    +0.000 A 
ATOM      3  C   UNL     1       2.294   8.379  17.869  0.00  0.00    +0.000 A 
ATOM      4  C   UNL     1       2.513   7.307  18.738  0.00  0.00    +0.000 A 
ATOM      5  C   UNL     1       2.087   7.441  20.068  0.00  0.00    +0.000 A 
ATOM      6  C   UNL     1       1.347   8.562  20.476  0.00  0.00    +0.000 A 
ENDROOT
BRANCH   4   7
ATOM      7  C   UNL     1       3.153   6.109  18.192  0.00  0.00    +0.000 A 
ATOM      8  N   UNL     1       4.091   6.129  17.260  0.00  0.00    +0.000 NA
ATOM      9  N   UNL     1       4.377   4.846  16.887  0.00  0.00    +0.000 NA
ATOM     10  C   UNL     1       3.608   4.036  17.584  0.00  0.00    +0.000 A 
ATOM     11  N   UNL     1       2.813   4.787  18.417  0.00  0.00    +0.000 N 
ATOM     12  C   UNL     1       1.781   4.297  19.309  0.00  0.00    +0.000 C 
ATOM     13  C   UNL     1       0.981   3.113  18.776  0.00  0.00    +0.000 C 
ATOM     14  C   UNL     1       1.691   1.770  18.918  0.00  0.00    +0.000 C 
ATOM     15  C   UNL     1       3.201   1.797  18.687  0.00  0.00    +0.000 C 
ATOM     16  C   UNL     1       3.599   2.554  17.428  0.00  0.00    +0.000 C 
ENDBRANCH   4   7
BRANCH   1  19
ATOM     17  C   UNL     1      -1.037  10.923  19.374  0.00  0.00    +0.000 C 
ATOM     18  O   UNL     1      -1.547  10.333  18.425  0.00  0.00    +0.000 OA
ATOM     19  N   UNL     1       0.185  10.631  19.960  0.00  0.00    +0.000 N 
ATOM     20  H   UNL     1       0.356  11.062  20.864  0.00  0.00    +0.000 HD
BRANCH  17  31
ATOM     21  C   UNL     1      -0.495  13.771  18.512  0.00  0.00    +0.000 C 
ATOM     22  C   UNL     1      -0.956  13.394  19.917  0.00  0.00    +0.000 C 
ATOM     23  O   UNL     1      -1.772  14.491  20.377  0.00  0.00    +0.000 OA
ATOM     24  C   UNL     1      -2.389  14.194  21.563  0.00  0.00    +0.000 A 
ATOM     25  C   UNL     1      -2.903  15.266  22.287  0.00  0.00    +0.000 A 
ATOM     26  C   UNL     1      -3.493  15.041  23.529  0.00  0.00    +0.000 A 
ATOM     27  C   UNL     1      -3.579  13.745  24.041  0.00  0.00    +0.000 A 
ATOM     28  C   UNL     1      -3.091  12.666  23.299  0.00  0.00    +0.000 A 
ATOM     29  C   UNL     1      -2.511  12.891  22.055  0.00  0.00    +0.000 A 
ATOM     30  O   UNL     1      -2.065  11.788  21.373  0.00  0.00    +0.000 OA
ATOM     31  C   UNL     1      -1.776  12.104  19.999  0.00  0.00    +0.000 C 
ENDBRANCH  17  31
ENDBRANCH   1  19
TORSDOF 3
ENDMDL
MODEL 6
REMARK VINA RESULT:      -8.6      1.565      2.549
REMARK  Name = 
REMARK  4 active torsions:
REMARK  status: ('A' for Active; 'I' for Inactive)
REMARK    1  A    between atoms: C_1  and  C_2
REMARK    2  A    between atoms: C_11  and  C_12
REMARK    3  A    between atoms: N_14  and  C_15
REMARK    4  A    between atoms: C_18  and  C_19
REMARK                            x       y       z     vdW  Elec       q    Type
REMARK                         _______ _______ _______ _____ _____    ______ ____
ROOT
ATOM      1  C   UNL     1       0.502   9.578  20.343  0.00  0.00    +0.000 A 
ATOM      2  C   UNL     1       0.946   9.776  19.037  0.00  0.00    +0.000 A 
ATOM      3  C   UNL     1       1.808   8.868  18.430  0.00  0.00    +0.000 A 
ATOM      4  C   UNL     1       2.269   7.742  19.117  0.00  0.00    +0.000 A 
ATOM      5  C   UNL     1       1.927   7.613  20.472  0.00  0.00    +0.000 A 
ATOM      6  C   UNL     1       1.041   8.517  21.078  0.00  0.00    +0.000 A 
ENDROOT
BRANCH   4   7
ATOM      7  C   UNL     1       3.059   6.764  18.368  0.00  0.00    +0.000 A 
ATOM      8  N   UNL     1       3.992   7.083  17.487  0.00  0.00    +0.000 NA
ATOM      9  N   UNL     1       4.441   5.944  16.880  0.00  0.00    +0.000 NA
ATOM     10  C   UNL     1       3.777   4.924  17.381  0.00  0.00    +0.000 A 
ATOM     11  N   UNL     1       2.888   5.392  18.320  0.00  0.00    +0.000 N 
ATOM     12  C   UNL     1       1.922   4.611  19.067  0.00  0.00    +0.000 C 
ATOM     13  C   UNL     1       1.282   3.467  18.289  0.00  0.00    +0.000 C 
ATOM     14  C   UNL     1       2.157   2.220  18.188  0.00  0.00    +0.000 C 
ATOM     15  C   UNL     1       3.652   2.478  18.013  0.00  0.00    +0.000 C 
ATOM     16  C   UNL     1       3.957   3.512  16.938  0.00  0.00    +0.000 C 
ENDBRANCH   4   7
BRANCH   1  19
ATOM     17  C   UNL     1      -0.266  11.663  21.453  0.00  0.00    +0.000 C 
ATOM     18  O   UNL     1       0.812  12.252  21.495  0.00  0.00    +0.000 OA
ATOM     19  N   UNL     1      -0.489  10.398  20.934  0.00  0.00    +0.000 N 
ATOM     20  H   UNL     1      -1.462  10.150  20.773  0.00  0.00    +0.000 HD
BRANCH  17  31
ATOM     21  C   UNL     1      -2.640  12.352  19.710  0.00  0.00    +0.000 C 
ATOM     22  C   UNL     1      -2.255  13.147  20.954  0.00  0.00    +0.000 C 
ATOM     23  O   UNL     1      -3.492  13.630  21.518  0.00  0.00    +0.000 OA
ATOM     24  C   UNL     1      -3.291  14.216  22.739  0.00  0.00    +0.000 A 
ATOM     25  C   UNL     1      -4.314  15.029  23.219  0.00  0.00    +0.000 A 
ATOM     26  C   UNL     1      -4.152  15.701  24.429  0.00  0.00    +0.000 A 
ATOM     27  C   UNL     1      -2.973  15.551  25.163  0.00  0.00    +0.000 A 
ATOM     28  C   UNL     1      -1.960  14.710  24.695  0.00  0.00    +0.000 A 
ATOM     29  C   UNL     1      -2.127  14.032  23.492  0.00  0.00    +0.000 A 
ATOM     30  O   UNL     1      -1.101  13.213  23.097  0.00  0.00    +0.000 OA
ATOM     31  C   UNL     1      -1.508  12.346  22.023  0.00  0.00    +0.000 C 
ENDBRANCH  17  31
ENDBRANCH   1  19
TORSDOF 3
ENDMDL
MODEL 7
REMARK VINA RESULT:      -8.5      2.204      3.233
REMARK  Name = 
REMARK  4 active torsions:
REMARK  status: ('A' for Active; 'I' for Inactive)
REMARK    1  A    between atoms: C_1  and  C_2
REMARK    2  A    between atoms: C_11  and  C_12
REMARK    3  A    between atoms: N_14  and  C_15
REMARK    4  A    between atoms: C_18  and  C_19
REMARK                            x       y       z     vdW  Elec       q    Type
REMARK                         _______ _______ _______ _____ _____    ______ ____
ROOT
ATOM      1  C   UNL     1       1.117   9.434  19.406  0.00  0.00    +0.000 A 
ATOM      2  C   UNL     1       1.559   9.321  18.090  0.00  0.00    +0.000 A 
ATOM      3  C   UNL     1       2.193   8.165  17.645  0.00  0.00    +0.000 A 
ATOM      4  C   UNL     1       2.422   7.091  18.510  0.00  0.00    +0.000 A 
ATOM      5  C   UNL     1       2.096   7.257  19.865  0.00  0.00    +0.000 A 
ATOM      6  C   UNL     1       1.438   8.414  20.308  0.00  0.00    +0.000 A 
ENDROOT
BRANCH   4   7
ATOM      7  C   UNL     1       2.969   5.860  17.936  0.00  0.00    +0.000 A 
ATOM      8  N   UNL     1       2.435   4.662  18.105  0.00  0.00    +0.000 NA
ATOM      9  N   UNL     1       3.258   3.725  17.550  0.00  0.00    +0.000 NA
ATOM     10  C   UNL     1       4.304   4.345  17.046  0.00  0.00    +0.000 A 
ATOM     11  N   UNL     1       4.171   5.695  17.271  0.00  0.00    +0.000 N 
ATOM     12  C   UNL     1       5.126   6.731  16.934  0.00  0.00    +0.000 C 
ATOM     13  C   UNL     1       6.589   6.333  17.096  0.00  0.00    +0.000 C 
ATOM     14  C   UNL     1       7.137   5.502  15.939  0.00  0.00    +0.000 C 
ATOM     15  C   UNL     1       6.164   4.489  15.338  0.00  0.00    +0.000 C 
ATOM     16  C   UNL     1       5.449   3.652  16.390  0.00  0.00    +0.000 C 
ENDBRANCH   4   7
BRANCH   1  19
ATOM     17  C   UNL     1      -0.910  10.869  19.349  0.00  0.00    +0.000 C 
ATOM     18  O   UNL     1      -1.514  10.289  18.450  0.00  0.00    +0.000 OA
ATOM     19  N   UNL     1       0.338  10.530  19.848  0.00  0.00    +0.000 N 
ATOM     20  H   UNL     1       0.595  10.965  20.730  0.00  0.00    +0.000 HD
BRANCH  17  31
ATOM     21  C   UNL     1      -0.294  13.679  18.418  0.00  0.00    +0.000 C 
ATOM     22  C   UNL     1      -0.677  13.338  19.855  0.00  0.00    +0.000 C 
ATOM     23  O   UNL     1      -1.407  14.477  20.355  0.00  0.00    +0.000 OA
ATOM     24  C   UNL     1      -1.956  14.220  21.583  0.00  0.00    +0.000 A 
ATOM     25  C   UNL     1      -2.368  15.322  22.326  0.00  0.00    +0.000 A 
ATOM     26  C   UNL     1      -2.884  15.137  23.608  0.00  0.00    +0.000 A 
ATOM     27  C   UNL     1      -2.996  13.851  24.141  0.00  0.00    +0.000 A 
ATOM     28  C   UNL     1      -2.610  12.744  23.381  0.00  0.00    +0.000 A 
ATOM     29  C   UNL     1      -2.106  12.929  22.098  0.00  0.00    +0.000 A 
ATOM     30  O   UNL     1      -1.760  11.800  21.402  0.00  0.00    +0.000 OA
ATOM     31  C   UNL     1      -1.549  12.089  20.007  0.00  0.00    +0.000 C 
ENDBRANCH  17  31
ENDBRANCH   1  19
TORSDOF 3
ENDMDL
MODEL 8
REMARK VINA RESULT:      -8.4      2.358      3.184
REMARK  Name = 
REMARK  4 active torsions:
REMARK  status: ('A' for Active; 'I' for Inactive)
REMARK    1  A    between atoms: C_1  and  C_2
REMARK    2  A    between atoms: C_11  and  C_12
REMARK    3  A    between atoms: N_14  and  C_15
REMARK    4  A    between atoms: C_18  and  C_19
REMARK                            x       y       z     vdW  Elec       q    Type
REMARK                         _______ _______ _______ _____ _____    ______ ____
ROOT
ATOM      1  C   UNL     1       1.083   9.268  19.468  0.00  0.00    +0.000 A 
ATOM      2  C   UNL     1       1.498   9.212  18.139  0.00  0.00    +0.000 A 
ATOM      3  C   UNL     1       2.170   8.098  17.647  0.00  0.00    +0.000 A 
ATOM      4  C   UNL     1       2.463   7.010  18.473  0.00  0.00    +0.000 A 
ATOM      5  C   UNL     1       2.162   7.122  19.839  0.00  0.00    +0.000 A 
ATOM      6  C   UNL     1       1.466   8.237  20.332  0.00  0.00    +0.000 A 
ENDROOT
BRANCH   4   7
ATOM      7  C   UNL     1       3.047   5.821  17.850  0.00  0.00    +0.000 A 
ATOM      8  N   UNL     1       2.508   4.615  17.904  0.00  0.00    +0.000 NA
ATOM      9  N   UNL     1       3.366   3.716  17.337  0.00  0.00    +0.000 NA
ATOM     10  C   UNL     1       4.439   4.368  16.941  0.00  0.00    +0.000 A 
ATOM     11  N   UNL     1       4.288   5.700  17.250  0.00  0.00    +0.000 N 
ATOM     12  C   UNL     1       5.259   6.756  17.042  0.00  0.00    +0.000 C 
ATOM     13  C   UNL     1       6.710   6.346  17.265  0.00  0.00    +0.000 C 
ATOM     14  C   UNL     1       7.330   5.596  16.089  0.00  0.00    +0.000 C 
ATOM     15  C   UNL     1       6.398   4.627  15.363  0.00  0.00    +0.000 C 
ATOM     16  C   UNL     1       5.624   3.721  16.309  0.00  0.00    +0.000 C 
ENDBRANCH   4   7
BRANCH   1  19
ATOM     17  C   UNL     1       0.338  10.842  21.241  0.00  0.00    +0.000 C 
ATOM     18  O   UNL     1       1.094  10.473  22.137  0.00  0.00    +0.000 OA
ATOM     19  N   UNL     1       0.268  10.317  19.960  0.00  0.00    +0.000 N 
ATOM     20  H   UNL     1      -0.243  10.873  19.281  0.00  0.00    +0.000 HD
BRANCH  17  31
ATOM     21  C   UNL     1       1.137  13.740  20.912  0.00  0.00    +0.000 C 
ATOM     22  C   UNL     1       0.082  13.269  21.910  0.00  0.00    +0.000 C 
ATOM     23  O   UNL     1      -0.886  14.335  22.001  0.00  0.00    +0.000 OA
ATOM     24  C   UNL     1      -1.978  13.958  22.737  0.00  0.00    +0.000 A 
ATOM     25  C   UNL     1      -2.802  14.980  23.201  0.00  0.00    +0.000 A 
ATOM     26  C   UNL     1      -3.898  14.672  24.004  0.00  0.00    +0.000 A 
ATOM     27  C   UNL     1      -4.175  13.343  24.335  0.00  0.00    +0.000 A 
ATOM     28  C   UNL     1      -3.365  12.317  23.843  0.00  0.00    +0.000 A 
ATOM     29  C   UNL     1      -2.277  12.625  23.033  0.00  0.00    +0.000 A 
ATOM     30  O   UNL     1      -1.531  11.570  22.573  0.00  0.00    +0.000 OA
ATOM     31  C   UNL     1      -0.642  11.979  21.517  0.00  0.00    +0.000 C 
ENDBRANCH  17  31
ENDBRANCH   1  19
TORSDOF 3
ENDMDL
MODEL 9
REMARK VINA RESULT:      -8.4      2.550      3.321
REMARK  Name = 
REMARK  4 active torsions:
REMARK  status: ('A' for Active; 'I' for Inactive)
REMARK    1  A    between atoms: C_1  and  C_2
REMARK    2  A    between atoms: C_11  and  C_12
REMARK    3  A    between atoms: N_14  and  C_15
REMARK    4  A    between atoms: C_18  and  C_19
REMARK                            x       y       z     vdW  Elec       q    Type
REMARK                         _______ _______ _______ _____ _____    ______ ____
ROOT
ATOM      1  C   UNL     1       0.865  10.320  19.542  0.00  0.00    +0.000 A 
ATOM      2  C   UNL     1       0.951   9.357  20.546  0.00  0.00    +0.000 A 
ATOM      3  C   UNL     1       1.565   8.131  20.309  0.00  0.00    +0.000 A 
ATOM      4  C   UNL     1       2.098   7.822  19.054  0.00  0.00    +0.000 A 
ATOM      5  C   UNL     1       1.896   8.738  18.011  0.00  0.00    +0.000 A 
ATOM      6  C   UNL     1       1.294   9.983  18.255  0.00  0.00    +0.000 A 
ENDROOT
BRANCH   4   7
ATOM      7  C   UNL     1       2.849   6.572  18.923  0.00  0.00    +0.000 A 
ATOM      8  N   UNL     1       3.827   6.382  18.054  0.00  0.00    +0.000 NA
ATOM      9  N   UNL     1       4.222   5.076  18.105  0.00  0.00    +0.000 NA
ATOM     10  C   UNL     1       3.480   4.458  19.000  0.00  0.00    +0.000 A 
ATOM     11  N   UNL     1       2.593   5.360  19.539  0.00  0.00    +0.000 N 
ATOM     12  C   UNL     1       1.557   5.084  20.515  0.00  0.00    +0.000 C 
ATOM     13  C   UNL     1       0.871   3.732  20.356  0.00  0.00    +0.000 C 
ATOM     14  C   UNL     1       1.667   2.561  20.926  0.00  0.00    +0.000 C 
ATOM     15  C   UNL     1       3.181   2.642  20.735  0.00  0.00    +0.000 C 
ATOM     16  C   UNL     1       3.584   3.005  19.313  0.00  0.00    +0.000 C 
ENDBRANCH   4   7
BRANCH   1  19
ATOM     17  C   UNL     1       1.004  12.558  20.612  0.00  0.00    +0.000 C 
ATOM     18  O   UNL     1       2.039  12.387  21.251  0.00  0.00    +0.000 OA
ATOM     19  N   UNL     1       0.384  11.628  19.792  0.00  0.00    +0.000 N 
ATOM     20  H   UNL     1      -0.330  11.994  19.168  0.00  0.00    +0.000 HD
BRANCH  17  31
ATOM     21  C   UNL     1      -1.372  12.972  22.437  0.00  0.00    +0.000 C 
ATOM     22  C   UNL     1      -1.172  13.741  21.135  0.00  0.00    +0.000 C 
ATOM     23  O   UNL     1      -1.738  15.050  21.352  0.00  0.00    +0.000 OA
ATOM     24  C   UNL     1      -1.464  15.895  20.310  0.00  0.00    +0.000 A 
ATOM     25  C   UNL     1      -2.237  17.048  20.219  0.00  0.00    +0.000 A 
ATOM     26  C   UNL     1      -2.051  17.923  19.151  0.00  0.00    +0.000 A 
ATOM     27  C   UNL     1      -1.084  17.650  18.180  0.00  0.00    +0.000 A 
ATOM     28  C   UNL     1      -0.288  16.507  18.289  0.00  0.00    +0.000 A 
ATOM     29  C   UNL     1      -0.468  15.640  19.362  0.00  0.00    +0.000 A 
ATOM     30  O   UNL     1       0.355  14.545  19.416  0.00  0.00    +0.000 OA
ATOM     31  C   UNL     1       0.288  13.903  20.703  0.00  0.00    +0.000 C 
ENDBRANCH  17  31
ENDBRANCH   1  19
TORSDOF 3
ENDMDL
