MODEL 1
REMARK VINA RESULT:      -9.1      0.000      0.000
REMARK  Name = 
REMARK  5 active torsions:
REMARK  status: ('A' for Active; 'I' for Inactive)
REMARK    1  A    between atoms: C_1  and  C_2
REMARK    2  A    between atoms: C_4  and  C_5
REMARK    3  A    between atoms: C_9  and  N_10
REMARK    4  A    between atoms: C_11  and  C_13
REMARK    5  A    between atoms: C_23  and  C_24
REMARK                            x       y       z     vdW  Elec       q    Type
REMARK                         _______ _______ _______ _____ _____    ______ ____
ROOT
ATOM      1  N   UNL     1       4.273   5.633  18.498  0.00  0.00    +0.000 N 
ATOM      2  C   UNL     1       3.199   5.522  19.345  0.00  0.00    +0.000 C 
ATOM      3  O   UNL     1       2.849   4.451  19.831  0.00  0.00    +0.000 OA
ATOM      4  H   UNL     1       4.743   6.537  18.486  0.00  0.00    +0.000 HD
ENDROOT
BRANCH   2   5
ATOM      5  C   UNL     1       2.535   6.770  19.660  0.00  0.00    +0.000 A 
ATOM      6  N   UNL     1       1.993   6.982  20.908  0.00  0.00    +0.000 N 
ATOM      7  C   UNL     1       1.401   8.218  20.987  0.00  0.00    +0.000 A 
ATOM      8  C   UNL     1       0.752   8.847  22.060  0.00  0.00    +0.000 A 
ATOM      9  C   UNL     1       0.206  10.109  21.827  0.00  0.00    +0.000 A 
ATOM     10  F   UNL     1      -0.427  10.736  22.827  0.00  0.00    +0.000 F 
ATOM     11  C   UNL     1       0.292  10.731  20.592  0.00  0.00    +0.000 A 
ATOM     12  C   UNL     1       0.948  10.088  19.546  0.00  0.00    +0.000 A 
ATOM     13  F   UNL     1       1.020  10.703  18.356  0.00  0.00    +0.000 F 
ATOM     14  C   UNL     1       1.523   8.811  19.730  0.00  0.00    +0.000 A 
ATOM     15  C   UNL     1       2.234   7.891  18.889  0.00  0.00    +0.000 A 
ATOM     16  C   UNL     1       2.529   8.091  17.440  0.00  0.00    +0.000 C 
ATOM     17  H   UNL     1       2.032   6.303  21.655  0.00  0.00    +0.000 HD
ENDBRANCH   2   5
BRANCH   1  22
ATOM     18  C   UNL     1       6.381   4.818  17.385  0.00  0.00    +0.000 C 
ATOM     19  C   UNL     1       5.928   4.948  15.942  0.00  0.00    +0.000 C 
ATOM     20  O   UNL     1       4.792   4.087  15.767  0.00  0.00    +0.000 OA
ATOM     21  C   UNL     1       4.368   3.628  17.063  0.00  0.00    +0.000 C 
ATOM     22  C   UNL     1       5.083   4.478  18.117  0.00  0.00    +0.000 C 
BRANCH  18  26
ATOM     23  C   UNL     1       8.195   9.408  17.822  0.00  0.00    +0.000 C 
ATOM     24  C   UNL     1       7.894   7.971  17.986  0.00  0.00    +0.000 A 
ATOM     25  N   UNL     1       7.111   7.221  17.244  0.00  0.00    +0.000 NA
ATOM     26  C   UNL     1       7.146   5.996  17.867  0.00  0.00    +0.000 A 
ATOM     27  N   UNL     1       7.945   5.949  18.940  0.00  0.00    +0.000 NA
ATOM     28  N   UNL     1       8.407   7.209  18.997  0.00  0.00    +0.000 N 
ATOM     29  H   UNL     1       9.043   7.475  19.740  0.00  0.00    +0.000 HD
ENDBRANCH  18  26
ENDBRANCH   1  22
TORSDOF 3
ENDMDL
MODEL 2
REMARK VINA RESULT:      -8.6      1.355      2.244
REMARK  Name = 
REMARK  5 active torsions:
REMARK  status: ('A' for Active; 'I' for Inactive)
REMARK    1  A    between atoms: C_1  and  C_2
REMARK    2  A    between atoms: C_4  and  C_5
REMARK    3  A    between atoms: C_9  and  N_10
REMARK    4  A    between atoms: C_11  and  C_13
REMARK    5  A    between atoms: C_23  and  C_24
REMARK                            x       y       z     vdW  Elec       q    Type
REMARK                         _______ _______ _______ _____ _____    ______ ____
ROOT
ATOM      1  N   UNL     1       4.492   5.232  17.224  0.00  0.00    +0.000 N 
ATOM      2  C   UNL     1       3.934   5.223  18.478  0.00  0.00    +0.000 C 
ATOM      3  O   UNL     1       4.168   4.340  19.299  0.00  0.00    +0.000 OA
ATOM      4  H   UNL     1       4.602   6.147  16.790  0.00  0.00    +0.000 HD
ENDROOT
BRANCH   2   5
ATOM      5  C   UNL     1       3.084   6.355  18.779  0.00  0.00    +0.000 A 
ATOM      6  N   UNL     1       3.123   7.490  17.999  0.00  0.00    +0.000 N 
ATOM      7  C   UNL     1       2.253   8.442  18.467  0.00  0.00    +0.000 A 
ATOM      8  C   UNL     1       1.959   9.723  17.976  0.00  0.00    +0.000 A 
ATOM      9  C   UNL     1       1.045  10.491  18.698  0.00  0.00    +0.000 A 
ATOM     10  F   UNL     1       0.746  11.722  18.262  0.00  0.00    +0.000 F 
ATOM     11  C   UNL     1       0.443  10.024  19.855  0.00  0.00    +0.000 A 
ATOM     12  C   UNL     1       0.748   8.746  20.317  0.00  0.00    +0.000 A 
ATOM     13  F   UNL     1       0.158   8.310  21.440  0.00  0.00    +0.000 F 
ATOM     14  C   UNL     1       1.662   7.926  19.620  0.00  0.00    +0.000 A 
ATOM     15  C   UNL     1       2.194   6.608  19.821  0.00  0.00    +0.000 A 
ATOM     16  C   UNL     1       1.886   5.714  20.976  0.00  0.00    +0.000 C 
ATOM     17  H   UNL     1       3.723   7.591  17.192  0.00  0.00    +0.000 HD
ENDBRANCH   2   5
BRANCH   1  22
ATOM     18  C   UNL     1       6.838   4.669  16.496  0.00  0.00    +0.000 C 
ATOM     19  C   UNL     1       6.747   5.171  15.067  0.00  0.00    +0.000 C 
ATOM     20  O   UNL     1       5.721   4.413  14.407  0.00  0.00    +0.000 OA
ATOM     21  C   UNL     1       5.010   3.653  15.401  0.00  0.00    +0.000 C 
ATOM     22  C   UNL     1       5.414   4.189  16.777  0.00  0.00    +0.000 C 
BRANCH  18  26
ATOM     23  C   UNL     1       8.534   8.912  18.410  0.00  0.00    +0.000 C 
ATOM     24  C   UNL     1       8.142   7.507  18.180  0.00  0.00    +0.000 A 
ATOM     25  N   UNL     1       7.656   6.973  17.082  0.00  0.00    +0.000 NA
ATOM     26  C   UNL     1       7.417   5.666  17.431  0.00  0.00    +0.000 A 
ATOM     27  N   UNL     1       7.769   5.360  18.686  0.00  0.00    +0.000 NA
ATOM     28  N   UNL     1       8.224   6.539  19.141  0.00  0.00    +0.000 N 
ATOM     29  H   UNL     1       8.555   6.612  20.097  0.00  0.00    +0.000 HD
ENDBRANCH  18  26
ENDBRANCH   1  22
TORSDOF 3
ENDMDL
MODEL 3
REMARK VINA RESULT:      -8.5      0.780      1.067
REMARK  Name = 
REMARK  5 active torsions:
REMARK  status: ('A' for Active; 'I' for Inactive)
REMARK    1  A    between atoms: C_1  and  C_2
REMARK    2  A    between atoms: C_4  and  C_5
REMARK    3  A    between atoms: C_9  and  N_10
REMARK    4  A    between atoms: C_11  and  C_13
REMARK    5  A    between atoms: C_23  and  C_24
REMARK                            x       y       z     vdW  Elec       q    Type
REMARK                         _______ _______ _______ _____ _____    ______ ____
ROOT
ATOM      1  N   UNL     1       4.278   5.483  19.155  0.00  0.00    +0.000 N 
ATOM      2  C   UNL     1       3.044   5.463  19.756  0.00  0.00    +0.000 C 
ATOM      3  O   UNL     1       2.522   4.428  20.159  0.00  0.00    +0.000 OA
ATOM      4  H   UNL     1       4.805   6.351  19.243  0.00  0.00    +0.000 HD
ENDROOT
BRANCH   2   5
ATOM      5  C   UNL     1       2.423   6.760  19.923  0.00  0.00    +0.000 A 
ATOM      6  N   UNL     1       1.830   7.107  21.117  0.00  0.00    +0.000 N 
ATOM      7  C   UNL     1       1.291   8.367  21.054  0.00  0.00    +0.000 A 
ATOM      8  C   UNL     1       0.618   9.117  22.030  0.00  0.00    +0.000 A 
ATOM      9  C   UNL     1       0.142  10.374  21.657  0.00  0.00    +0.000 A 
ATOM     10  F   UNL     1      -0.512  11.115  22.562  0.00  0.00    +0.000 F 
ATOM     11  C   UNL     1       0.317  10.877  20.379  0.00  0.00    +0.000 A 
ATOM     12  C   UNL     1       0.995  10.115  19.430  0.00  0.00    +0.000 A 
ATOM     13  F   UNL     1       1.153  10.616  18.196  0.00  0.00    +0.000 F 
ATOM     14  C   UNL     1       1.501   8.839  19.758  0.00  0.00    +0.000 A 
ATOM     15  C   UNL     1       2.211   7.818  19.041  0.00  0.00    +0.000 A 
ATOM     16  C   UNL     1       2.587   7.873  17.597  0.00  0.00    +0.000 C 
ATOM     17  H   UNL     1       1.801   6.497  21.922  0.00  0.00    +0.000 HD
ENDBRANCH   2   5
BRANCH   1  22
ATOM     18  C   UNL     1       6.022   4.310  17.765  0.00  0.00    +0.000 C 
ATOM     19  C   UNL     1       5.134   3.902  16.604  0.00  0.00    +0.000 C 
ATOM     20  O   UNL     1       4.111   3.040  17.125  0.00  0.00    +0.000 OA
ATOM     21  C   UNL     1       4.164   3.091  18.563  0.00  0.00    +0.000 C 
ATOM     22  C   UNL     1       5.064   4.267  18.955  0.00  0.00    +0.000 C 
BRANCH  18  26
ATOM     23  C   UNL     1       8.435   8.575  18.500  0.00  0.00    +0.000 C 
ATOM     24  C   UNL     1       7.759   7.401  17.910  0.00  0.00    +0.000 A 
ATOM     25  N   UNL     1       7.140   6.426  18.537  0.00  0.00    +0.000 NA
ATOM     26  C   UNL     1       6.752   5.581  17.526  0.00  0.00    +0.000 A 
ATOM     27  N   UNL     1       7.073   6.009  16.298  0.00  0.00    +0.000 NA
ATOM     28  N   UNL     1       7.710   7.162  16.566  0.00  0.00    +0.000 N 
ATOM     29  H   UNL     1       8.087   7.713  15.803  0.00  0.00    +0.000 HD
ENDBRANCH  18  26
ENDBRANCH   1  22
TORSDOF 3
ENDMDL
MODEL 4
REMARK VINA RESULT:      -8.3      1.419      1.826
REMARK  Name = 
REMARK  5 active torsions:
REMARK  status: ('A' for Active; 'I' for Inactive)
REMARK    1  A    between atoms: C_1  and  C_2
REMARK    2  A    between atoms: C_4  and  C_5
REMARK    3  A    between atoms: C_9  and  N_10
REMARK    4  A    between atoms: C_11  and  C_13
REMARK    5  A    between atoms: C_23  and  C_24
REMARK                            x       y       z     vdW  Elec       q    Type
REMARK                         _______ _______ _______ _____ _____    ______ ____
ROOT
ATOM      1  N   UNL     1       2.522   4.956  19.168  0.00  0.00    +0.000 N 
ATOM      2  C   UNL     1       2.237   5.471  20.408  0.00  0.00    +0.000 C 
ATOM      3  O   UNL     1       2.341   4.811  21.437  0.00  0.00    +0.000 OA
ATOM      4  H   UNL     1       2.822   5.627  18.462  0.00  0.00    +0.000 HD
ENDROOT
BRANCH   2   5
ATOM      5  C   UNL     1       1.848   6.866  20.417  0.00  0.00    +0.000 A 
ATOM      6  N   UNL     1       1.222   7.413  21.516  0.00  0.00    +0.000 N 
ATOM      7  C   UNL     1       0.928   8.737  21.309  0.00  0.00    +0.000 A 
ATOM      8  C   UNL     1       0.317   9.675  22.154  0.00  0.00    +0.000 A 
ATOM      9  C   UNL     1       0.112  10.958  21.647  0.00  0.00    +0.000 A 
ATOM     10  F   UNL     1      -0.476  11.877  22.424  0.00  0.00    +0.000 F 
ATOM     11  C   UNL     1       0.491  11.309  20.361  0.00  0.00    +0.000 A 
ATOM     12  C   UNL     1       1.102  10.361  19.544  0.00  0.00    +0.000 A 
ATOM     13  F   UNL     1       1.459  10.718  18.302  0.00  0.00    +0.000 F 
ATOM     14  C   UNL     1       1.337   9.050  20.012  0.00  0.00    +0.000 A 
ATOM     15  C   UNL     1       1.913   7.863  19.446  0.00  0.00    +0.000 A 
ATOM     16  C   UNL     1       2.421   7.725  18.050  0.00  0.00    +0.000 C 
ATOM     17  H   UNL     1       1.011   6.890  22.354  0.00  0.00    +0.000 HD
ENDBRANCH   2   5
BRANCH   1  22
ATOM     18  C   UNL     1       4.283   3.433  18.203  0.00  0.00    +0.000 C 
ATOM     19  C   UNL     1       3.813   3.446  16.760  0.00  0.00    +0.000 C 
ATOM     20  O   UNL     1       2.482   2.908  16.735  0.00  0.00    +0.000 OA
ATOM     21  C   UNL     1       2.012   2.796  18.091  0.00  0.00    +0.000 C 
ATOM     22  C   UNL     1       2.977   3.579  18.985  0.00  0.00    +0.000 C 
BRANCH  18  26
ATOM     23  C   UNL     1       7.566   7.104  17.664  0.00  0.00    +0.000 C 
ATOM     24  C   UNL     1       6.748   5.986  18.175  0.00  0.00    +0.000 A 
ATOM     25  N   UNL     1       5.845   5.284  17.527  0.00  0.00    +0.000 NA
ATOM     26  C   UNL     1       5.355   4.422  18.479  0.00  0.00    +0.000 A 
ATOM     27  N   UNL     1       5.941   4.538  19.677  0.00  0.00    +0.000 NA
ATOM     28  N   UNL     1       6.817   5.533  19.462  0.00  0.00    +0.000 N 
ATOM     29  H   UNL     1       7.408   5.852  20.222  0.00  0.00    +0.000 HD
ENDBRANCH  18  26
ENDBRANCH   1  22
TORSDOF 3
ENDMDL
MODEL 5
REMARK VINA RESULT:      -8.2      1.978      2.704
REMARK  Name = 
REMARK  5 active torsions:
REMARK  status: ('A' for Active; 'I' for Inactive)
REMARK    1  A    between atoms: C_1  and  C_2
REMARK    2  A    between atoms: C_4  and  C_5
REMARK    3  A    between atoms: C_9  and  N_10
REMARK    4  A    between atoms: C_11  and  C_13
REMARK    5  A    between atoms: C_23  and  C_24
REMARK                            x       y       z     vdW  Elec       q    Type
REMARK                         _______ _______ _______ _____ _____    ______ ____
ROOT
ATOM      1  N   UNL     1       2.038   4.594  19.428  0.00  0.00    +0.000 N 
ATOM      2  C   UNL     1       2.158   5.446  20.497  0.00  0.00    +0.000 C 
ATOM      3  O   UNL     1       2.526   5.069  21.605  0.00  0.00    +0.000 OA
ATOM      4  H   UNL     1       2.151   5.013  18.506  0.00  0.00    +0.000 HD
ENDROOT
BRANCH   2   5
ATOM      5  C   UNL     1       1.861   6.834  20.210  0.00  0.00    +0.000 A 
ATOM      6  N   UNL     1       1.040   7.563  21.042  0.00  0.00    +0.000 N 
ATOM      7  C   UNL     1       0.880   8.845  20.579  0.00  0.00    +0.000 A 
ATOM      8  C   UNL     1       0.153   9.919  21.113  0.00  0.00    +0.000 A 
ATOM      9  C   UNL     1       0.143  11.111  20.387  0.00  0.00    +0.000 A 
ATOM     10  F   UNL     1      -0.546  12.155  20.865  0.00  0.00    +0.000 F 
ATOM     11  C   UNL     1       0.819  11.245  19.186  0.00  0.00    +0.000 A 
ATOM     12  C   UNL     1       1.539  10.165  18.681  0.00  0.00    +0.000 A 
ATOM     13  F   UNL     1       2.185  10.311  17.514  0.00  0.00    +0.000 F 
ATOM     14  C   UNL     1       1.585   8.939  19.379  0.00  0.00    +0.000 A 
ATOM     15  C   UNL     1       2.199   7.663  19.143  0.00  0.00    +0.000 A 
ATOM     16  C   UNL     1       2.997   7.294  17.936  0.00  0.00    +0.000 C 
ATOM     17  H   UNL     1       0.616   7.185  21.878  0.00  0.00    +0.000 HD
ENDBRANCH   2   5
BRANCH   1  22
ATOM     18  C   UNL     1       3.489   2.693  18.634  0.00  0.00    +0.000 C 
ATOM     19  C   UNL     1       2.788   2.421  17.316  0.00  0.00    +0.000 C 
ATOM     20  O   UNL     1       1.433   2.050  17.617  0.00  0.00    +0.000 OA
ATOM     21  C   UNL     1       1.189   2.315  19.010  0.00  0.00    +0.000 C 
ATOM     22  C   UNL     1       2.348   3.169  19.533  0.00  0.00    +0.000 C 
BRANCH  18  26
ATOM     23  C   UNL     1       6.974   5.643  16.711  0.00  0.00    +0.000 C 
ATOM     24  C   UNL     1       6.135   4.823  17.609  0.00  0.00    +0.000 A 
ATOM     25  N   UNL     1       5.104   4.074  17.290  0.00  0.00    +0.000 NA
ATOM     26  C   UNL     1       4.666   3.588  18.498  0.00  0.00    +0.000 A 
ATOM     27  N   UNL     1       5.404   3.976  19.546  0.00  0.00    +0.000 NA
ATOM     28  N   UNL     1       6.327   4.758  18.960  0.00  0.00    +0.000 N 
ATOM     29  H   UNL     1       7.031   5.212  19.530  0.00  0.00    +0.000 HD
ENDBRANCH  18  26
ENDBRANCH   1  22
TORSDOF 3
ENDMDL
MODEL 6
REMARK VINA RESULT:      -8.2      1.277      1.746
REMARK  Name = 
REMARK  5 active torsions:
REMARK  status: ('A' for Active; 'I' for Inactive)
REMARK    1  A    between atoms: C_1  and  C_2
REMARK    2  A    between atoms: C_4  and  C_5
REMARK    3  A    between atoms: C_9  and  N_10
REMARK    4  A    between atoms: C_11  and  C_13
REMARK    5  A    between atoms: C_23  and  C_24
REMARK                            x       y       z     vdW  Elec       q    Type
REMARK                         _______ _______ _______ _____ _____    ______ ____
ROOT
ATOM      1  N   UNL     1       3.329   5.476  19.291  0.00  0.00    +0.000 N 
ATOM      2  C   UNL     1       2.460   5.730  20.322  0.00  0.00    +0.000 C 
ATOM      3  O   UNL     1       2.172   4.887  21.166  0.00  0.00    +0.000 OA
ATOM      4  H   UNL     1       3.829   6.282  18.918  0.00  0.00    +0.000 HD
ENDROOT
BRANCH   2   5
ATOM      5  C   UNL     1       1.941   7.081  20.368  0.00  0.00    +0.000 A 
ATOM      6  N   UNL     1       1.357   7.571  21.515  0.00  0.00    +0.000 N 
ATOM      7  C   UNL     1       0.922   8.860  21.337  0.00  0.00    +0.000 A 
ATOM      8  C   UNL     1       0.295   9.739  22.233  0.00  0.00    +0.000 A 
ATOM      9  C   UNL     1      -0.074  10.994  21.747  0.00  0.00    +0.000 A 
ATOM     10  F   UNL     1      -0.681  11.856  22.574  0.00  0.00    +0.000 F 
ATOM     11  C   UNL     1       0.163  11.373  20.437  0.00  0.00    +0.000 A 
ATOM     12  C   UNL     1       0.793  10.484  19.569  0.00  0.00    +0.000 A 
ATOM     13  F   UNL     1       1.012  10.867  18.303  0.00  0.00    +0.000 F 
ATOM     14  C   UNL     1       1.191   9.204  20.012  0.00  0.00    +0.000 A 
ATOM     15  C   UNL     1       1.829   8.075  19.398  0.00  0.00    +0.000 A 
ATOM     16  C   UNL     1       2.232   7.980  17.963  0.00  0.00    +0.000 C 
ATOM     17  H   UNL     1       1.267   7.034  22.367  0.00  0.00    +0.000 HD
ENDBRANCH   2   5
BRANCH   1  22
ATOM     18  C   UNL     1       4.781   4.020  17.834  0.00  0.00    +0.000 C 
ATOM     19  C   UNL     1       3.722   3.589  16.836  0.00  0.00    +0.000 C 
ATOM     20  O   UNL     1       2.707   2.879  17.563  0.00  0.00    +0.000 OA
ATOM     21  C   UNL     1       2.947   3.060  18.970  0.00  0.00    +0.000 C 
ATOM     22  C   UNL     1       3.982   4.179  19.128  0.00  0.00    +0.000 C 
BRANCH  18  26
ATOM     23  C   UNL     1       7.852   7.908  17.786  0.00  0.00    +0.000 C 
ATOM     24  C   UNL     1       6.884   6.850  17.432  0.00  0.00    +0.000 A 
ATOM     25  N   UNL     1       6.347   5.949  18.223  0.00  0.00    +0.000 NA
ATOM     26  C   UNL     1       5.575   5.189  17.378  0.00  0.00    +0.000 A 
ATOM     27  N   UNL     1       5.584   5.603  16.105  0.00  0.00    +0.000 NA
ATOM     28  N   UNL     1       6.420   6.654  16.162  0.00  0.00    +0.000 N 
ATOM     29  H   UNL     1       6.632   7.171  15.316  0.00  0.00    +0.000 HD
ENDBRANCH  18  26
ENDBRANCH   1  22
TORSDOF 3
ENDMDL
MODEL 7
REMARK VINA RESULT:      -8.1      1.843      2.412
REMARK  Name = 
REMARK  5 active torsions:
REMARK  status: ('A' for Active; 'I' for Inactive)
REMARK    1  A    between atoms: C_1  and  C_2
REMARK    2  A    between atoms: C_4  and  C_5
REMARK    3  A    between atoms: C_9  and  N_10
REMARK    4  A    between atoms: C_11  and  C_13
REMARK    5  A    between atoms: C_23  and  C_24
REMARK                            x       y       z     vdW  Elec       q    Type
REMARK                         _______ _______ _______ _____ _____    ______ ____
ROOT
ATOM      1  N   UNL     1       2.645   4.735  19.320  0.00  0.00    +0.000 N 
ATOM      2  C   UNL     1       2.277   5.438  20.440  0.00  0.00    +0.000 C 
ATOM      3  O   UNL     1       2.251   4.933  21.558  0.00  0.00    +0.000 OA
ATOM      4  H   UNL     1       3.044   5.283  18.559  0.00  0.00    +0.000 HD
ENDROOT
BRANCH   2   5
ATOM      5  C   UNL     1       1.965   6.834  20.212  0.00  0.00    +0.000 A 
ATOM      6  N   UNL     1       1.250   7.554  21.143  0.00  0.00    +0.000 N 
ATOM      7  C   UNL     1       1.052   8.846  20.723  0.00  0.00    +0.000 A 
ATOM      8  C   UNL     1       0.401   9.916  21.354  0.00  0.00    +0.000 A 
ATOM      9  C   UNL     1       0.324  11.121  20.655  0.00  0.00    +0.000 A 
ATOM     10  F   UNL     1      -0.297  12.162  21.224  0.00  0.00    +0.000 F 
ATOM     11  C   UNL     1       0.863  11.272  19.388  0.00  0.00    +0.000 A 
ATOM     12  C   UNL     1       1.510  10.195  18.787  0.00  0.00    +0.000 A 
ATOM     13  F   UNL     1       2.024  10.357  17.558  0.00  0.00    +0.000 F 
ATOM     14  C   UNL     1       1.621   8.955  19.454  0.00  0.00    +0.000 A 
ATOM     15  C   UNL     1       2.191   7.679  19.129  0.00  0.00    +0.000 A 
ATOM     16  C   UNL     1       2.845   7.326  17.834  0.00  0.00    +0.000 C 
ATOM     17  H   UNL     1       0.917   7.164  22.014  0.00  0.00    +0.000 HD
ENDBRANCH   2   5
BRANCH   1  22
ATOM     18  C   UNL     1       4.084   2.910  18.347  0.00  0.00    +0.000 C 
ATOM     19  C   UNL     1       3.240   2.597  17.125  0.00  0.00    +0.000 C 
ATOM     20  O   UNL     1       1.954   2.157  17.590  0.00  0.00    +0.000 OA
ATOM     21  C   UNL     1       1.871   2.414  19.003  0.00  0.00    +0.000 C 
ATOM     22  C   UNL     1       3.040   3.329  19.381  0.00  0.00    +0.000 C 
BRANCH  18  26
ATOM     23  C   UNL     1       7.843   6.080  18.948  0.00  0.00    +0.000 C 
ATOM     24  C   UNL     1       6.774   5.223  18.397  0.00  0.00    +0.000 A 
ATOM     25  N   UNL     1       5.900   4.498  19.057  0.00  0.00    +0.000 NA
ATOM     26  C   UNL     1       5.187   3.864  18.068  0.00  0.00    +0.000 A 
ATOM     27  N   UNL     1       5.559   4.195  16.825  0.00  0.00    +0.000 NA
ATOM     28  N   UNL     1       6.565   5.055  17.057  0.00  0.00    +0.000 N 
ATOM     29  H   UNL     1       7.059   5.469  16.275  0.00  0.00    +0.000 HD
ENDBRANCH  18  26
ENDBRANCH   1  22
TORSDOF 3
ENDMDL
MODEL 8
REMARK VINA RESULT:      -8.1      4.357      7.831
REMARK  Name = 
REMARK  5 active torsions:
REMARK  status: ('A' for Active; 'I' for Inactive)
REMARK    1  A    between atoms: C_1  and  C_2
REMARK    2  A    between atoms: C_4  and  C_5
REMARK    3  A    between atoms: C_9  and  N_10
REMARK    4  A    between atoms: C_11  and  C_13
REMARK    5  A    between atoms: C_23  and  C_24
REMARK                            x       y       z     vdW  Elec       q    Type
REMARK                         _______ _______ _______ _____ _____    ______ ____
ROOT
ATOM      1  N   UNL     1       0.613  10.039  19.955  0.00  0.00    +0.000 N 
ATOM      2  C   UNL     1       1.103   9.139  20.868  0.00  0.00    +0.000 C 
ATOM      3  O   UNL     1       1.068   9.340  22.079  0.00  0.00    +0.000 OA
ATOM      4  H   UNL     1       0.292   9.649  19.070  0.00  0.00    +0.000 HD
ENDROOT
BRANCH   2   5
ATOM      5  C   UNL     1       1.624   7.912  20.301  0.00  0.00    +0.000 A 
ATOM      6  N   UNL     1       1.620   6.744  21.031  0.00  0.00    +0.000 N 
ATOM      7  C   UNL     1       2.170   5.711  20.315  0.00  0.00    +0.000 A 
ATOM      8  C   UNL     1       2.349   4.363  20.657  0.00  0.00    +0.000 A 
ATOM      9  C   UNL     1       2.985   3.544  19.723  0.00  0.00    +0.000 A 
ATOM     10  F   UNL     1       3.179   2.252  20.020  0.00  0.00    +0.000 F 
ATOM     11  C   UNL     1       3.427   4.026  18.502  0.00  0.00    +0.000 A 
ATOM     12  C   UNL     1       3.230   5.368  18.185  0.00  0.00    +0.000 A 
ATOM     13  F   UNL     1       3.667   5.819  16.999  0.00  0.00    +0.000 F 
ATOM     14  C   UNL     1       2.588   6.238  19.092  0.00  0.00    +0.000 A 
ATOM     15  C   UNL     1       2.248   7.632  19.088  0.00  0.00    +0.000 A 
ATOM     16  C   UNL     1       2.572   8.601  18.000  0.00  0.00    +0.000 C 
ATOM     17  H   UNL     1       1.259   6.677  21.973  0.00  0.00    +0.000 HD
ENDBRANCH   2   5
BRANCH   1  22
ATOM     18  C   UNL     1      -0.711  12.061  19.244  0.00  0.00    +0.000 C 
ATOM     19  C   UNL     1       0.415  12.836  18.585  0.00  0.00    +0.000 C 
ATOM     20  O   UNL     1       1.406  13.098  19.592  0.00  0.00    +0.000 OA
ATOM     21  C   UNL     1       1.079  12.324  20.760  0.00  0.00    +0.000 C 
ATOM     22  C   UNL     1       0.007  11.305  20.362  0.00  0.00    +0.000 C 
BRANCH  18  26
ATOM     23  C   UNL     1      -3.156  10.631  15.179  0.00  0.00    +0.000 C 
ATOM     24  C   UNL     1      -2.552  10.718  16.524  0.00  0.00    +0.000 A 
ATOM     25  N   UNL     1      -1.895  11.726  17.051  0.00  0.00    +0.000 NA
ATOM     26  C   UNL     1      -1.509  11.258  18.284  0.00  0.00    +0.000 A 
ATOM     27  N   UNL     1      -1.931  10.016  18.556  0.00  0.00    +0.000 NA
ATOM     28  N   UNL     1      -2.587   9.694  17.428  0.00  0.00    +0.000 N 
ATOM     29  H   UNL     1      -3.013   8.778  17.342  0.00  0.00    +0.000 HD
ENDBRANCH  18  26
ENDBRANCH   1  22
TORSDOF 3
ENDMDL
MODEL 9
REMARK VINA RESULT:      -8.0      3.462      7.511
REMARK  Name = 
REMARK  5 active torsions:
REMARK  status: ('A' for Active; 'I' for Inactive)
REMARK    1  A    between atoms: C_1  and  C_2
REMARK    2  A    between atoms: C_4  and  C_5
REMARK    3  A    between atoms: C_9  and  N_10
REMARK    4  A    between atoms: C_11  and  C_13
REMARK    5  A    between atoms: C_23  and  C_24
REMARK                            x       y       z     vdW  Elec       q    Type
REMARK                         _______ _______ _______ _____ _____    ______ ____
ROOT
ATOM      1  N   UNL     1       1.366   8.143  20.441  0.00  0.00    +0.000 N 
ATOM      2  C   UNL     1       1.745   6.825  20.379  0.00  0.00    +0.000 C 
ATOM      3  O   UNL     1       1.198   5.948  21.041  0.00  0.00    +0.000 OA
ATOM      4  H   UNL     1       1.543   8.700  19.607  0.00  0.00    +0.000 HD
ENDROOT
BRANCH   2   5
ATOM      5  C   UNL     1       2.808   6.537  19.439  0.00  0.00    +0.000 A 
ATOM      6  N   UNL     1       3.841   5.694  19.785  0.00  0.00    +0.000 N 
ATOM      7  C   UNL     1       4.745   5.572  18.759  0.00  0.00    +0.000 A 
ATOM      8  C   UNL     1       5.920   4.813  18.670  0.00  0.00    +0.000 A 
ATOM      9  C   UNL     1       6.667   4.923  17.496  0.00  0.00    +0.000 A 
ATOM     10  F   UNL     1       7.799   4.218  17.379  0.00  0.00    +0.000 F 
ATOM     11  C   UNL     1       6.276   5.744  16.450  0.00  0.00    +0.000 A 
ATOM     12  C   UNL     1       5.100   6.482  16.562  0.00  0.00    +0.000 A 
ATOM     13  F   UNL     1       4.739   7.274  15.542  0.00  0.00    +0.000 F 
ATOM     14  C   UNL     1       4.306   6.403  17.727  0.00  0.00    +0.000 A 
ATOM     15  C   UNL     1       3.085   7.018  18.162  0.00  0.00    +0.000 A 
ATOM     16  C   UNL     1       2.305   8.035  17.396  0.00  0.00    +0.000 C 
ATOM     17  H   UNL     1       3.910   5.237  20.683  0.00  0.00    +0.000 HD
ENDBRANCH   2   5
BRANCH   1  22
ATOM     18  C   UNL     1      -0.408   9.886  20.845  0.00  0.00    +0.000 C 
ATOM     19  C   UNL     1       0.479  10.964  21.440  0.00  0.00    +0.000 C 
ATOM     20  O   UNL     1       1.069  10.428  22.634  0.00  0.00    +0.000 OA
ATOM     21  C   UNL     1       0.798   9.015  22.678  0.00  0.00    +0.000 C 
ATOM     22  C   UNL     1       0.274   8.596  21.301  0.00  0.00    +0.000 C 
BRANCH  18  26
ATOM     23  C   UNL     1      -2.583   9.987  16.395  0.00  0.00    +0.000 C 
ATOM     24  C   UNL     1      -1.624  10.058  17.516  0.00  0.00    +0.000 A 
ATOM     25  N   UNL     1      -1.832   9.753  18.777  0.00  0.00    +0.000 NA
ATOM     26  C   UNL     1      -0.639  10.055  19.389  0.00  0.00    +0.000 A 
ATOM     27  N   UNL     1       0.308  10.500  18.553  0.00  0.00    +0.000 NA
ATOM     28  N   UNL     1      -0.337  10.495  17.375  0.00  0.00    +0.000 N 
ATOM     29  H   UNL     1       0.146  10.805  16.539  0.00  0.00    +0.000 HD
ENDBRANCH  18  26
ENDBRANCH   1  22
TORSDOF 3
ENDMDL
