MODEL 1
REMARK VINA RESULT:      -9.4      0.000      0.000
REMARK  Name = 
REMARK  9 active torsions:
REMARK  status: ('A' for Active; 'I' for Inactive)
REMARK    1  A    between atoms: C_1  and  N_2
REMARK    2  A    between atoms: C_6  and  C_7
REMARK    3  A    between atoms: C_7  and  C_8
REMARK    4  A    between atoms: C_8  and  C_9
REMARK    5  A    between atoms: C_13  and  N_14
REMARK    6  A    between atoms: C_15  and  C_17
REMARK    7  A    between atoms: C_22  and  C_23
REMARK    8  A    between atoms: C_23  and  C_24
REMARK    9  A    between atoms: C_23  and  C_25
REMARK                            x       y       z     vdW  Elec       q    Type
REMARK                         _______ _______ _______ _____ _____    ______ ____
ROOT
ATOM      1  C   UNL     1       4.463   4.739  17.259  0.00  0.00    +0.000 A 
ATOM      2  C   UNL     1       3.652   3.614  17.018  0.00  0.00    +0.000 A 
ATOM      3  C   UNL     1       2.351   3.526  17.510  0.00  0.00    +0.000 A 
ATOM      4  C   UNL     1       1.828   4.560  18.282  0.00  0.00    +0.000 A 
ATOM      5  C   UNL     1       2.597   5.685  18.565  0.00  0.00    +0.000 A 
ATOM      6  C   UNL     1       3.885   5.778  18.022  0.00  0.00    +0.000 A 
ENDROOT
BRANCH   1   7
ATOM      7  C   UNL     1       5.988   4.817  16.743  0.00  0.00    +0.000 C 
ATOM      8  C   UNL     1       6.630   6.228  16.601  0.00  0.00    +0.000 C 
ATOM      9  O   UNL     1       7.658   5.926  17.567  0.00  0.00    +0.000 OA
ATOM     10  C   UNL     1       7.071   4.644  17.850  0.00  0.00    +0.000 C 
BRANCH   7  11
ATOM     11  C   UNL     1       6.228   3.871  15.543  0.00  0.00    +0.000 C 
BRANCH  11  17
ATOM     12  C   UNL     1       5.749   3.330  12.462  0.00  0.00    +0.000 C 
ATOM     13  N   UNL     1       6.677   4.262  13.050  0.00  0.00    +0.000 N 
ATOM     14  C   UNL     1       7.534   5.058  12.349  0.00  0.00    +0.000 A 
ATOM     15  N   UNL     1       8.253   5.765  13.180  0.00  0.00    +0.000 NA
ATOM     16  N   UNL     1       7.875   5.417  14.452  0.00  0.00    +0.000 NA
ATOM     17  C   UNL     1       6.910   4.524  14.378  0.00  0.00    +0.000 A 
ENDBRANCH  11  17
ENDBRANCH   7  11
ENDBRANCH   1   7
BRANCH   5  18
ATOM     18  N   UNL     1       2.167   6.740  19.402  0.00  0.00    +0.000 N 
ATOM     19  C   UNL     1       1.821   8.005  18.973  0.00  0.00    +0.000 C 
ATOM     20  O   UNL     1       1.829   8.410  17.814  0.00  0.00    +0.000 OA
ATOM     21  H   UNL     1       1.945   6.478  20.355  0.00  0.00    +0.000 HD
BRANCH  19  22
ATOM     22  C   UNL     1       1.342   8.947  20.011  0.00  0.00    +0.000 A 
ATOM     23  C   UNL     1       1.074   8.561  21.318  0.00  0.00    +0.000 A 
ATOM     24  C   UNL     1       0.710   9.554  22.204  0.00  0.00    +0.000 A 
ATOM     25  F   UNL     1       0.468   9.209  23.477  0.00  0.00    +0.000 F 
ATOM     26  N   UNL     1       0.595  10.861  21.885  0.00  0.00    +0.000 NA
ATOM     27  C   UNL     1       0.859  11.224  20.604  0.00  0.00    +0.000 A 
ATOM     28  C   UNL     1       1.230  10.292  19.647  0.00  0.00    +0.000 A 
BRANCH  27  29
ATOM     29  C   UNL     1       0.769  12.695  20.220  0.00  0.00    +0.000 C 
ATOM     30  C   UNL     1      -0.285  13.404  21.063  0.00  0.00    +0.000 C 
ATOM     31  C   UNL     1       2.137  13.361  20.357  0.00  0.00    +0.000 C 
ATOM     32  F   UNL     1       0.388  12.864  18.910  0.00  0.00    +0.000 F 
ENDBRANCH  27  29
ENDBRANCH  19  22
ENDBRANCH   5  18
TORSDOF 6
ENDMDL
MODEL 2
REMARK VINA RESULT:      -9.2      0.964      1.097
REMARK  Name = 
REMARK  9 active torsions:
REMARK  status: ('A' for Active; 'I' for Inactive)
REMARK    1  A    between atoms: C_1  and  N_2
REMARK    2  A    between atoms: C_6  and  C_7
REMARK    3  A    between atoms: C_7  and  C_8
REMARK    4  A    between atoms: C_8  and  C_9
REMARK    5  A    between atoms: C_13  and  N_14
REMARK    6  A    between atoms: C_15  and  C_17
REMARK    7  A    between atoms: C_22  and  C_23
REMARK    8  A    between atoms: C_23  and  C_24
REMARK    9  A    between atoms: C_23  and  C_25
REMARK                            x       y       z     vdW  Elec       q    Type
REMARK                         _______ _______ _______ _____ _____    ______ ____
ROOT
ATOM      1  C   UNL     1       4.492   4.806  17.104  0.00  0.00    +0.000 A 
ATOM      2  C   UNL     1       3.725   3.635  16.962  0.00  0.00    +0.000 A 
ATOM      3  C   UNL     1       2.397   3.570  17.379  0.00  0.00    +0.000 A 
ATOM      4  C   UNL     1       1.800   4.679  17.975  0.00  0.00    +0.000 A 
ATOM      5  C   UNL     1       2.522   5.855  18.156  0.00  0.00    +0.000 A 
ATOM      6  C   UNL     1       3.841   5.917  17.687  0.00  0.00    +0.000 A 
ENDROOT
BRANCH   1   7
ATOM      7  C   UNL     1       6.046   4.865  16.680  0.00  0.00    +0.000 C 
ATOM      8  C   UNL     1       6.703   6.269  16.542  0.00  0.00    +0.000 C 
ATOM      9  O   UNL     1       7.669   5.986  17.575  0.00  0.00    +0.000 OA
ATOM     10  C   UNL     1       7.059   4.714  17.853  0.00  0.00    +0.000 C 
BRANCH   7  11
ATOM     11  C   UNL     1       6.351   3.890  15.519  0.00  0.00    +0.000 C 
BRANCH  11  17
ATOM     12  C   UNL     1       5.778   3.307  12.462  0.00  0.00    +0.000 C 
ATOM     13  N   UNL     1       6.710   4.259  13.008  0.00  0.00    +0.000 N 
ATOM     14  C   UNL     1       7.530   5.061  12.271  0.00  0.00    +0.000 A 
ATOM     15  N   UNL     1       8.265   5.788  13.069  0.00  0.00    +0.000 NA
ATOM     16  N   UNL     1       7.936   5.448  14.357  0.00  0.00    +0.000 NA
ATOM     17  C   UNL     1       6.984   4.540  14.325  0.00  0.00    +0.000 A 
ENDBRANCH  11  17
ENDBRANCH   7  11
ENDBRANCH   1   7
BRANCH   5  18
ATOM     18  N   UNL     1       2.013   6.995  18.818  0.00  0.00    +0.000 N 
ATOM     19  C   UNL     1       1.695   7.059  20.160  0.00  0.00    +0.000 C 
ATOM     20  O   UNL     1       1.804   6.153  20.980  0.00  0.00    +0.000 OA
ATOM     21  H   UNL     1       2.050   7.858  18.291  0.00  0.00    +0.000 HD
BRANCH  19  22
ATOM     22  C   UNL     1       1.227   8.371  20.665  0.00  0.00    +0.000 A 
ATOM     23  C   UNL     1       0.710   8.550  21.941  0.00  0.00    +0.000 A 
ATOM     24  C   UNL     1       0.386   9.839  22.313  0.00  0.00    +0.000 A 
ATOM     25  F   UNL     1      -0.095  10.040  23.548  0.00  0.00    +0.000 F 
ATOM     26  N   UNL     1       0.535  10.924  21.523  0.00  0.00    +0.000 NA
ATOM     27  C   UNL     1       1.041  10.734  20.278  0.00  0.00    +0.000 A 
ATOM     28  C   UNL     1       1.393   9.473  19.822  0.00  0.00    +0.000 A 
BRANCH  27  29
ATOM     29  C   UNL     1       1.251  11.942  19.375  0.00  0.00    +0.000 C 
ATOM     30  C   UNL     1       1.828  13.109  20.168  0.00  0.00    +0.000 C 
ATOM     31  C   UNL     1       2.147  11.570  18.195  0.00  0.00    +0.000 C 
ATOM     32  F   UNL     1       0.070  12.394  18.834  0.00  0.00    +0.000 F 
ENDBRANCH  27  29
ENDBRANCH  19  22
ENDBRANCH   5  18
TORSDOF 6
ENDMDL
MODEL 3
REMARK VINA RESULT:      -8.9      3.750      9.528
REMARK  Name = 
REMARK  9 active torsions:
REMARK  status: ('A' for Active; 'I' for Inactive)
REMARK    1  A    between atoms: C_1  and  N_2
REMARK    2  A    between atoms: C_6  and  C_7
REMARK    3  A    between atoms: C_7  and  C_8
REMARK    4  A    between atoms: C_8  and  C_9
REMARK    5  A    between atoms: C_13  and  N_14
REMARK    6  A    between atoms: C_15  and  C_17
REMARK    7  A    between atoms: C_22  and  C_23
REMARK    8  A    between atoms: C_23  and  C_24
REMARK    9  A    between atoms: C_23  and  C_25
REMARK                            x       y       z     vdW  Elec       q    Type
REMARK                         _______ _______ _______ _____ _____    ______ ____
ROOT
ATOM      1  C   UNL     1       0.061  10.367  20.287  0.00  0.00    +0.000 A 
ATOM      2  C   UNL     1      -0.388  10.228  21.613  0.00  0.00    +0.000 A 
ATOM      3  C   UNL     1       0.060   9.198  22.438  0.00  0.00    +0.000 A 
ATOM      4  C   UNL     1       0.961   8.256  21.947  0.00  0.00    +0.000 A 
ATOM      5  C   UNL     1       1.420   8.338  20.635  0.00  0.00    +0.000 A 
ATOM      6  C   UNL     1       0.996   9.408  19.837  0.00  0.00    +0.000 A 
ENDROOT
BRANCH   1   7
ATOM      7  C   UNL     1      -0.502  11.520  19.312  0.00  0.00    +0.000 C 
ATOM      8  C   UNL     1      -1.384  11.080  18.108  0.00  0.00    +0.000 C 
ATOM      9  O   UNL     1      -2.518  11.834  18.582  0.00  0.00    +0.000 OA
ATOM     10  C   UNL     1      -1.821  12.202  19.785  0.00  0.00    +0.000 C 
BRANCH   7  11
ATOM     11  C   UNL     1       0.595  12.555  18.968  0.00  0.00    +0.000 C 
BRANCH  11  17
ATOM     12  C   UNL     1      -0.218  15.601  19.227  0.00  0.00    +0.000 C 
ATOM     13  N   UNL     1       0.546  14.820  20.165  0.00  0.00    +0.000 N 
ATOM     14  C   UNL     1       1.073  15.295  21.330  0.00  0.00    +0.000 A 
ATOM     15  N   UNL     1       1.727  14.339  21.935  0.00  0.00    +0.000 NA
ATOM     16  N   UNL     1       1.645  13.220  21.147  0.00  0.00    +0.000 NA
ATOM     17  C   UNL     1       0.916  13.500  20.087  0.00  0.00    +0.000 A 
ENDBRANCH  11  17
ENDBRANCH   7  11
ENDBRANCH   1   7
BRANCH   5  18
ATOM     18  N   UNL     1       2.274   7.381  20.041  0.00  0.00    +0.000 N 
ATOM     19  C   UNL     1       2.116   6.013  20.127  0.00  0.00    +0.000 C 
ATOM     20  O   UNL     1       1.222   5.417  20.720  0.00  0.00    +0.000 OA
ATOM     21  H   UNL     1       2.943   7.748  19.375  0.00  0.00    +0.000 HD
BRANCH  19  22
ATOM     22  C   UNL     1       3.094   5.188  19.381  0.00  0.00    +0.000 A 
ATOM     23  C   UNL     1       2.766   3.978  18.784  0.00  0.00    +0.000 A 
ATOM     24  C   UNL     1       3.752   3.349  18.052  0.00  0.00    +0.000 A 
ATOM     25  F   UNL     1       3.452   2.191  17.448  0.00  0.00    +0.000 F 
ATOM     26  N   UNL     1       5.004   3.829  17.884  0.00  0.00    +0.000 NA
ATOM     27  C   UNL     1       5.312   5.012  18.473  0.00  0.00    +0.000 A 
ATOM     28  C   UNL     1       4.381   5.711  19.227  0.00  0.00    +0.000 A 
BRANCH  27  29
ATOM     29  C   UNL     1       6.704   5.594  18.275  0.00  0.00    +0.000 C 
ATOM     30  C   UNL     1       7.628   4.565  17.634  0.00  0.00    +0.000 C 
ATOM     31  C   UNL     1       6.629   6.874  17.444  0.00  0.00    +0.000 C 
ATOM     32  F   UNL     1       7.292   5.944  19.468  0.00  0.00    +0.000 F 
ENDBRANCH  27  29
ENDBRANCH  19  22
ENDBRANCH   5  18
TORSDOF 6
ENDMDL
MODEL 4
REMARK VINA RESULT:      -8.9      2.425      3.083
REMARK  Name = 
REMARK  9 active torsions:
REMARK  status: ('A' for Active; 'I' for Inactive)
REMARK    1  A    between atoms: C_1  and  N_2
REMARK    2  A    between atoms: C_6  and  C_7
REMARK    3  A    between atoms: C_7  and  C_8
REMARK    4  A    between atoms: C_8  and  C_9
REMARK    5  A    between atoms: C_13  and  N_14
REMARK    6  A    between atoms: C_15  and  C_17
REMARK    7  A    between atoms: C_22  and  C_23
REMARK    8  A    between atoms: C_23  and  C_24
REMARK    9  A    between atoms: C_23  and  C_25
REMARK                            x       y       z     vdW  Elec       q    Type
REMARK                         _______ _______ _______ _____ _____    ______ ____
ROOT
ATOM      1  C   UNL     1       5.396   5.474  18.636  0.00  0.00    +0.000 A 
ATOM      2  C   UNL     1       5.009   4.242  19.196  0.00  0.00    +0.000 A 
ATOM      3  C   UNL     1       3.723   4.031  19.689  0.00  0.00    +0.000 A 
ATOM      4  C   UNL     1       2.786   5.061  19.655  0.00  0.00    +0.000 A 
ATOM      5  C   UNL     1       3.127   6.304  19.129  0.00  0.00    +0.000 A 
ATOM      6  C   UNL     1       4.409   6.483  18.594  0.00  0.00    +0.000 A 
ENDROOT
BRANCH   1   7
ATOM      7  C   UNL     1       6.900   5.741  18.121  0.00  0.00    +0.000 C 
ATOM      8  C   UNL     1       7.227   7.152  17.551  0.00  0.00    +0.000 C 
ATOM      9  O   UNL     1       8.225   7.398  18.562  0.00  0.00    +0.000 OA
ATOM     10  C   UNL     1       7.913   6.161  19.227  0.00  0.00    +0.000 C 
BRANCH   7  11
ATOM     11  C   UNL     1       7.424   4.560  17.271  0.00  0.00    +0.000 C 
BRANCH  11  17
ATOM     12  C   UNL     1       4.893   3.265  15.884  0.00  0.00    +0.000 C 
ATOM     13  N   UNL     1       5.924   4.050  15.257  0.00  0.00    +0.000 N 
ATOM     14  C   UNL     1       5.983   4.342  13.926  0.00  0.00    +0.000 A 
ATOM     15  N   UNL     1       7.053   5.050  13.680  0.00  0.00    +0.000 NA
ATOM     16  N   UNL     1       7.721   5.213  14.867  0.00  0.00    +0.000 NA
ATOM     17  C   UNL     1       7.033   4.628  15.825  0.00  0.00    +0.000 A 
ENDBRANCH  11  17
ENDBRANCH   7  11
ENDBRANCH   1   7
BRANCH   5  18
ATOM     18  N   UNL     1       2.259   7.420  19.128  0.00  0.00    +0.000 N 
ATOM     19  C   UNL     1       2.176   8.362  18.123  0.00  0.00    +0.000 C 
ATOM     20  O   UNL     1       2.829   8.380  17.084  0.00  0.00    +0.000 OA
ATOM     21  H   UNL     1       1.543   7.417  19.844  0.00  0.00    +0.000 HD
BRANCH  19  22
ATOM     22  C   UNL     1       1.158   9.424  18.295  0.00  0.00    +0.000 A 
ATOM     23  C   UNL     1       1.390  10.585  19.020  0.00  0.00    +0.000 A 
ATOM     24  C   UNL     1       0.382  11.528  19.035  0.00  0.00    +0.000 A 
ATOM     25  F   UNL     1       0.591  12.668  19.710  0.00  0.00    +0.000 F 
ATOM     26  N   UNL     1      -0.802  11.395  18.400  0.00  0.00    +0.000 NA
ATOM     27  C   UNL     1      -1.015  10.254  17.695  0.00  0.00    +0.000 A 
ATOM     28  C   UNL     1      -0.058   9.253  17.627  0.00  0.00    +0.000 A 
BRANCH  27  29
ATOM     29  C   UNL     1      -2.327  10.087  16.942  0.00  0.00    +0.000 C 
ATOM     30  C   UNL     1      -3.416   9.567  17.873  0.00  0.00    +0.000 C 
ATOM     31  C   UNL     1      -2.733  11.407  16.288  0.00  0.00    +0.000 C 
ATOM     32  F   UNL     1      -2.224   9.169  15.923  0.00  0.00    +0.000 F 
ENDBRANCH  27  29
ENDBRANCH  19  22
ENDBRANCH   5  18
TORSDOF 6
ENDMDL
MODEL 5
REMARK VINA RESULT:      -8.8      4.008      9.393
REMARK  Name = 
REMARK  9 active torsions:
REMARK  status: ('A' for Active; 'I' for Inactive)
REMARK    1  A    between atoms: C_1  and  N_2
REMARK    2  A    between atoms: C_6  and  C_7
REMARK    3  A    between atoms: C_7  and  C_8
REMARK    4  A    between atoms: C_8  and  C_9
REMARK    5  A    between atoms: C_13  and  N_14
REMARK    6  A    between atoms: C_15  and  C_17
REMARK    7  A    between atoms: C_22  and  C_23
REMARK    8  A    between atoms: C_23  and  C_24
REMARK    9  A    between atoms: C_23  and  C_25
REMARK                            x       y       z     vdW  Elec       q    Type
REMARK                         _______ _______ _______ _____ _____    ______ ____
ROOT
ATOM      1  C   UNL     1      -0.435  10.927  20.381  0.00  0.00    +0.000 A 
ATOM      2  C   UNL     1      -0.574  10.877  21.781  0.00  0.00    +0.000 A 
ATOM      3  C   UNL     1       0.071   9.911  22.550  0.00  0.00    +0.000 A 
ATOM      4  C   UNL     1       0.863   8.945  21.933  0.00  0.00    +0.000 A 
ATOM      5  C   UNL     1       1.016   8.940  20.549  0.00  0.00    +0.000 A 
ATOM      6  C   UNL     1       0.398   9.948  19.797  0.00  0.00    +0.000 A 
ENDROOT
BRANCH   1   7
ATOM      7  C   UNL     1      -1.229  12.006  19.484  0.00  0.00    +0.000 C 
ATOM      8  C   UNL     1      -1.125  13.502  19.896  0.00  0.00    +0.000 C 
ATOM      9  O   UNL     1      -0.521  13.871  18.639  0.00  0.00    +0.000 OA
ATOM     10  C   UNL     1      -0.470  12.498  18.216  0.00  0.00    +0.000 C 
BRANCH   7  11
ATOM     11  C   UNL     1      -2.660  11.521  19.153  0.00  0.00    +0.000 C 
BRANCH  11  17
ATOM     12  C   UNL     1      -5.033  12.050  17.128  0.00  0.00    +0.000 C 
ATOM     13  N   UNL     1      -3.865  11.237  16.909  0.00  0.00    +0.000 N 
ATOM     14  C   UNL     1      -3.609  10.529  15.772  0.00  0.00    +0.000 A 
ATOM     15  N   UNL     1      -2.482   9.881  15.906  0.00  0.00    +0.000 NA
ATOM     16  N   UNL     1      -1.996  10.152  17.159  0.00  0.00    +0.000 NA
ATOM     17  C   UNL     1      -2.817  10.986  17.761  0.00  0.00    +0.000 A 
ENDBRANCH  11  17
ENDBRANCH   7  11
ENDBRANCH   1   7
BRANCH   5  18
ATOM     18  N   UNL     1       1.738   7.951  19.843  0.00  0.00    +0.000 N 
ATOM     19  C   UNL     1       2.239   8.094  18.565  0.00  0.00    +0.000 C 
ATOM     20  O   UNL     1       2.142   9.086  17.850  0.00  0.00    +0.000 OA
ATOM     21  H   UNL     1       2.040   7.156  20.392  0.00  0.00    +0.000 HD
BRANCH  19  22
ATOM     22  C   UNL     1       3.018   6.952  18.030  0.00  0.00    +0.000 A 
ATOM     23  C   UNL     1       4.173   7.110  17.277  0.00  0.00    +0.000 A 
ATOM     24  C   UNL     1       4.845   5.963  16.908  0.00  0.00    +0.000 A 
ATOM     25  F   UNL     1       5.976   6.090  16.200  0.00  0.00    +0.000 F 
ATOM     26  N   UNL     1       4.453   4.710  17.227  0.00  0.00    +0.000 NA
ATOM     27  C   UNL     1       3.322   4.570  17.963  0.00  0.00    +0.000 A 
ATOM     28  C   UNL     1       2.583   5.669  18.376  0.00  0.00    +0.000 A 
BRANCH  27  29
ATOM     29  C   UNL     1       2.871   3.173  18.365  0.00  0.00    +0.000 C 
ATOM     30  C   UNL     1       3.456   2.792  19.720  0.00  0.00    +0.000 C 
ATOM     31  C   UNL     1       1.345   3.090  18.371  0.00  0.00    +0.000 C 
ATOM     32  F   UNL     1       3.305   2.215  17.479  0.00  0.00    +0.000 F 
ENDBRANCH  27  29
ENDBRANCH  19  22
ENDBRANCH   5  18
TORSDOF 6
ENDMDL
MODEL 6
REMARK VINA RESULT:      -8.8      4.155      9.380
REMARK  Name = 
REMARK  9 active torsions:
REMARK  status: ('A' for Active; 'I' for Inactive)
REMARK    1  A    between atoms: C_1  and  N_2
REMARK    2  A    between atoms: C_6  and  C_7
REMARK    3  A    between atoms: C_7  and  C_8
REMARK    4  A    between atoms: C_8  and  C_9
REMARK    5  A    between atoms: C_13  and  N_14
REMARK    6  A    between atoms: C_15  and  C_17
REMARK    7  A    between atoms: C_22  and  C_23
REMARK    8  A    between atoms: C_23  and  C_24
REMARK    9  A    between atoms: C_23  and  C_25
REMARK                            x       y       z     vdW  Elec       q    Type
REMARK                         _______ _______ _______ _____ _____    ______ ____
ROOT
ATOM      1  C   UNL     1       0.014  10.288  20.135  0.00  0.00    +0.000 A 
ATOM      2  C   UNL     1      -0.264  10.289  21.514  0.00  0.00    +0.000 A 
ATOM      3  C   UNL     1       0.338   9.385  22.387  0.00  0.00    +0.000 A 
ATOM      4  C   UNL     1       1.228   8.432  21.896  0.00  0.00    +0.000 A 
ATOM      5  C   UNL     1       1.521   8.377  20.537  0.00  0.00    +0.000 A 
ATOM      6  C   UNL     1       0.943   9.325  19.682  0.00  0.00    +0.000 A 
ENDROOT
BRANCH   1   7
ATOM      7  C   UNL     1      -0.727  11.292  19.115  0.00  0.00    +0.000 C 
ATOM      8  C   UNL     1      -1.484  12.508  19.722  0.00  0.00    +0.000 C 
ATOM      9  O   UNL     1      -0.651  13.455  19.022  0.00  0.00    +0.000 OA
ATOM     10  C   UNL     1       0.178  12.401  18.502  0.00  0.00    +0.000 C 
BRANCH   7  11
ATOM     11  C   UNL     1      -1.511  10.516  18.029  0.00  0.00    +0.000 C 
BRANCH  11  17
ATOM     12  C   UNL     1      -3.022  10.808  15.265  0.00  0.00    +0.000 C 
ATOM     13  N   UNL     1      -3.522  11.148  16.571  0.00  0.00    +0.000 N 
ATOM     14  C   UNL     1      -4.749  11.688  16.822  0.00  0.00    +0.000 A 
ATOM     15  N   UNL     1      -4.881  11.898  18.105  0.00  0.00    +0.000 NA
ATOM     16  N   UNL     1      -3.713  11.506  18.709  0.00  0.00    +0.000 NA
ATOM     17  C   UNL     1      -2.898  11.034  17.790  0.00  0.00    +0.000 A 
ENDBRANCH  11  17
ENDBRANCH   7  11
ENDBRANCH   1   7
BRANCH   5  18
ATOM     18  N   UNL     1       2.353   7.395  19.952  0.00  0.00    +0.000 N 
ATOM     19  C   UNL     1       2.186   6.031  20.084  0.00  0.00    +0.000 C 
ATOM     20  O   UNL     1       1.303   5.462  20.717  0.00  0.00    +0.000 OA
ATOM     21  H   UNL     1       3.008   7.735  19.258  0.00  0.00    +0.000 HD
BRANCH  19  22
ATOM     22  C   UNL     1       3.140   5.175  19.340  0.00  0.00    +0.000 A 
ATOM     23  C   UNL     1       2.801   3.927  18.835  0.00  0.00    +0.000 A 
ATOM     24  C   UNL     1       3.760   3.268  18.093  0.00  0.00    +0.000 A 
ATOM     25  F   UNL     1       3.449   2.071  17.576  0.00  0.00    +0.000 F 
ATOM     26  N   UNL     1       4.994   3.753  17.833  0.00  0.00    +0.000 NA
ATOM     27  C   UNL     1       5.311   4.973  18.334  0.00  0.00    +0.000 A 
ATOM     28  C   UNL     1       4.409   5.705  19.091  0.00  0.00    +0.000 A 
BRANCH  27  29
ATOM     29  C   UNL     1       6.683   5.561  18.031  0.00  0.00    +0.000 C 
ATOM     30  C   UNL     1       6.545   6.886  17.290  0.00  0.00    +0.000 C 
ATOM     31  C   UNL     1       7.485   5.721  19.322  0.00  0.00    +0.000 C 
ATOM     32  F   UNL     1       7.427   4.741  17.215  0.00  0.00    +0.000 F 
ENDBRANCH  27  29
ENDBRANCH  19  22
ENDBRANCH   5  18
TORSDOF 6
ENDMDL
MODEL 7
REMARK VINA RESULT:      -8.8      4.121      9.198
REMARK  Name = 
REMARK  9 active torsions:
REMARK  status: ('A' for Active; 'I' for Inactive)
REMARK    1  A    between atoms: C_1  and  N_2
REMARK    2  A    between atoms: C_6  and  C_7
REMARK    3  A    between atoms: C_7  and  C_8
REMARK    4  A    between atoms: C_8  and  C_9
REMARK    5  A    between atoms: C_13  and  N_14
REMARK    6  A    between atoms: C_15  and  C_17
REMARK    7  A    between atoms: C_22  and  C_23
REMARK    8  A    between atoms: C_23  and  C_24
REMARK    9  A    between atoms: C_23  and  C_25
REMARK                            x       y       z     vdW  Elec       q    Type
REMARK                         _______ _______ _______ _____ _____    ______ ____
ROOT
ATOM      1  C   UNL     1      -0.351  10.109  20.351  0.00  0.00    +0.000 A 
ATOM      2  C   UNL     1      -0.503  10.289  21.739  0.00  0.00    +0.000 A 
ATOM      3  C   UNL     1       0.287   9.605  22.661  0.00  0.00    +0.000 A 
ATOM      4  C   UNL     1       1.246   8.697  22.217  0.00  0.00    +0.000 A 
ATOM      5  C   UNL     1       1.421   8.469  20.855  0.00  0.00    +0.000 A 
ATOM      6  C   UNL     1       0.651   9.201  19.942  0.00  0.00    +0.000 A 
ENDROOT
BRANCH   1   7
ATOM      7  C   UNL     1      -1.305  10.851  19.285  0.00  0.00    +0.000 C 
ATOM      8  C   UNL     1      -2.020  12.155  19.743  0.00  0.00    +0.000 C 
ATOM      9  O   UNL     1      -1.367  12.944  18.727  0.00  0.00    +0.000 OA
ATOM     10  C   UNL     1      -0.576  11.819  18.306  0.00  0.00    +0.000 C 
BRANCH   7  11
ATOM     11  C   UNL     1      -2.210   9.843  18.539  0.00  0.00    +0.000 C 
BRANCH  11  17
ATOM     12  C   UNL     1      -5.066  11.168  18.225  0.00  0.00    +0.000 C 
ATOM     13  N   UNL     1      -4.083  10.960  17.193  0.00  0.00    +0.000 N 
ATOM     14  C   UNL     1      -4.248  11.289  15.880  0.00  0.00    +0.000 A 
ATOM     15  N   UNL     1      -3.181  10.948  15.206  0.00  0.00    +0.000 NA
ATOM     16  N   UNL     1      -2.304  10.369  16.088  0.00  0.00    +0.000 NA
ATOM     17  C   UNL     1      -2.836  10.392  17.292  0.00  0.00    +0.000 A 
ENDBRANCH  11  17
ENDBRANCH   7  11
ENDBRANCH   1   7
BRANCH   5  18
ATOM     18  N   UNL     1       2.317   7.511  20.329  0.00  0.00    +0.000 N 
ATOM     19  C   UNL     1       2.105   6.147  20.314  0.00  0.00    +0.000 C 
ATOM     20  O   UNL     1       1.119   5.558  20.745  0.00  0.00    +0.000 OA
ATOM     21  H   UNL     1       3.083   7.884  19.782  0.00  0.00    +0.000 HD
BRANCH  19  22
ATOM     22  C   UNL     1       3.149   5.323  19.662  0.00  0.00    +0.000 A 
ATOM     23  C   UNL     1       3.114   3.935  19.639  0.00  0.00    +0.000 A 
ATOM     24  C   UNL     1       4.108   3.293  18.929  0.00  0.00    +0.000 A 
ATOM     25  F   UNL     1       4.083   1.954  18.873  0.00  0.00    +0.000 F 
ATOM     26  N   UNL     1       5.104   3.921  18.266  0.00  0.00    +0.000 NA
ATOM     27  C   UNL     1       5.126   5.278  18.298  0.00  0.00    +0.000 A 
ATOM     28  C   UNL     1       4.167   6.004  18.988  0.00  0.00    +0.000 A 
BRANCH  27  29
ATOM     29  C   UNL     1       6.217   6.016  17.534  0.00  0.00    +0.000 C 
ATOM     30  C   UNL     1       7.515   6.026  18.332  0.00  0.00    +0.000 C 
ATOM     31  C   UNL     1       6.413   5.389  16.154  0.00  0.00    +0.000 C 
ATOM     32  F   UNL     1       5.892   7.334  17.315  0.00  0.00    +0.000 F 
ENDBRANCH  27  29
ENDBRANCH  19  22
ENDBRANCH   5  18
TORSDOF 6
ENDMDL
MODEL 8
REMARK VINA RESULT:      -8.8      4.530     10.186
REMARK  Name = 
REMARK  9 active torsions:
REMARK  status: ('A' for Active; 'I' for Inactive)
REMARK    1  A    between atoms: C_1  and  N_2
REMARK    2  A    between atoms: C_6  and  C_7
REMARK    3  A    between atoms: C_7  and  C_8
REMARK    4  A    between atoms: C_8  and  C_9
REMARK    5  A    between atoms: C_13  and  N_14
REMARK    6  A    between atoms: C_15  and  C_17
REMARK    7  A    between atoms: C_22  and  C_23
REMARK    8  A    between atoms: C_23  and  C_24
REMARK    9  A    between atoms: C_23  and  C_25
REMARK                            x       y       z     vdW  Elec       q    Type
REMARK                         _______ _______ _______ _____ _____    ______ ____
ROOT
ATOM      1  C   UNL     1      -1.169  10.485  17.693  0.00  0.00    +0.000 A 
ATOM      2  C   UNL     1      -0.750  11.502  18.570  0.00  0.00    +0.000 A 
ATOM      3  C   UNL     1       0.517  11.499  19.150  0.00  0.00    +0.000 A 
ATOM      4  C   UNL     1       1.402  10.457  18.881  0.00  0.00    +0.000 A 
ATOM      5  C   UNL     1       1.028   9.417  18.035  0.00  0.00    +0.000 A 
ATOM      6  C   UNL     1      -0.232   9.462  17.425  0.00  0.00    +0.000 A 
ENDROOT
BRANCH   1   7
ATOM      7  C   UNL     1      -2.655  10.453  17.071  0.00  0.00    +0.000 C 
ATOM      8  C   UNL     1      -3.049  11.593  16.087  0.00  0.00    +0.000 C 
ATOM      9  O   UNL     1      -3.281  10.665  15.007  0.00  0.00    +0.000 OA
ATOM     10  C   UNL     1      -2.825   9.560  15.806  0.00  0.00    +0.000 C 
BRANCH   7  11
ATOM     11  C   UNL     1      -3.714  10.135  18.153  0.00  0.00    +0.000 C 
BRANCH  11  17
ATOM     12  C   UNL     1      -3.724  12.633  20.095  0.00  0.00    +0.000 C 
ATOM     13  N   UNL     1      -4.746  12.257  19.153  0.00  0.00    +0.000 N 
ATOM     14  C   UNL     1      -5.920  12.925  18.966  0.00  0.00    +0.000 A 
ATOM     15  N   UNL     1      -6.633  12.312  18.058  0.00  0.00    +0.000 NA
ATOM     16  N   UNL     1      -5.924  11.211  17.651  0.00  0.00    +0.000 NA
ATOM     17  C   UNL     1      -4.776  11.184  18.295  0.00  0.00    +0.000 A 
ENDBRANCH  11  17
ENDBRANCH   7  11
ENDBRANCH   1   7
BRANCH   5  18
ATOM     18  N   UNL     1       1.838   8.289  17.774  0.00  0.00    +0.000 N 
ATOM     19  C   UNL     1       2.283   7.391  18.724  0.00  0.00    +0.000 C 
ATOM     20  O   UNL     1       2.047   7.427  19.928  0.00  0.00    +0.000 OA
ATOM     21  H   UNL     1       1.949   8.048  16.796  0.00  0.00    +0.000 HD
BRANCH  19  22
ATOM     22  C   UNL     1       3.076   6.243  18.227  0.00  0.00    +0.000 A 
ATOM     23  C   UNL     1       2.518   5.005  17.939  0.00  0.00    +0.000 A 
ATOM     24  C   UNL     1       3.357   4.046  17.408  0.00  0.00    +0.000 A 
ATOM     25  F   UNL     1       2.836   2.849  17.101  0.00  0.00    +0.000 F 
ATOM     26  N   UNL     1       4.670   4.232  17.156  0.00  0.00    +0.000 NA
ATOM     27  C   UNL     1       5.203   5.447  17.443  0.00  0.00    +0.000 A 
ATOM     28  C   UNL     1       4.434   6.468  17.980  0.00  0.00    +0.000 A 
BRANCH  27  29
ATOM     29  C   UNL     1       6.673   5.698  17.140  0.00  0.00    +0.000 C 
ATOM     30  C   UNL     1       7.528   5.415  18.371  0.00  0.00    +0.000 C 
ATOM     31  C   UNL     1       7.118   4.857  15.945  0.00  0.00    +0.000 C 
ATOM     32  F   UNL     1       6.914   7.009  16.800  0.00  0.00    +0.000 F 
ENDBRANCH  27  29
ENDBRANCH  19  22
ENDBRANCH   5  18
TORSDOF 6
ENDMDL
MODEL 9
REMARK VINA RESULT:      -8.7      3.673      9.487
REMARK  Name = 
REMARK  9 active torsions:
REMARK  status: ('A' for Active; 'I' for Inactive)
REMARK    1  A    between atoms: C_1  and  N_2
REMARK    2  A    between atoms: C_6  and  C_7
REMARK    3  A    between atoms: C_7  and  C_8
REMARK    4  A    between atoms: C_8  and  C_9
REMARK    5  A    between atoms: C_13  and  N_14
REMARK    6  A    between atoms: C_15  and  C_17
REMARK    7  A    between atoms: C_22  and  C_23
REMARK    8  A    between atoms: C_23  and  C_24
REMARK    9  A    between atoms: C_23  and  C_25
REMARK                            x       y       z     vdW  Elec       q    Type
REMARK                         _______ _______ _______ _____ _____    ______ ____
ROOT
ATOM      1  C   UNL     1      -0.584  10.943  20.003  0.00  0.00    +0.000 A 
ATOM      2  C   UNL     1      -0.577  11.063  21.405  0.00  0.00    +0.000 A 
ATOM      3  C   UNL     1       0.203  10.236  22.211  0.00  0.00    +0.000 A 
ATOM      4  C   UNL     1       0.990   9.242  21.632  0.00  0.00    +0.000 A 
ATOM      5  C   UNL     1       1.003   9.070  20.251  0.00  0.00    +0.000 A 
ATOM      6  C   UNL     1       0.249   9.942  19.454  0.00  0.00    +0.000 A 
ENDROOT
BRANCH   1   7
ATOM      7  C   UNL     1      -1.531  11.856  19.073  0.00  0.00    +0.000 C 
ATOM      8  C   UNL     1      -2.644  11.140  18.254  0.00  0.00    +0.000 C 
ATOM      9  O   UNL     1      -3.693  11.874  18.919  0.00  0.00    +0.000 OA
ATOM     10  C   UNL     1      -2.747  12.504  19.800  0.00  0.00    +0.000 C 
BRANCH   7  11
ATOM     11  C   UNL     1      -0.708  12.897  18.277  0.00  0.00    +0.000 C 
BRANCH  11  17
ATOM     12  C   UNL     1       2.446  12.659  18.203  0.00  0.00    +0.000 C 
ATOM     13  N   UNL     1       1.656  13.518  19.047  0.00  0.00    +0.000 N 
ATOM     14  C   UNL     1       2.160  14.365  19.988  0.00  0.00    +0.000 A 
ATOM     15  N   UNL     1       1.178  14.981  20.593  0.00  0.00    +0.000 NA
ATOM     16  N   UNL     1       0.006  14.518  20.053  0.00  0.00    +0.000 NA
ATOM     17  C   UNL     1       0.289  13.649  19.105  0.00  0.00    +0.000 A 
ENDBRANCH  11  17
ENDBRANCH   7  11
ENDBRANCH   1   7
BRANCH   5  18
ATOM     18  N   UNL     1       1.714   8.040  19.595  0.00  0.00    +0.000 N 
ATOM     19  C   UNL     1       2.282   8.139  18.341  0.00  0.00    +0.000 C 
ATOM     20  O   UNL     1       2.265   9.123  17.608  0.00  0.00    +0.000 OA
ATOM     21  H   UNL     1       1.953   7.241  20.170  0.00  0.00    +0.000 HD
BRANCH  19  22
ATOM     22  C   UNL     1       3.033   6.955  17.862  0.00  0.00    +0.000 A 
ATOM     23  C   UNL     1       4.257   7.048  17.212  0.00  0.00    +0.000 A 
ATOM     24  C   UNL     1       4.887   5.864  16.888  0.00  0.00    +0.000 A 
ATOM     25  F   UNL     1       6.081   5.927  16.280  0.00  0.00    +0.000 F 
ATOM     26  N   UNL     1       4.395   4.635  17.158  0.00  0.00    +0.000 NA
ATOM     27  C   UNL     1       3.198   4.560  17.793  0.00  0.00    +0.000 A 
ATOM     28  C   UNL     1       2.494   5.699  18.154  0.00  0.00    +0.000 A 
BRANCH  27  29
ATOM     29  C   UNL     1       2.631   3.190  18.139  0.00  0.00    +0.000 C 
ATOM     30  C   UNL     1       3.615   2.406  19.000  0.00  0.00    +0.000 C 
ATOM     31  C   UNL     1       1.277   3.338  18.830  0.00  0.00    +0.000 C 
ATOM     32  F   UNL     1       2.409   2.425  17.018  0.00  0.00    +0.000 F 
ENDBRANCH  27  29
ENDBRANCH  19  22
ENDBRANCH   5  18
TORSDOF 6
ENDMDL
