MODEL 1
REMARK VINA RESULT:      -9.6      0.000      0.000
REMARK  Name = 
REMARK  5 active torsions:
REMARK  status: ('A' for Active; 'I' for Inactive)
REMARK    1  A    between atoms: C_2  and  C_15
REMARK    2  A    between atoms: N_3  and  C_4
REMARK    3  A    between atoms: C_4  and  C_5
REMARK    4  A    between atoms: N_18  and  S_19
REMARK    5  A    between atoms: S_19  and  C_22
REMARK                            x       y       z     vdW  Elec       q    Type
REMARK                         _______ _______ _______ _____ _____    ______ ____
ROOT
ATOM      1  C   UNL     1       7.968   5.775  18.546  0.00  0.00    +0.000 C 
ATOM      2  C   UNL     1       7.815   4.519  17.677  0.00  0.00    +0.000 C 
ATOM      3  C   UNL     1       6.387   4.346  17.149  0.00  0.00    +0.000 C 
ATOM      4  N   UNL     1       5.416   4.309  18.283  0.00  0.00    +0.000 NA
ATOM      5  C   UNL     1       5.511   5.536  19.134  0.00  0.00    +0.000 C 
ATOM      6  C   UNL     1       6.928   5.723  19.669  0.00  0.00    +0.000 C 
ENDROOT
BRANCH   1   8
ATOM      7  O   UNL     1       7.566   7.022  16.511  0.00  0.00    +0.000 OA
ATOM      8  C   UNL     1       7.887   7.049  17.695  0.00  0.00    +0.000 C 
ATOM      9  N   UNL     1       8.228   8.214  18.340  0.00  0.00    +0.000 N 
ATOM     10  H   UNL     1       8.614   8.189  19.273  0.00  0.00    +0.000 HD
BRANCH   9  11
ATOM     11  C   UNL     1       8.167   9.496  17.669  0.00  0.00    +0.000 C 
BRANCH  11  12
ATOM     12  C   UNL     1       8.885  10.570  18.445  0.00  0.00    +0.000 A 
ATOM     13  C   UNL     1       9.443  10.288  19.701  0.00  0.00    +0.000 A 
ATOM     14  C   UNL     1      10.135  11.274  20.411  0.00  0.00    +0.000 A 
ATOM     15  C   UNL     1      10.261  12.554  19.878  0.00  0.00    +0.000 A 
ATOM     16  C   UNL     1       9.714  12.845  18.624  0.00  0.00    +0.000 A 
ATOM     17  C   UNL     1       9.016  11.864  17.919  0.00  0.00    +0.000 A 
ATOM     18  O   UNL     1       9.821  14.074  18.025  0.00  0.00    +0.000 OA
ATOM     19  C   UNL     1      10.831  14.876  18.650  0.00  0.00    +0.000 C 
ATOM     20  C   UNL     1      10.715  14.807  20.164  0.00  0.00    +0.000 C 
ATOM     21  O   UNL     1      10.942  13.473  20.633  0.00  0.00    +0.000 OA
ENDBRANCH  11  12
ENDBRANCH   9  11
ENDBRANCH   1   8
BRANCH   4  22
ATOM     22  S   UNL     1       3.779   4.046  17.784  0.00  0.00    +0.000 S 
ATOM     23  O   UNL     1       3.237   5.320  17.355  0.00  0.00    +0.000 OA
ATOM     24  O   UNL     1       3.775   2.899  16.900  0.00  0.00    +0.000 OA
BRANCH  22  25
ATOM     25  C   UNL     1       2.921   3.605  19.276  0.00  0.00    +0.000 A 
ATOM     26  C   UNL     1       1.594   4.018  19.445  0.00  0.00    +0.000 A 
ATOM     27  C   UNL     1       0.890   3.614  20.581  0.00  0.00    +0.000 A 
ATOM     28  C   UNL     1       1.513   2.801  21.524  0.00  0.00    +0.000 A 
ATOM     29  F   UNL     1       0.831   2.407  22.608  0.00  0.00    +0.000 F 
ATOM     30  C   UNL     1       2.829   2.381  21.356  0.00  0.00    +0.000 A 
ATOM     31  C   UNL     1       3.543   2.783  20.224  0.00  0.00    +0.000 A 
ENDBRANCH  22  25
ENDBRANCH   4  22
TORSDOF 5
ENDMDL
MODEL 2
REMARK VINA RESULT:      -9.5      2.026      2.438
REMARK  Name = 
REMARK  5 active torsions:
REMARK  status: ('A' for Active; 'I' for Inactive)
REMARK    1  A    between atoms: C_2  and  C_15
REMARK    2  A    between atoms: N_3  and  C_4
REMARK    3  A    between atoms: C_4  and  C_5
REMARK    4  A    between atoms: N_18  and  S_19
REMARK    5  A    between atoms: S_19  and  C_22
REMARK                            x       y       z     vdW  Elec       q    Type
REMARK                         _______ _______ _______ _____ _____    ______ ____
ROOT
ATOM      1  C   UNL     1       7.833   5.754  18.173  0.00  0.00    +0.000 C 
ATOM      2  C   UNL     1       7.446   4.619  17.213  0.00  0.00    +0.000 C 
ATOM      3  C   UNL     1       5.929   4.445  17.099  0.00  0.00    +0.000 C 
ATOM      4  N   UNL     1       5.331   4.205  18.446  0.00  0.00    +0.000 NA
ATOM      5  C   UNL     1       5.657   5.310  19.401  0.00  0.00    +0.000 C 
ATOM      6  C   UNL     1       7.166   5.498  19.528  0.00  0.00    +0.000 C 
ENDROOT
BRANCH   1   8
ATOM      7  O   UNL     1       6.695   7.251  16.649  0.00  0.00    +0.000 OA
ATOM      8  C   UNL     1       7.492   7.124  17.572  0.00  0.00    +0.000 C 
ATOM      9  N   UNL     1       8.165   8.192  18.118  0.00  0.00    +0.000 N 
ATOM     10  H   UNL     1       8.910   8.043  18.783  0.00  0.00    +0.000 HD
BRANCH   9  11
ATOM     11  C   UNL     1       7.920   9.548  17.671  0.00  0.00    +0.000 C 
BRANCH  11  12
ATOM     12  C   UNL     1       8.815  10.539  18.370  0.00  0.00    +0.000 A 
ATOM     13  C   UNL     1       9.363  10.240  19.627  0.00  0.00    +0.000 A 
ATOM     14  C   UNL     1      10.217  11.145  20.265  0.00  0.00    +0.000 A 
ATOM     15  C   UNL     1      10.519  12.362  19.659  0.00  0.00    +0.000 A 
ATOM     16  C   UNL     1       9.985  12.667  18.403  0.00  0.00    +0.000 A 
ATOM     17  C   UNL     1       9.124  11.769  17.770  0.00  0.00    +0.000 A 
ATOM     18  O   UNL     1      10.257  13.833  17.734  0.00  0.00    +0.000 OA
ATOM     19  C   UNL     1      11.395  14.502  18.290  0.00  0.00    +0.000 C 
ATOM     20  C   UNL     1      11.317  14.530  19.808  0.00  0.00    +0.000 C 
ATOM     21  O   UNL     1      11.354  13.203  20.346  0.00  0.00    +0.000 OA
ENDBRANCH  11  12
ENDBRANCH   9  11
ENDBRANCH   1   8
BRANCH   4  22
ATOM     22  S   UNL     1       3.622   3.926  18.406  0.00  0.00    +0.000 S 
ATOM     23  O   UNL     1       3.253   3.637  17.036  0.00  0.00    +0.000 OA
ATOM     24  O   UNL     1       3.311   2.998  19.473  0.00  0.00    +0.000 OA
BRANCH  22  25
ATOM     25  C   UNL     1       2.902   5.500  18.806  0.00  0.00    +0.000 A 
ATOM     26  C   UNL     1       2.305   5.676  20.060  0.00  0.00    +0.000 A 
ATOM     27  C   UNL     1       1.802   6.931  20.409  0.00  0.00    +0.000 A 
ATOM     28  C   UNL     1       1.908   7.989  19.512  0.00  0.00    +0.000 A 
ATOM     29  F   UNL     1       1.433   9.194  19.855  0.00  0.00    +0.000 F 
ATOM     30  C   UNL     1       2.509   7.822  18.268  0.00  0.00    +0.000 A 
ATOM     31  C   UNL     1       3.012   6.569  17.907  0.00  0.00    +0.000 A 
ENDBRANCH  22  25
ENDBRANCH   4  22
TORSDOF 5
ENDMDL
MODEL 3
REMARK VINA RESULT:      -9.2      2.120      2.463
REMARK  Name = 
REMARK  5 active torsions:
REMARK  status: ('A' for Active; 'I' for Inactive)
REMARK    1  A    between atoms: C_2  and  C_15
REMARK    2  A    between atoms: N_3  and  C_4
REMARK    3  A    between atoms: C_4  and  C_5
REMARK    4  A    between atoms: N_18  and  S_19
REMARK    5  A    between atoms: S_19  and  C_22
REMARK                            x       y       z     vdW  Elec       q    Type
REMARK                         _______ _______ _______ _____ _____    ______ ____
ROOT
ATOM      1  C   UNL     1       7.743   5.866  17.773  0.00  0.00    +0.000 C 
ATOM      2  C   UNL     1       7.165   4.919  16.711  0.00  0.00    +0.000 C 
ATOM      3  C   UNL     1       5.652   4.729  16.863  0.00  0.00    +0.000 C 
ATOM      4  N   UNL     1       5.327   4.227  18.232  0.00  0.00    +0.000 NA
ATOM      5  C   UNL     1       5.845   5.145  19.295  0.00  0.00    +0.000 C 
ATOM      6  C   UNL     1       7.352   5.346  19.159  0.00  0.00    +0.000 C 
ENDROOT
BRANCH   1   8
ATOM      7  O   UNL     1       6.278   7.587  16.904  0.00  0.00    +0.000 OA
ATOM      8  C   UNL     1       7.306   7.315  17.517  0.00  0.00    +0.000 C 
ATOM      9  N   UNL     1       8.159   8.282  17.991  0.00  0.00    +0.000 N 
ATOM     10  H   UNL     1       9.060   8.029  18.373  0.00  0.00    +0.000 HD
BRANCH   9  11
ATOM     11  C   UNL     1       7.858   9.692  17.849  0.00  0.00    +0.000 C 
BRANCH  11  12
ATOM     12  C   UNL     1       8.959  10.559  18.404  0.00  0.00    +0.000 A 
ATOM     13  C   UNL     1       9.462  10.333  19.695  0.00  0.00    +0.000 A 
ATOM     14  C   UNL     1      10.503  11.117  20.201  0.00  0.00    +0.000 A 
ATOM     15  C   UNL     1      11.041  12.143  19.428  0.00  0.00    +0.000 A 
ATOM     16  C   UNL     1      10.553  12.373  18.138  0.00  0.00    +0.000 A 
ATOM     17  C   UNL     1       9.507  11.597  17.635  0.00  0.00    +0.000 A 
ATOM     18  O   UNL     1      11.049  13.346  17.309  0.00  0.00    +0.000 OA
ATOM     19  C   UNL     1      12.316  13.830  17.771  0.00  0.00    +0.000 C 
ATOM     20  C   UNL     1      12.282  14.091  19.268  0.00  0.00    +0.000 C 
ATOM     21  O   UNL     1      12.051  12.877  19.992  0.00  0.00    +0.000 OA
ENDBRANCH  11  12
ENDBRANCH   9  11
ENDBRANCH   1   8
BRANCH   4  22
ATOM     22  S   UNL     1       3.641   3.916  18.473  0.00  0.00    +0.000 S 
ATOM     23  O   UNL     1       3.058   3.609  17.183  0.00  0.00    +0.000 OA
ATOM     24  O   UNL     1       3.527   2.990  19.581  0.00  0.00    +0.000 OA
BRANCH  22  25
ATOM     25  C   UNL     1       2.964   5.478  18.979  0.00  0.00    +0.000 A 
ATOM     26  C   UNL     1       3.044   6.569  18.105  0.00  0.00    +0.000 A 
ATOM     27  C   UNL     1       2.450   7.781  18.465  0.00  0.00    +0.000 A 
ATOM     28  C   UNL     1       1.782   7.886  19.681  0.00  0.00    +0.000 A 
ATOM     29  F   UNL     1       1.205   9.046  20.018  0.00  0.00    +0.000 F 
ATOM     30  C   UNL     1       1.692   6.801  20.549  0.00  0.00    +0.000 A 
ATOM     31  C   UNL     1       2.286   5.586  20.200  0.00  0.00    +0.000 A 
ENDBRANCH  22  25
ENDBRANCH   4  22
TORSDOF 5
ENDMDL
MODEL 4
REMARK VINA RESULT:      -8.7      5.929      7.827
REMARK  Name = 
REMARK  5 active torsions:
REMARK  status: ('A' for Active; 'I' for Inactive)
REMARK    1  A    between atoms: C_2  and  C_15
REMARK    2  A    between atoms: N_3  and  C_4
REMARK    3  A    between atoms: C_4  and  C_5
REMARK    4  A    between atoms: N_18  and  S_19
REMARK    5  A    between atoms: S_19  and  C_22
REMARK                            x       y       z     vdW  Elec       q    Type
REMARK                         _______ _______ _______ _____ _____    ______ ____
ROOT
ATOM      1  C   UNL     1       2.005   3.628  19.142  0.00  0.00    +0.000 C 
ATOM      2  C   UNL     1       3.224   2.698  19.234  0.00  0.00    +0.000 C 
ATOM      3  C   UNL     1       4.545   3.448  19.042  0.00  0.00    +0.000 C 
ATOM      4  N   UNL     1       4.545   4.170  17.734  0.00  0.00    +0.000 NA
ATOM      5  C   UNL     1       3.390   5.114  17.622  0.00  0.00    +0.000 C 
ATOM      6  C   UNL     1       2.063   4.383  17.812  0.00  0.00    +0.000 C 
ENDROOT
BRANCH   1   8
ATOM      7  O   UNL     1       2.047   4.127  21.511  0.00  0.00    +0.000 OA
ATOM      8  C   UNL     1       1.921   4.550  20.366  0.00  0.00    +0.000 C 
ATOM      9  N   UNL     1       1.664   5.873  20.093  0.00  0.00    +0.000 N 
ATOM     10  H   UNL     1       1.435   6.167  19.154  0.00  0.00    +0.000 HD
BRANCH   9  11
ATOM     11  C   UNL     1       1.590   6.863  21.148  0.00  0.00    +0.000 C 
BRANCH  11  12
ATOM     12  C   UNL     1       1.389   8.252  20.600  0.00  0.00    +0.000 A 
ATOM     13  C   UNL     1       1.568   8.511  19.232  0.00  0.00    +0.000 A 
ATOM     14  C   UNL     1       1.355   9.792  18.716  0.00  0.00    +0.000 A 
ATOM     15  C   UNL     1       0.975  10.829  19.564  0.00  0.00    +0.000 A 
ATOM     16  C   UNL     1       0.787  10.582  20.927  0.00  0.00    +0.000 A 
ATOM     17  C   UNL     1       1.009   9.305  21.445  0.00  0.00    +0.000 A 
ATOM     18  O   UNL     1       0.389  11.545  21.818  0.00  0.00    +0.000 OA
ATOM     19  C   UNL     1      -0.142  12.693  21.145  0.00  0.00    +0.000 C 
ATOM     20  C   UNL     1       0.748  13.096  19.980  0.00  0.00    +0.000 C 
ATOM     21  O   UNL     1       0.793  12.061  18.991  0.00  0.00    +0.000 OA
ENDBRANCH  11  12
ENDBRANCH   9  11
ENDBRANCH   1   8
BRANCH   4  22
ATOM     22  S   UNL     1       6.031   4.993  17.397  0.00  0.00    +0.000 S 
ATOM     23  O   UNL     1       5.807   6.411  17.594  0.00  0.00    +0.000 OA
ATOM     24  O   UNL     1       7.081   4.299  18.114  0.00  0.00    +0.000 OA
BRANCH  22  25
ATOM     25  C   UNL     1       6.291   4.756  15.656  0.00  0.00    +0.000 A 
ATOM     26  C   UNL     1       7.409   5.340  15.050  0.00  0.00    +0.000 A 
ATOM     27  C   UNL     1       7.659   5.098  13.697  0.00  0.00    +0.000 A 
ATOM     28  C   UNL     1       6.801   4.275  12.974  0.00  0.00    +0.000 A 
ATOM     29  F   UNL     1       7.050   4.037  11.680  0.00  0.00    +0.000 F 
ATOM     30  C   UNL     1       5.693   3.685  13.575  0.00  0.00    +0.000 A 
ATOM     31  C   UNL     1       5.431   3.924  14.927  0.00  0.00    +0.000 A 
ENDBRANCH  22  25
ENDBRANCH   4  22
TORSDOF 5
ENDMDL
MODEL 5
REMARK VINA RESULT:      -8.6      6.007      8.474
REMARK  Name = 
REMARK  5 active torsions:
REMARK  status: ('A' for Active; 'I' for Inactive)
REMARK    1  A    between atoms: C_2  and  C_15
REMARK    2  A    between atoms: N_3  and  C_4
REMARK    3  A    between atoms: C_4  and  C_5
REMARK    4  A    between atoms: N_18  and  S_19
REMARK    5  A    between atoms: S_19  and  C_22
REMARK                            x       y       z     vdW  Elec       q    Type
REMARK                         _______ _______ _______ _____ _____    ______ ____
ROOT
ATOM      1  C   UNL     1       1.928   4.447  19.178  0.00  0.00    +0.000 C 
ATOM      2  C   UNL     1       2.951   3.302  19.162  0.00  0.00    +0.000 C 
ATOM      3  C   UNL     1       4.384   3.805  18.966  0.00  0.00    +0.000 C 
ATOM      4  N   UNL     1       4.486   4.604  17.708  0.00  0.00    +0.000 NA
ATOM      5  C   UNL     1       3.527   5.752  17.702  0.00  0.00    +0.000 C 
ATOM      6  C   UNL     1       2.092   5.269  17.897  0.00  0.00    +0.000 C 
ENDROOT
BRANCH   1   8
ATOM      7  O   UNL     1       2.305   4.770  21.548  0.00  0.00    +0.000 OA
ATOM      8  C   UNL     1       2.053   5.281  20.461  0.00  0.00    +0.000 C 
ATOM      9  N   UNL     1       1.831   6.629  20.313  0.00  0.00    +0.000 N 
ATOM     10  H   UNL     1       1.496   7.001  19.436  0.00  0.00    +0.000 HD
BRANCH   9  11
ATOM     11  C   UNL     1       1.947   7.542  21.433  0.00  0.00    +0.000 C 
BRANCH  11  12
ATOM     12  C   UNL     1       1.052   8.744  21.271  0.00  0.00    +0.000 A 
ATOM     13  C   UNL     1       0.792   9.272  19.996  0.00  0.00    +0.000 A 
ATOM     14  C   UNL     1      -0.060  10.368  19.840  0.00  0.00    +0.000 A 
ATOM     15  C   UNL     1      -0.649  10.956  20.957  0.00  0.00    +0.000 A 
ATOM     16  C   UNL     1      -0.403  10.435  22.231  0.00  0.00    +0.000 A 
ATOM     17  C   UNL     1       0.456   9.346  22.389  0.00  0.00    +0.000 A 
ATOM     18  O   UNL     1      -0.966  10.944  23.373  0.00  0.00    +0.000 OA
ATOM     19  C   UNL     1      -2.073  11.802  23.073  0.00  0.00    +0.000 C 
ATOM     20  C   UNL     1      -1.727  12.754  21.940  0.00  0.00    +0.000 C 
ATOM     21  O   UNL     1      -1.464  12.034  20.730  0.00  0.00    +0.000 OA
ENDBRANCH  11  12
ENDBRANCH   9  11
ENDBRANCH   1   8
BRANCH   4  22
ATOM     22  S   UNL     1       6.091   5.157  17.366  0.00  0.00    +0.000 S 
ATOM     23  O   UNL     1       6.108   6.597  17.529  0.00  0.00    +0.000 OA
ATOM     24  O   UNL     1       7.006   4.314  18.107  0.00  0.00    +0.000 OA
BRANCH  22  25
ATOM     25  C   UNL     1       6.316   4.838  15.633  0.00  0.00    +0.000 A 
ATOM     26  C   UNL     1       7.462   5.326  14.995  0.00  0.00    +0.000 A 
ATOM     27  C   UNL     1       7.681   5.018  13.651  0.00  0.00    +0.000 A 
ATOM     28  C   UNL     1       6.765   4.225  12.967  0.00  0.00    +0.000 A 
ATOM     29  F   UNL     1       6.984   3.923  11.681  0.00  0.00    +0.000 F 
ATOM     30  C   UNL     1       5.628   3.730  13.601  0.00  0.00    +0.000 A 
ATOM     31  C   UNL     1       5.397   4.036  14.944  0.00  0.00    +0.000 A 
ENDBRANCH  22  25
ENDBRANCH   4  22
TORSDOF 5
ENDMDL
MODEL 6
REMARK VINA RESULT:      -8.5      5.986      8.283
REMARK  Name = 
REMARK  5 active torsions:
REMARK  status: ('A' for Active; 'I' for Inactive)
REMARK    1  A    between atoms: C_2  and  C_15
REMARK    2  A    between atoms: N_3  and  C_4
REMARK    3  A    between atoms: C_4  and  C_5
REMARK    4  A    between atoms: N_18  and  S_19
REMARK    5  A    between atoms: S_19  and  C_22
REMARK                            x       y       z     vdW  Elec       q    Type
REMARK                         _______ _______ _______ _____ _____    ______ ____
ROOT
ATOM      1  C   UNL     1       1.928   4.435  19.181  0.00  0.00    +0.000 C 
ATOM      2  C   UNL     1       2.947   3.287  19.195  0.00  0.00    +0.000 C 
ATOM      3  C   UNL     1       4.386   3.783  19.025  0.00  0.00    +0.000 C 
ATOM      4  N   UNL     1       4.517   4.573  17.763  0.00  0.00    +0.000 NA
ATOM      5  C   UNL     1       3.562   5.724  17.729  0.00  0.00    +0.000 C 
ATOM      6  C   UNL     1       2.122   5.248  17.898  0.00  0.00    +0.000 C 
ENDROOT
BRANCH   1   8
ATOM      7  O   UNL     1       2.272   4.777  21.553  0.00  0.00    +0.000 OA
ATOM      8  C   UNL     1       2.029   5.278  20.460  0.00  0.00    +0.000 C 
ATOM      9  N   UNL     1       1.797   6.624  20.301  0.00  0.00    +0.000 N 
ATOM     10  H   UNL     1       1.469   6.986  19.417  0.00  0.00    +0.000 HD
BRANCH   9  11
ATOM     11  C   UNL     1       1.890   7.544  21.416  0.00  0.00    +0.000 C 
BRANCH  11  12
ATOM     12  C   UNL     1       0.953   8.714  21.257  0.00  0.00    +0.000 A 
ATOM     13  C   UNL     1       0.344   9.297  22.379  0.00  0.00    +0.000 A 
ATOM     14  C   UNL     1      -0.502  10.400  22.237  0.00  0.00    +0.000 A 
ATOM     15  C   UNL     1      -0.760  10.921  20.972  0.00  0.00    +0.000 A 
ATOM     16  C   UNL     1      -0.154  10.353  19.847  0.00  0.00    +0.000 A 
ATOM     17  C   UNL     1       0.684   9.245  19.986  0.00  0.00    +0.000 A 
ATOM     18  O   UNL     1      -0.339  10.827  18.574  0.00  0.00    +0.000 OA
ATOM     19  C   UNL     1      -0.910  12.141  18.582  0.00  0.00    +0.000 C 
ATOM     20  C   UNL     1      -2.064  12.222  19.569  0.00  0.00    +0.000 C 
ATOM     21  O   UNL     1      -1.607  11.996  20.907  0.00  0.00    +0.000 OA
ENDBRANCH  11  12
ENDBRANCH   9  11
ENDBRANCH   1   8
BRANCH   4  22
ATOM     22  S   UNL     1       6.131   5.118  17.452  0.00  0.00    +0.000 S 
ATOM     23  O   UNL     1       6.140   6.562  17.565  0.00  0.00    +0.000 OA
ATOM     24  O   UNL     1       7.023   4.303  18.249  0.00  0.00    +0.000 OA
BRANCH  22  25
ATOM     25  C   UNL     1       6.408   4.739  15.738  0.00  0.00    +0.000 A 
ATOM     26  C   UNL     1       5.484   3.936  15.061  0.00  0.00    +0.000 A 
ATOM     27  C   UNL     1       5.657   3.694  13.696  0.00  0.00    +0.000 A 
ATOM     28  C   UNL     1       6.738   4.260  13.028  0.00  0.00    +0.000 A 
ATOM     29  F   UNL     1       6.894   4.034  11.717  0.00  0.00    +0.000 F 
ATOM     30  C   UNL     1       7.655   5.068  13.696  0.00  0.00    +0.000 A 
ATOM     31  C   UNL     1       7.493   5.312  15.061  0.00  0.00    +0.000 A 
ENDBRANCH  22  25
ENDBRANCH   4  22
TORSDOF 5
ENDMDL
MODEL 7
REMARK VINA RESULT:      -8.3      6.003      7.905
REMARK  Name = 
REMARK  5 active torsions:
REMARK  status: ('A' for Active; 'I' for Inactive)
REMARK    1  A    between atoms: C_2  and  C_15
REMARK    2  A    between atoms: N_3  and  C_4
REMARK    3  A    between atoms: C_4  and  C_5
REMARK    4  A    between atoms: N_18  and  S_19
REMARK    5  A    between atoms: S_19  and  C_22
REMARK                            x       y       z     vdW  Elec       q    Type
REMARK                         _______ _______ _______ _____ _____    ______ ____
ROOT
ATOM      1  C   UNL     1       3.075   2.573  18.977  0.00  0.00    +0.000 C 
ATOM      2  C   UNL     1       4.526   2.801  19.421  0.00  0.00    +0.000 C 
ATOM      3  C   UNL     1       5.113   4.097  18.854  0.00  0.00    +0.000 C 
ATOM      4  N   UNL     1       5.025   4.096  17.363  0.00  0.00    +0.000 NA
ATOM      5  C   UNL     1       3.617   3.912  16.891  0.00  0.00    +0.000 C 
ATOM      6  C   UNL     1       3.016   2.625  17.448  0.00  0.00    +0.000 C 
ENDROOT
BRANCH   1   8
ATOM      7  O   UNL     1       0.908   3.496  19.536  0.00  0.00    +0.000 OA
ATOM      8  C   UNL     1       2.126   3.569  19.659  0.00  0.00    +0.000 C 
ATOM      9  N   UNL     1       2.736   4.561  20.389  0.00  0.00    +0.000 N 
ATOM     10  H   UNL     1       3.739   4.673  20.363  0.00  0.00    +0.000 HD
BRANCH   9  11
ATOM     11  C   UNL     1       1.964   5.551  21.112  0.00  0.00    +0.000 C 
BRANCH  11  12
ATOM     12  C   UNL     1       1.850   6.843  20.346  0.00  0.00    +0.000 A 
ATOM     13  C   UNL     1       2.370   6.948  19.046  0.00  0.00    +0.000 A 
ATOM     14  C   UNL     1       2.241   8.137  18.321  0.00  0.00    +0.000 A 
ATOM     15  C   UNL     1       1.604   9.235  18.894  0.00  0.00    +0.000 A 
ATOM     16  C   UNL     1       1.077   9.140  20.186  0.00  0.00    +0.000 A 
ATOM     17  C   UNL     1       1.214   7.957  20.914  0.00  0.00    +0.000 A 
ATOM     18  O   UNL     1       0.416  10.169  20.805  0.00  0.00    +0.000 OA
ATOM     19  C   UNL     1       0.029  11.181  19.868  0.00  0.00    +0.000 C 
ATOM     20  C   UNL     1       1.173  11.510  18.924  0.00  0.00    +0.000 C 
ATOM     21  O   UNL     1       1.523  10.370  18.130  0.00  0.00    +0.000 OA
ENDBRANCH  11  12
ENDBRANCH   9  11
ENDBRANCH   1   8
BRANCH   4  22
ATOM     22  S   UNL     1       5.730   5.497  16.627  0.00  0.00    +0.000 S 
ATOM     23  O   UNL     1       4.683   6.486  16.464  0.00  0.00    +0.000 OA
ATOM     24  O   UNL     1       6.940   5.808  17.360  0.00  0.00    +0.000 OA
BRANCH  22  25
ATOM     25  C   UNL     1       6.186   4.964  14.995  0.00  0.00    +0.000 A 
ATOM     26  C   UNL     1       7.379   5.435  14.435  0.00  0.00    +0.000 A 
ATOM     27  C   UNL     1       7.780   4.964  13.183  0.00  0.00    +0.000 A 
ATOM     28  C   UNL     1       6.995   4.030  12.514  0.00  0.00    +0.000 A 
ATOM     29  F   UNL     1       7.389   3.573  11.318  0.00  0.00    +0.000 F 
ATOM     30  C   UNL     1       5.812   3.552  13.071  0.00  0.00    +0.000 A 
ATOM     31  C   UNL     1       5.400   4.020  14.321  0.00  0.00    +0.000 A 
ENDBRANCH  22  25
ENDBRANCH   4  22
TORSDOF 5
ENDMDL
MODEL 8
REMARK VINA RESULT:      -8.3      4.584      7.276
REMARK  Name = 
REMARK  5 active torsions:
REMARK  status: ('A' for Active; 'I' for Inactive)
REMARK    1  A    between atoms: C_2  and  C_15
REMARK    2  A    between atoms: N_3  and  C_4
REMARK    3  A    between atoms: C_4  and  C_5
REMARK    4  A    between atoms: N_18  and  S_19
REMARK    5  A    between atoms: S_19  and  C_22
REMARK                            x       y       z     vdW  Elec       q    Type
REMARK                         _______ _______ _______ _____ _____    ______ ____
ROOT
ATOM      1  C   UNL     1       2.992   2.539  19.995  0.00  0.00    +0.000 C 
ATOM      2  C   UNL     1       4.424   3.049  20.208  0.00  0.00    +0.000 C 
ATOM      3  C   UNL     1       4.875   4.002  19.097  0.00  0.00    +0.000 C 
ATOM      4  N   UNL     1       4.760   3.336  17.765  0.00  0.00    +0.000 NA
ATOM      5  C   UNL     1       3.367   2.856  17.505  0.00  0.00    +0.000 C 
ATOM      6  C   UNL     1       2.900   1.905  18.604  0.00  0.00    +0.000 C 
ENDROOT
BRANCH   1   8
ATOM      7  O   UNL     1       0.800   3.556  19.864  0.00  0.00    +0.000 OA
ATOM      8  C   UNL     1       1.967   3.657  20.226  0.00  0.00    +0.000 C 
ATOM      9  N   UNL     1       2.455   4.789  20.836  0.00  0.00    +0.000 N 
ATOM     10  H   UNL     1       3.445   4.895  21.002  0.00  0.00    +0.000 HD
BRANCH   9  11
ATOM     11  C   UNL     1       1.593   5.912  21.146  0.00  0.00    +0.000 C 
BRANCH  11  12
ATOM     12  C   UNL     1       1.797   7.055  20.186  0.00  0.00    +0.000 A 
ATOM     13  C   UNL     1       2.487   6.859  18.980  0.00  0.00    +0.000 A 
ATOM     14  C   UNL     1       2.653   7.911  18.074  0.00  0.00    +0.000 A 
ATOM     15  C   UNL     1       2.143   9.172  18.373  0.00  0.00    +0.000 A 
ATOM     16  C   UNL     1       1.448   9.378  19.568  0.00  0.00    +0.000 A 
ATOM     17  C   UNL     1       1.290   8.331  20.478  0.00  0.00    +0.000 A 
ATOM     18  O   UNL     1       0.896  10.584  19.919  0.00  0.00    +0.000 OA
ATOM     19  C   UNL     1       0.807  11.465  18.793  0.00  0.00    +0.000 C 
ATOM     20  C   UNL     1       2.100  11.456  17.995  0.00  0.00    +0.000 C 
ATOM     21  O   UNL     1       2.351  10.158  17.444  0.00  0.00    +0.000 OA
ENDBRANCH  11  12
ENDBRANCH   9  11
ENDBRANCH   1   8
BRANCH   4  22
ATOM     22  S   UNL     1       5.315   4.316  16.450  0.00  0.00    +0.000 S 
ATOM     23  O   UNL     1       6.102   3.475  15.571  0.00  0.00    +0.000 OA
ATOM     24  O   UNL     1       4.173   5.054  15.949  0.00  0.00    +0.000 OA
BRANCH  22  25
ATOM     25  C   UNL     1       6.442   5.469  17.195  0.00  0.00    +0.000 A 
ATOM     26  C   UNL     1       6.366   6.821  16.839  0.00  0.00    +0.000 A 
ATOM     27  C   UNL     1       7.200   7.744  17.474  0.00  0.00    +0.000 A 
ATOM     28  C   UNL     1       8.086   7.311  18.456  0.00  0.00    +0.000 A 
ATOM     29  F   UNL     1       8.876   8.202  19.070  0.00  0.00    +0.000 F 
ATOM     30  C   UNL     1       8.158   5.970  18.820  0.00  0.00    +0.000 A 
ATOM     31  C   UNL     1       7.331   5.038  18.188  0.00  0.00    +0.000 A 
ENDBRANCH  22  25
ENDBRANCH   4  22
TORSDOF 5
ENDMDL
MODEL 9
REMARK VINA RESULT:      -8.2      5.830      7.876
REMARK  Name = 
REMARK  5 active torsions:
REMARK  status: ('A' for Active; 'I' for Inactive)
REMARK    1  A    between atoms: C_2  and  C_15
REMARK    2  A    between atoms: N_3  and  C_4
REMARK    3  A    between atoms: C_4  and  C_5
REMARK    4  A    between atoms: N_18  and  S_19
REMARK    5  A    between atoms: S_19  and  C_22
REMARK                            x       y       z     vdW  Elec       q    Type
REMARK                         _______ _______ _______ _____ _____    ______ ____
ROOT
ATOM      1  C   UNL     1       1.830   2.892  18.802  0.00  0.00    +0.000 C 
ATOM      2  C   UNL     1       3.139   2.091  18.859  0.00  0.00    +0.000 C 
ATOM      3  C   UNL     1       4.376   2.991  18.793  0.00  0.00    +0.000 C 
ATOM      4  N   UNL     1       4.341   3.832  17.559  0.00  0.00    +0.000 NA
ATOM      5  C   UNL     1       3.094   4.656  17.486  0.00  0.00    +0.000 C 
ATOM      6  C   UNL     1       1.849   3.774  17.551  0.00  0.00    +0.000 C 
ENDROOT
BRANCH   1   8
ATOM      7  O   UNL     1       1.240   3.133  21.137  0.00  0.00    +0.000 OA
ATOM      8  C   UNL     1       1.607   3.678  20.101  0.00  0.00    +0.000 C 
ATOM      9  N   UNL     1       1.816   5.034  20.016  0.00  0.00    +0.000 N 
ATOM     10  H   UNL     1       1.988   5.470  19.121  0.00  0.00    +0.000 HD
BRANCH   9  11
ATOM     11  C   UNL     1       1.674   5.896  21.171  0.00  0.00    +0.000 C 
BRANCH  11  12
ATOM     12  C   UNL     1       1.343   7.312  20.777  0.00  0.00    +0.000 A 
ATOM     13  C   UNL     1       0.522   8.105  21.593  0.00  0.00    +0.000 A 
ATOM     14  C   UNL     1       0.236   9.429  21.244  0.00  0.00    +0.000 A 
ATOM     15  C   UNL     1       0.757   9.966  20.069  0.00  0.00    +0.000 A 
ATOM     16  C   UNL     1       1.582   9.188  19.252  0.00  0.00    +0.000 A 
ATOM     17  C   UNL     1       1.860   7.863  19.594  0.00  0.00    +0.000 A 
ATOM     18  O   UNL     1       2.151   9.656  18.095  0.00  0.00    +0.000 OA
ATOM     19  C   UNL     1       2.096  11.085  18.026  0.00  0.00    +0.000 C 
ATOM     20  C   UNL     1       0.719  11.593  18.422  0.00  0.00    +0.000 C 
ATOM     21  O   UNL     1       0.427  11.266  19.785  0.00  0.00    +0.000 OA
ENDBRANCH  11  12
ENDBRANCH   9  11
ENDBRANCH   1   8
BRANCH   4  22
ATOM     22  S   UNL     1       5.738   4.836  17.364  0.00  0.00    +0.000 S 
ATOM     23  O   UNL     1       5.332   6.209  17.583  0.00  0.00    +0.000 OA
ATOM     24  O   UNL     1       6.808   4.243  18.141  0.00  0.00    +0.000 OA
BRANCH  22  25
ATOM     25  C   UNL     1       6.154   4.696  15.643  0.00  0.00    +0.000 A 
ATOM     26  C   UNL     1       7.322   5.307  15.173  0.00  0.00    +0.000 A 
ATOM     27  C   UNL     1       7.693   5.141  13.837  0.00  0.00    +0.000 A 
ATOM     28  C   UNL     1       6.904   4.364  12.994  0.00  0.00    +0.000 A 
ATOM     29  F   UNL     1       7.269   4.198  11.716  0.00  0.00    +0.000 F 
ATOM     30  C   UNL     1       5.746   3.746  13.459  0.00  0.00    +0.000 A 
ATOM     31  C   UNL     1       5.364   3.910  14.793  0.00  0.00    +0.000 A 
ENDBRANCH  22  25
ENDBRANCH   4  22
TORSDOF 5
ENDMDL
