MODEL 1
REMARK VINA RESULT:      -8.4      0.000      0.000
REMARK  Name = 
REMARK  5 active torsions:
REMARK  status: ('A' for Active; 'I' for Inactive)
REMARK    1  A    between atoms: C_2  and  C_3
REMARK    2  A    between atoms: C_3  and  C_4
REMARK    3  A    between atoms: N_14  and  C_15
REMARK    4  A    between atoms: C_15  and  C_16
REMARK    5  A    between atoms: C_16  and  C_17
REMARK                            x       y       z     vdW  Elec       q    Type
REMARK                         _______ _______ _______ _____ _____    ______ ____
ROOT
ATOM      1  O   UNL     1       4.051   3.636  17.818  0.00  0.00    +0.000 OA
ATOM      2  C   UNL     1       4.071   4.413  18.769  0.00  0.00    +0.000 C 
ATOM      3  N   UNL     1       5.218   5.031  19.210  0.00  0.00    +0.000 N 
ATOM      4  H   UNL     1       5.161   5.736  19.936  0.00  0.00    +0.000 HD
ENDROOT
BRANCH   2   5
ATOM      5  C   UNL     1       2.818   4.785  19.545  0.00  0.00    +0.000 C 
BRANCH   5   6
ATOM      6  C   UNL     1       2.423   6.236  19.419  0.00  0.00    +0.000 A 
ATOM      7  C   UNL     1       2.508   6.893  18.186  0.00  0.00    +0.000 A 
ATOM      8  C   UNL     1       2.077   8.214  18.053  0.00  0.00    +0.000 A 
ATOM      9  C   UNL     1       1.542   8.910  19.149  0.00  0.00    +0.000 A 
ATOM     10  C   UNL     1       1.074  10.226  19.022  0.00  0.00    +0.000 A 
ATOM     11  C   UNL     1       0.528  10.898  20.118  0.00  0.00    +0.000 A 
ATOM     12  C   UNL     1       0.453  10.264  21.354  0.00  0.00    +0.000 A 
ATOM     13  C   UNL     1       0.918   8.955  21.496  0.00  0.00    +0.000 A 
ATOM     14  C   UNL     1       1.458   8.262  20.402  0.00  0.00    +0.000 A 
ATOM     15  C   UNL     1       1.903   6.933  20.521  0.00  0.00    +0.000 A 
ENDBRANCH   5   6
ENDBRANCH   2   5
BRANCH   3  16
ATOM     16  C   UNL     1       6.519   4.831  18.589  0.00  0.00    +0.000 C 
BRANCH  16  17
ATOM     17  C   UNL     1       6.868   5.922  17.573  0.00  0.00    +0.000 C 
BRANCH  17  18
ATOM     18  C   UNL     1       6.844   5.381  16.183  0.00  0.00    +0.000 A 
ATOM     19  N   UNL     1       7.667   5.702  15.206  0.00  0.00    +0.000 NA
ATOM     20  C   UNL     1       7.228   5.005  14.108  0.00  0.00    +0.000 A 
ATOM     21  C   UNL     1       7.736   4.980  12.803  0.00  0.00    +0.000 A 
ATOM     22  C   UNL     1       7.096   4.178  11.850  0.00  0.00    +0.000 A 
ATOM     23  C   UNL     1       5.973   3.419  12.193  0.00  0.00    +0.000 A 
ATOM     24  C   UNL     1       5.450   3.434  13.493  0.00  0.00    +0.000 A 
ATOM     25  C   UNL     1       6.110   4.241  14.421  0.00  0.00    +0.000 A 
ATOM     26  N   UNL     1       5.887   4.497  15.750  0.00  0.00    +0.000 N 
ATOM     27  H   UNL     1       5.139   4.114  16.310  0.00  0.00    +0.000 HD
ENDBRANCH  17  18
ENDBRANCH  16  17
ENDBRANCH   3  16
TORSDOF 5
ENDMDL
MODEL 2
REMARK VINA RESULT:      -8.4      5.638      7.745
REMARK  Name = 
REMARK  5 active torsions:
REMARK  status: ('A' for Active; 'I' for Inactive)
REMARK    1  A    between atoms: C_2  and  C_3
REMARK    2  A    between atoms: C_3  and  C_4
REMARK    3  A    between atoms: N_14  and  C_15
REMARK    4  A    between atoms: C_15  and  C_16
REMARK    5  A    between atoms: C_16  and  C_17
REMARK                            x       y       z     vdW  Elec       q    Type
REMARK                         _______ _______ _______ _____ _____    ______ ____
ROOT
ATOM      1  O   UNL     1       7.037   7.408  16.706  0.00  0.00    +0.000 OA
ATOM      2  C   UNL     1       7.538   7.044  17.767  0.00  0.00    +0.000 C 
ATOM      3  N   UNL     1       8.293   7.873  18.564  0.00  0.00    +0.000 N 
ATOM      4  H   UNL     1       8.600   7.551  19.475  0.00  0.00    +0.000 HD
ENDROOT
BRANCH   2   5
ATOM      5  C   UNL     1       7.355   5.639  18.316  0.00  0.00    +0.000 C 
BRANCH   5   6
ATOM      6  C   UNL     1       5.956   5.095  18.164  0.00  0.00    +0.000 A 
ATOM      7  C   UNL     1       5.591   4.378  17.018  0.00  0.00    +0.000 A 
ATOM      8  C   UNL     1       4.319   3.815  16.907  0.00  0.00    +0.000 A 
ATOM      9  C   UNL     1       3.381   3.947  17.943  0.00  0.00    +0.000 A 
ATOM     10  C   UNL     1       2.111   3.357  17.859  0.00  0.00    +0.000 A 
ATOM     11  C   UNL     1       1.196   3.483  18.907  0.00  0.00    +0.000 A 
ATOM     12  C   UNL     1       1.538   4.206  20.045  0.00  0.00    +0.000 A 
ATOM     13  C   UNL     1       2.797   4.801  20.140  0.00  0.00    +0.000 A 
ATOM     14  C   UNL     1       3.732   4.675  19.102  0.00  0.00    +0.000 A 
ATOM     15  C   UNL     1       5.016   5.242  19.196  0.00  0.00    +0.000 A 
ENDBRANCH   5   6
ENDBRANCH   2   5
BRANCH   3  16
ATOM     16  C   UNL     1       8.567   9.264  18.232  0.00  0.00    +0.000 C 
BRANCH  16  17
ATOM     17  C   UNL     1       9.229  10.031  19.380  0.00  0.00    +0.000 C 
BRANCH  17  18
ATOM     18  C   UNL     1       9.832  11.304  18.892  0.00  0.00    +0.000 A 
ATOM     19  N   UNL     1      10.394  11.502  17.717  0.00  0.00    +0.000 NA
ATOM     20  C   UNL     1      10.852  12.796  17.740  0.00  0.00    +0.000 A 
ATOM     21  C   UNL     1      11.532  13.521  16.752  0.00  0.00    +0.000 A 
ATOM     22  C   UNL     1      11.899  14.844  17.026  0.00  0.00    +0.000 A 
ATOM     23  C   UNL     1      11.596  15.429  18.258  0.00  0.00    +0.000 A 
ATOM     24  C   UNL     1      10.920  14.718  19.258  0.00  0.00    +0.000 A 
ATOM     25  C   UNL     1      10.565  13.402  18.956  0.00  0.00    +0.000 A 
ATOM     26  N   UNL     1       9.912  12.431  19.672  0.00  0.00    +0.000 N 
ATOM     27  H   UNL     1       9.564  12.523  20.616  0.00  0.00    +0.000 HD
ENDBRANCH  17  18
ENDBRANCH  16  17
ENDBRANCH   3  16
TORSDOF 5
ENDMDL
MODEL 3
REMARK VINA RESULT:      -8.4      2.623      3.506
REMARK  Name = 
REMARK  5 active torsions:
REMARK  status: ('A' for Active; 'I' for Inactive)
REMARK    1  A    between atoms: C_2  and  C_3
REMARK    2  A    between atoms: C_3  and  C_4
REMARK    3  A    between atoms: N_14  and  C_15
REMARK    4  A    between atoms: C_15  and  C_16
REMARK    5  A    between atoms: C_16  and  C_17
REMARK                            x       y       z     vdW  Elec       q    Type
REMARK                         _______ _______ _______ _____ _____    ______ ____
ROOT
ATOM      1  O   UNL     1       0.654   3.589  20.094  0.00  0.00    +0.000 OA
ATOM      2  C   UNL     1       1.792   3.994  20.314  0.00  0.00    +0.000 C 
ATOM      3  N   UNL     1       2.917   3.370  19.827  0.00  0.00    +0.000 N 
ATOM      4  H   UNL     1       3.826   3.801  19.956  0.00  0.00    +0.000 HD
ENDROOT
BRANCH   2   5
ATOM      5  C   UNL     1       2.070   5.243  21.134  0.00  0.00    +0.000 C 
BRANCH   5   6
ATOM      6  C   UNL     1       2.009   6.527  20.343  0.00  0.00    +0.000 A 
ATOM      7  C   UNL     1       2.480   6.574  19.025  0.00  0.00    +0.000 A 
ATOM      8  C   UNL     1       2.360   7.741  18.270  0.00  0.00    +0.000 A 
ATOM      9  C   UNL     1       1.758   8.890  18.810  0.00  0.00    +0.000 A 
ATOM     10  C   UNL     1       1.601  10.058  18.050  0.00  0.00    +0.000 A 
ATOM     11  C   UNL     1       0.983  11.186  18.596  0.00  0.00    +0.000 A 
ATOM     12  C   UNL     1       0.526  11.159  19.909  0.00  0.00    +0.000 A 
ATOM     13  C   UNL     1       0.680  10.004  20.678  0.00  0.00    +0.000 A 
ATOM     14  C   UNL     1       1.286   8.859  20.141  0.00  0.00    +0.000 A 
ATOM     15  C   UNL     1       1.421   7.676  20.892  0.00  0.00    +0.000 A 
ENDBRANCH   5   6
ENDBRANCH   2   5
BRANCH   3  16
ATOM     16  C   UNL     1       2.870   2.174  18.999  0.00  0.00    +0.000 C 
BRANCH  16  17
ATOM     17  C   UNL     1       3.588   2.350  17.658  0.00  0.00    +0.000 C 
BRANCH  17  18
ATOM     18  C   UNL     1       4.572   3.469  17.724  0.00  0.00    +0.000 A 
ATOM     19  N   UNL     1       5.543   3.604  18.604  0.00  0.00    +0.000 NA
ATOM     20  C   UNL     1       6.144   4.802  18.310  0.00  0.00    +0.000 A 
ATOM     21  C   UNL     1       7.227   5.436  18.934  0.00  0.00    +0.000 A 
ATOM     22  C   UNL     1       7.654   6.674  18.439  0.00  0.00    +0.000 A 
ATOM     23  C   UNL     1       7.014   7.266  17.346  0.00  0.00    +0.000 A 
ATOM     24  C   UNL     1       5.929   6.647  16.712  0.00  0.00    +0.000 A 
ATOM     25  C   UNL     1       5.527   5.414  17.227  0.00  0.00    +0.000 A 
ATOM     26  N   UNL     1       4.529   4.542  16.870  0.00  0.00    +0.000 N 
ATOM     27  H   UNL     1       3.866   4.674  16.119  0.00  0.00    +0.000 HD
ENDBRANCH  17  18
ENDBRANCH  16  17
ENDBRANCH   3  16
TORSDOF 5
ENDMDL
MODEL 4
REMARK VINA RESULT:      -8.3      2.718      3.438
REMARK  Name = 
REMARK  5 active torsions:
REMARK  status: ('A' for Active; 'I' for Inactive)
REMARK    1  A    between atoms: C_2  and  C_3
REMARK    2  A    between atoms: C_3  and  C_4
REMARK    3  A    between atoms: N_14  and  C_15
REMARK    4  A    between atoms: C_15  and  C_16
REMARK    5  A    between atoms: C_16  and  C_17
REMARK                            x       y       z     vdW  Elec       q    Type
REMARK                         _______ _______ _______ _____ _____    ______ ____
ROOT
ATOM      1  O   UNL     1       1.071   4.279  19.145  0.00  0.00    +0.000 OA
ATOM      2  C   UNL     1       2.075   4.357  19.846  0.00  0.00    +0.000 C 
ATOM      3  N   UNL     1       3.073   3.410  19.837  0.00  0.00    +0.000 N 
ATOM      4  H   UNL     1       3.925   3.572  20.362  0.00  0.00    +0.000 HD
ENDROOT
BRANCH   2   5
ATOM      5  C   UNL     1       2.327   5.526  20.785  0.00  0.00    +0.000 C 
BRANCH   5   6
ATOM      6  C   UNL     1       2.034   6.877  20.180  0.00  0.00    +0.000 A 
ATOM      7  C   UNL     1       2.490   7.196  18.896  0.00  0.00    +0.000 A 
ATOM      8  C   UNL     1       2.161   8.418  18.308  0.00  0.00    +0.000 A 
ATOM      9  C   UNL     1       1.359   9.350  18.987  0.00  0.00    +0.000 A 
ATOM     10  C   UNL     1       0.992  10.567  18.394  0.00  0.00    +0.000 A 
ATOM     11  C   UNL     1       0.178  11.476  19.076  0.00  0.00    +0.000 A 
ATOM     12  C   UNL     1      -0.269  11.180  20.359  0.00  0.00    +0.000 A 
ATOM     13  C   UNL     1       0.091   9.973  20.962  0.00  0.00    +0.000 A 
ATOM     14  C   UNL     1       0.898   9.045  20.287  0.00  0.00    +0.000 A 
ATOM     15  C   UNL     1       1.245   7.811  20.868  0.00  0.00    +0.000 A 
ENDBRANCH   5   6
ENDBRANCH   2   5
BRANCH   3  16
ATOM     16  C   UNL     1       3.039   2.226  18.990  0.00  0.00    +0.000 C 
BRANCH  16  17
ATOM     17  C   UNL     1       3.828   2.401  17.690  0.00  0.00    +0.000 C 
BRANCH  17  18
ATOM     18  C   UNL     1       4.667   3.633  17.739  0.00  0.00    +0.000 A 
ATOM     19  N   UNL     1       4.414   4.775  17.134  0.00  0.00    +0.000 NA
ATOM     20  C   UNL     1       5.483   5.589  17.417  0.00  0.00    +0.000 A 
ATOM     21  C   UNL     1       5.730   6.910  17.021  0.00  0.00    +0.000 A 
ATOM     22  C   UNL     1       6.914   7.525  17.446  0.00  0.00    +0.000 A 
ATOM     23  C   UNL     1       7.829   6.837  18.248  0.00  0.00    +0.000 A 
ATOM     24  C   UNL     1       7.599   5.515  18.650  0.00  0.00    +0.000 A 
ATOM     25  C   UNL     1       6.411   4.929  18.212  0.00  0.00    +0.000 A 
ATOM     26  N   UNL     1       5.866   3.684  18.406  0.00  0.00    +0.000 N 
ATOM     27  H   UNL     1       6.282   2.930  18.933  0.00  0.00    +0.000 HD
ENDBRANCH  17  18
ENDBRANCH  16  17
ENDBRANCH   3  16
TORSDOF 5
ENDMDL
MODEL 5
REMARK VINA RESULT:      -8.3      1.786      2.970
REMARK  Name = 
REMARK  5 active torsions:
REMARK  status: ('A' for Active; 'I' for Inactive)
REMARK    1  A    between atoms: C_2  and  C_3
REMARK    2  A    between atoms: C_3  and  C_4
REMARK    3  A    between atoms: N_14  and  C_15
REMARK    4  A    between atoms: C_15  and  C_16
REMARK    5  A    between atoms: C_16  and  C_17
REMARK                            x       y       z     vdW  Elec       q    Type
REMARK                         _______ _______ _______ _____ _____    ______ ____
ROOT
ATOM      1  O   UNL     1       1.710   5.008  17.904  0.00  0.00    +0.000 OA
ATOM      2  C   UNL     1       2.442   5.673  18.633  0.00  0.00    +0.000 C 
ATOM      3  N   UNL     1       2.962   5.193  19.812  0.00  0.00    +0.000 N 
ATOM      4  H   UNL     1       3.639   5.747  20.325  0.00  0.00    +0.000 HD
ENDROOT
BRANCH   2   5
ATOM      5  C   UNL     1       2.864   7.092  18.290  0.00  0.00    +0.000 C 
BRANCH   5   6
ATOM      6  C   UNL     1       2.016   8.161  18.936  0.00  0.00    +0.000 A 
ATOM      7  C   UNL     1       1.428   9.167  18.161  0.00  0.00    +0.000 A 
ATOM      8  C   UNL     1       0.587  10.114  18.748  0.00  0.00    +0.000 A 
ATOM      9  C   UNL     1       0.307  10.075  20.123  0.00  0.00    +0.000 A 
ATOM     10  C   UNL     1      -0.563  11.000  20.719  0.00  0.00    +0.000 A 
ATOM     11  C   UNL     1      -0.846  10.935  22.085  0.00  0.00    +0.000 A 
ATOM     12  C   UNL     1      -0.255   9.951  22.871  0.00  0.00    +0.000 A 
ATOM     13  C   UNL     1       0.615   9.025  22.291  0.00  0.00    +0.000 A 
ATOM     14  C   UNL     1       0.901   9.069  20.919  0.00  0.00    +0.000 A 
ATOM     15  C   UNL     1       1.751   8.126  20.313  0.00  0.00    +0.000 A 
ENDBRANCH   5   6
ENDBRANCH   2   5
BRANCH   3  16
ATOM     16  C   UNL     1       2.702   3.849  20.309  0.00  0.00    +0.000 C 
BRANCH  16  17
ATOM     17  C   UNL     1       3.805   2.854  19.941  0.00  0.00    +0.000 C 
BRANCH  17  18
ATOM     18  C   UNL     1       4.652   3.384  18.834  0.00  0.00    +0.000 A 
ATOM     19  N   UNL     1       5.699   4.172  18.959  0.00  0.00    +0.000 NA
ATOM     20  C   UNL     1       6.116   4.441  17.680  0.00  0.00    +0.000 A 
ATOM     21  C   UNL     1       7.184   5.232  17.234  0.00  0.00    +0.000 A 
ATOM     22  C   UNL     1       7.399   5.351  15.856  0.00  0.00    +0.000 A 
ATOM     23  C   UNL     1       6.567   4.696  14.943  0.00  0.00    +0.000 A 
ATOM     24  C   UNL     1       5.494   3.905  15.371  0.00  0.00    +0.000 A 
ATOM     25  C   UNL     1       5.304   3.804  16.750  0.00  0.00    +0.000 A 
ATOM     26  N   UNL     1       4.380   3.134  17.511  0.00  0.00    +0.000 N 
ATOM     27  H   UNL     1       3.620   2.568  17.160  0.00  0.00    +0.000 HD
ENDBRANCH  17  18
ENDBRANCH  16  17
ENDBRANCH   3  16
TORSDOF 5
ENDMDL
MODEL 6
REMARK VINA RESULT:      -8.2      4.372      6.870
REMARK  Name = 
REMARK  5 active torsions:
REMARK  status: ('A' for Active; 'I' for Inactive)
REMARK    1  A    between atoms: C_2  and  C_3
REMARK    2  A    between atoms: C_3  and  C_4
REMARK    3  A    between atoms: N_14  and  C_15
REMARK    4  A    between atoms: C_15  and  C_16
REMARK    5  A    between atoms: C_16  and  C_17
REMARK                            x       y       z     vdW  Elec       q    Type
REMARK                         _______ _______ _______ _____ _____    ______ ____
ROOT
ATOM      1  O   UNL     1       5.388   6.676  15.402  0.00  0.00    +0.000 OA
ATOM      2  C   UNL     1       5.774   5.928  16.296  0.00  0.00    +0.000 C 
ATOM      3  N   UNL     1       6.706   6.301  17.236  0.00  0.00    +0.000 N 
ATOM      4  H   UNL     1       6.916   5.680  18.010  0.00  0.00    +0.000 HD
ENDROOT
BRANCH   2   5
ATOM      5  C   UNL     1       5.240   4.515  16.466  0.00  0.00    +0.000 C 
BRANCH   5   6
ATOM      6  C   UNL     1       4.165   4.384  17.517  0.00  0.00    +0.000 A 
ATOM      7  C   UNL     1       2.924   5.007  17.347  0.00  0.00    +0.000 A 
ATOM      8  C   UNL     1       1.906   4.829  18.285  0.00  0.00    +0.000 A 
ATOM      9  C   UNL     1       2.101   4.016  19.414  0.00  0.00    +0.000 A 
ATOM     10  C   UNL     1       1.075   3.802  20.347  0.00  0.00    +0.000 A 
ATOM     11  C   UNL     1       1.280   2.975  21.454  0.00  0.00    +0.000 A 
ATOM     12  C   UNL     1       2.514   2.363  21.645  0.00  0.00    +0.000 A 
ATOM     13  C   UNL     1       3.545   2.571  20.726  0.00  0.00    +0.000 A 
ATOM     14  C   UNL     1       3.352   3.388  19.602  0.00  0.00    +0.000 A 
ATOM     15  C   UNL     1       4.370   3.583  18.651  0.00  0.00    +0.000 A 
ENDBRANCH   5   6
ENDBRANCH   2   5
BRANCH   3  16
ATOM     16  C   UNL     1       7.322   7.620  17.267  0.00  0.00    +0.000 C 
BRANCH  16  17
ATOM     17  C   UNL     1       8.259   7.812  18.463  0.00  0.00    +0.000 C 
BRANCH  17  18
ATOM     18  C   UNL     1       8.666   9.240  18.597  0.00  0.00    +0.000 A 
ATOM     19  N   UNL     1       8.437  10.202  17.727  0.00  0.00    +0.000 NA
ATOM     20  C   UNL     1       9.041  11.321  18.244  0.00  0.00    +0.000 A 
ATOM     21  C   UNL     1       9.110  12.621  17.726  0.00  0.00    +0.000 A 
ATOM     22  C   UNL     1       9.799  13.597  18.456  0.00  0.00    +0.000 A 
ATOM     23  C   UNL     1      10.406  13.282  19.675  0.00  0.00    +0.000 A 
ATOM     24  C   UNL     1      10.349  11.987  20.206  0.00  0.00    +0.000 A 
ATOM     25  C   UNL     1       9.654  11.036  19.458  0.00  0.00    +0.000 A 
ATOM     26  N   UNL     1       9.399   9.704  19.661  0.00  0.00    +0.000 N 
ATOM     27  H   UNL     1       9.709   9.153  20.450  0.00  0.00    +0.000 HD
ENDBRANCH  17  18
ENDBRANCH  16  17
ENDBRANCH   3  16
TORSDOF 5
ENDMDL
MODEL 7
REMARK VINA RESULT:      -8.1      0.638      1.357
REMARK  Name = 
REMARK  5 active torsions:
REMARK  status: ('A' for Active; 'I' for Inactive)
REMARK    1  A    between atoms: C_2  and  C_3
REMARK    2  A    between atoms: C_3  and  C_4
REMARK    3  A    between atoms: N_14  and  C_15
REMARK    4  A    between atoms: C_15  and  C_16
REMARK    5  A    between atoms: C_16  and  C_17
REMARK                            x       y       z     vdW  Elec       q    Type
REMARK                         _______ _______ _______ _____ _____    ______ ____
ROOT
ATOM      1  O   UNL     1       3.313   4.596  17.896  0.00  0.00    +0.000 OA
ATOM      2  C   UNL     1       3.654   5.110  18.958  0.00  0.00    +0.000 C 
ATOM      3  N   UNL     1       4.970   5.259  19.331  0.00  0.00    +0.000 N 
ATOM      4  H   UNL     1       5.198   5.778  20.172  0.00  0.00    +0.000 HD
ENDROOT
BRANCH   2   5
ATOM      5  C   UNL     1       2.650   5.654  19.960  0.00  0.00    +0.000 C 
BRANCH   5   6
ATOM      6  C   UNL     1       2.193   7.063  19.672  0.00  0.00    +0.000 A 
ATOM      7  C   UNL     1       2.387   7.630  18.407  0.00  0.00    +0.000 A 
ATOM      8  C   UNL     1       1.902   8.907  18.119  0.00  0.00    +0.000 A 
ATOM      9  C   UNL     1       1.203   9.647  19.086  0.00  0.00    +0.000 A 
ATOM     10  C   UNL     1       0.681  10.916  18.799  0.00  0.00    +0.000 A 
ATOM     11  C   UNL     1      -0.029  11.631  19.766  0.00  0.00    +0.000 A 
ATOM     12  C   UNL     1      -0.215  11.088  21.033  0.00  0.00    +0.000 A 
ATOM     13  C   UNL     1       0.302   9.827  21.334  0.00  0.00    +0.000 A 
ATOM     14  C   UNL     1       1.006   9.090  20.370  0.00  0.00    +0.000 A 
ATOM     15  C   UNL     1       1.507   7.805  20.647  0.00  0.00    +0.000 A 
ENDBRANCH   5   6
ENDBRANCH   2   5
BRANCH   3  16
ATOM     16  C   UNL     1       6.086   4.828  18.502  0.00  0.00    +0.000 C 
BRANCH  16  17
ATOM     17  C   UNL     1       6.540   5.901  17.509  0.00  0.00    +0.000 C 
BRANCH  17  18
ATOM     18  C   UNL     1       6.510   5.380  16.112  0.00  0.00    +0.000 A 
ATOM     19  N   UNL     1       5.622   4.549  15.607  0.00  0.00    +0.000 NA
ATOM     20  C   UNL     1       6.029   4.310  14.318  0.00  0.00    +0.000 A 
ATOM     21  C   UNL     1       5.452   3.497  13.334  0.00  0.00    +0.000 A 
ATOM     22  C   UNL     1       6.072   3.419  12.081  0.00  0.00    +0.000 A 
ATOM     23  C   UNL     1       7.243   4.135  11.818  0.00  0.00    +0.000 A 
ATOM     24  C   UNL     1       7.835   4.950  12.791  0.00  0.00    +0.000 A 
ATOM     25  C   UNL     1       7.194   5.010  14.029  0.00  0.00    +0.000 A 
ATOM     26  N   UNL     1       7.478   5.686  15.188  0.00  0.00    +0.000 N 
ATOM     27  H   UNL     1       8.272   6.292  15.342  0.00  0.00    +0.000 HD
ENDBRANCH  17  18
ENDBRANCH  16  17
ENDBRANCH   3  16
TORSDOF 5
ENDMDL
MODEL 8
REMARK VINA RESULT:      -8.1      6.116      8.097
REMARK  Name = 
REMARK  5 active torsions:
REMARK  status: ('A' for Active; 'I' for Inactive)
REMARK    1  A    between atoms: C_2  and  C_3
REMARK    2  A    between atoms: C_3  and  C_4
REMARK    3  A    between atoms: N_14  and  C_15
REMARK    4  A    between atoms: C_15  and  C_16
REMARK    5  A    between atoms: C_16  and  C_17
REMARK                            x       y       z     vdW  Elec       q    Type
REMARK                         _______ _______ _______ _____ _____    ______ ____
ROOT
ATOM      1  O   UNL     1       7.966   9.993  17.580  0.00  0.00    +0.000 OA
ATOM      2  C   UNL     1       8.595   9.503  18.514  0.00  0.00    +0.000 C 
ATOM      3  N   UNL     1       8.590   8.158  18.800  0.00  0.00    +0.000 N 
ATOM      4  H   UNL     1       9.203   7.794  19.521  0.00  0.00    +0.000 HD
ENDROOT
BRANCH   2   5
ATOM      5  C   UNL     1       9.463  10.339  19.441  0.00  0.00    +0.000 C 
BRANCH   5   6
ATOM      6  C   UNL     1       9.965  11.622  18.825  0.00  0.00    +0.000 A 
ATOM      7  C   UNL     1      11.122  11.629  18.036  0.00  0.00    +0.000 A 
ATOM      8  C   UNL     1      11.547  12.801  17.409  0.00  0.00    +0.000 A 
ATOM      9  C   UNL     1      10.822  13.996  17.549  0.00  0.00    +0.000 A 
ATOM     10  C   UNL     1      11.220  15.172  16.896  0.00  0.00    +0.000 A 
ATOM     11  C   UNL     1      10.477  16.348  17.030  0.00  0.00    +0.000 A 
ATOM     12  C   UNL     1       9.336  16.361  17.825  0.00  0.00    +0.000 A 
ATOM     13  C   UNL     1       8.930  15.198  18.482  0.00  0.00    +0.000 A 
ATOM     14  C   UNL     1       9.658  14.006  18.349  0.00  0.00    +0.000 A 
ATOM     15  C   UNL     1       9.246  12.817  18.979  0.00  0.00    +0.000 A 
ENDBRANCH   5   6
ENDBRANCH   2   5
BRANCH   3  16
ATOM     16  C   UNL     1       7.844   7.181  18.018  0.00  0.00    +0.000 C 
BRANCH  16  17
ATOM     17  C   UNL     1       7.738   5.820  18.712  0.00  0.00    +0.000 C 
BRANCH  17  18
ATOM     18  C   UNL     1       6.322   5.355  18.756  0.00  0.00    +0.000 A 
ATOM     19  N   UNL     1       5.878   4.257  19.333  0.00  0.00    +0.000 NA
ATOM     20  C   UNL     1       4.532   4.217  19.068  0.00  0.00    +0.000 A 
ATOM     21  C   UNL     1       3.575   3.264  19.441  0.00  0.00    +0.000 A 
ATOM     22  C   UNL     1       2.248   3.454  19.035  0.00  0.00    +0.000 A 
ATOM     23  C   UNL     1       1.886   4.570  18.275  0.00  0.00    +0.000 A 
ATOM     24  C   UNL     1       2.830   5.530  17.891  0.00  0.00    +0.000 A 
ATOM     25  C   UNL     1       4.144   5.315  18.310  0.00  0.00    +0.000 A 
ATOM     26  N   UNL     1       5.303   6.026  18.128  0.00  0.00    +0.000 N 
ATOM     27  H   UNL     1       5.395   6.887  17.606  0.00  0.00    +0.000 HD
ENDBRANCH  17  18
ENDBRANCH  16  17
ENDBRANCH   3  16
TORSDOF 5
ENDMDL
MODEL 9
REMARK VINA RESULT:      -8.1      4.414      6.959
REMARK  Name = 
REMARK  5 active torsions:
REMARK  status: ('A' for Active; 'I' for Inactive)
REMARK    1  A    between atoms: C_2  and  C_3
REMARK    2  A    between atoms: C_3  and  C_4
REMARK    3  A    between atoms: N_14  and  C_15
REMARK    4  A    between atoms: C_15  and  C_16
REMARK    5  A    between atoms: C_16  and  C_17
REMARK                            x       y       z     vdW  Elec       q    Type
REMARK                         _______ _______ _______ _____ _____    ______ ____
ROOT
ATOM      1  O   UNL     1       8.239   4.495  17.446  0.00  0.00    +0.000 OA
ATOM      2  C   UNL     1       7.125   4.988  17.295  0.00  0.00    +0.000 C 
ATOM      3  N   UNL     1       6.842   6.305  17.577  0.00  0.00    +0.000 N 
ATOM      4  H   UNL     1       5.932   6.685  17.342  0.00  0.00    +0.000 HD
ENDROOT
BRANCH   2   5
ATOM      5  C   UNL     1       5.945   4.193  16.758  0.00  0.00    +0.000 C 
BRANCH   5   6
ATOM      6  C   UNL     1       4.725   4.224  17.646  0.00  0.00    +0.000 A 
ATOM      7  C   UNL     1       3.604   4.981  17.288  0.00  0.00    +0.000 A 
ATOM      8  C   UNL     1       2.450   4.955  18.072  0.00  0.00    +0.000 A 
ATOM      9  C   UNL     1       2.385   4.165  19.232  0.00  0.00    +0.000 A 
ATOM     10  C   UNL     1       1.220   4.103  20.010  0.00  0.00    +0.000 A 
ATOM     11  C   UNL     1       1.165   3.298  21.150  0.00  0.00    +0.000 A 
ATOM     12  C   UNL     1       2.278   2.553  21.527  0.00  0.00    +0.000 A 
ATOM     13  C   UNL     1       3.445   2.608  20.763  0.00  0.00    +0.000 A 
ATOM     14  C   UNL     1       3.512   3.402  19.609  0.00  0.00    +0.000 A 
ATOM     15  C   UNL     1       4.670   3.445  18.811  0.00  0.00    +0.000 A 
ENDBRANCH   5   6
ENDBRANCH   2   5
BRANCH   3  16
ATOM     16  C   UNL     1       7.837   7.243  18.076  0.00  0.00    +0.000 C 
BRANCH  16  17
ATOM     17  C   UNL     1       7.599   8.676  17.591  0.00  0.00    +0.000 C 
BRANCH  17  18
ATOM     18  C   UNL     1       8.593   9.612  18.190  0.00  0.00    +0.000 A 
ATOM     19  N   UNL     1       8.808   9.806  19.475  0.00  0.00    +0.000 NA
ATOM     20  C   UNL     1       9.762  10.790  19.547  0.00  0.00    +0.000 A 
ATOM     21  C   UNL     1      10.354  11.382  20.671  0.00  0.00    +0.000 A 
ATOM     22  C   UNL     1      11.314  12.382  20.474  0.00  0.00    +0.000 A 
ATOM     23  C   UNL     1      11.675  12.781  19.184  0.00  0.00    +0.000 A 
ATOM     24  C   UNL     1      11.092  12.202  18.050  0.00  0.00    +0.000 A 
ATOM     25  C   UNL     1      10.139  11.208  18.277  0.00  0.00    +0.000 A 
ATOM     26  N   UNL     1       9.382  10.440  17.430  0.00  0.00    +0.000 N 
ATOM     27  H   UNL     1       9.389  10.486  16.420  0.00  0.00    +0.000 HD
ENDBRANCH  17  18
ENDBRANCH  16  17
ENDBRANCH   3  16
TORSDOF 5
ENDMDL
