MODEL 1
REMARK VINA RESULT:      -8.4      0.000      0.000
REMARK  Name = 
REMARK  5 active torsions:
REMARK  status: ('A' for Active; 'I' for Inactive)
REMARK    1  A    between atoms: C_1  and  N_2
REMARK    2  A    between atoms: C_6  and  C_7
REMARK    3  A    between atoms: C_7  and  C_8
REMARK    4  A    between atoms: C_11  and  N_12
REMARK    5  A    between atoms: C_19  and  C_20
REMARK                            x       y       z     vdW  Elec       q    Type
REMARK                         _______ _______ _______ _____ _____    ______ ____
ROOT
ATOM      1  N   UNL     1       2.190   7.221  19.721  0.00  0.00    +0.000 N 
ATOM      2  C   UNL     1       1.454   7.678  20.897  0.00  0.00    +0.000 C 
ATOM      3  C   UNL     1       0.973   9.035  20.512  0.00  0.00    +0.000 A 
ATOM      4  C   UNL     1       1.392   9.317  19.210  0.00  0.00    +0.000 A 
ATOM      5  C   UNL     1       1.041  10.496  18.577  0.00  0.00    +0.000 A 
ATOM      6  C   UNL     1       0.257  11.411  19.290  0.00  0.00    +0.000 A 
ATOM      7  C   UNL     1      -0.157  11.138  20.608  0.00  0.00    +0.000 A 
ATOM      8  C   UNL     1       0.197   9.935  21.246  0.00  0.00    +0.000 A 
ATOM      9  C   UNL     1       2.174   8.162  18.701  0.00  0.00    +0.000 C 
ATOM     10  O   UNL     1       2.646   8.076  17.582  0.00  0.00    +0.000 OA
ENDROOT
BRANCH   1  14
ATOM     11  C   UNL     1       3.956   5.191  19.532  0.00  0.00    +0.000 C 
ATOM     12  N   UNL     1       3.153   4.118  19.531  0.00  0.00    +0.000 NA
ATOM     13  C   UNL     1       1.986   4.782  19.720  0.00  0.00    +0.000 C 
ATOM     14  C   UNL     1       2.680   5.915  19.673  0.00  0.00    +0.000 C 
BRANCH  11  15
ATOM     15  C   UNL     1       5.205   4.400  19.392  0.00  0.00    +0.000 C 
BRANCH  15  21
ATOM     16  C   UNL     1       4.506   4.238  16.231  0.00  0.00    +0.000 C 
ATOM     17  N   UNL     1       5.781   4.399  16.872  0.00  0.00    +0.000 N 
ATOM     18  C   UNL     1       6.976   4.378  16.210  0.00  0.00    +0.000 A 
ATOM     19  N   UNL     1       7.958   4.518  17.063  0.00  0.00    +0.000 NA
ATOM     20  N   UNL     1       7.399   4.648  18.305  0.00  0.00    +0.000 NA
ATOM     21  C   UNL     1       6.082   4.577  18.201  0.00  0.00    +0.000 A 
ENDBRANCH  15  21
ENDBRANCH  11  15
ENDBRANCH   1  14
BRANCH   8  22
ATOM     22  C   UNL     1      -0.263   9.663  22.658  0.00  0.00    +0.000 C 
ATOM     23  F   UNL     1       0.761   9.477  23.536  0.00  0.00    +0.000 F 
ATOM     24  F   UNL     1      -1.008  10.680  23.169  0.00  0.00    +0.000 F 
ATOM     25  F   UNL     1      -1.035   8.546  22.750  0.00  0.00    +0.000 F 
ENDBRANCH   8  22
TORSDOF 4
ENDMDL
MODEL 2
REMARK VINA RESULT:      -8.1      0.945      1.261
REMARK  Name = 
REMARK  5 active torsions:
REMARK  status: ('A' for Active; 'I' for Inactive)
REMARK    1  A    between atoms: C_1  and  N_2
REMARK    2  A    between atoms: C_6  and  C_7
REMARK    3  A    between atoms: C_7  and  C_8
REMARK    4  A    between atoms: C_11  and  N_12
REMARK    5  A    between atoms: C_19  and  C_20
REMARK                            x       y       z     vdW  Elec       q    Type
REMARK                         _______ _______ _______ _____ _____    ______ ____
ROOT
ATOM      1  N   UNL     1       1.926   7.826  19.317  0.00  0.00    +0.000 N 
ATOM      2  C   UNL     1       1.274   8.071  20.601  0.00  0.00    +0.000 C 
ATOM      3  C   UNL     1       0.792   9.477  20.494  0.00  0.00    +0.000 A 
ATOM      4  C   UNL     1       1.133   9.984  19.238  0.00  0.00    +0.000 A 
ATOM      5  C   UNL     1       0.762  11.257  18.848  0.00  0.00    +0.000 A 
ATOM      6  C   UNL     1       0.040  12.036  19.761  0.00  0.00    +0.000 A 
ATOM      7  C   UNL     1      -0.293  11.535  21.034  0.00  0.00    +0.000 A 
ATOM      8  C   UNL     1       0.080  10.237  21.425  0.00  0.00    +0.000 A 
ATOM      9  C   UNL     1       1.861   8.933  18.483  0.00  0.00    +0.000 C 
ATOM     10  O   UNL     1       2.259   9.044  17.338  0.00  0.00    +0.000 OA
ENDROOT
BRANCH   1  14
ATOM     11  C   UNL     1       3.517   5.648  19.313  0.00  0.00    +0.000 C 
ATOM     12  N   UNL     1       2.915   4.859  18.412  0.00  0.00    +0.000 NA
ATOM     13  C   UNL     1       1.848   5.663  18.175  0.00  0.00    +0.000 C 
ATOM     14  C   UNL     1       2.391   6.547  19.007  0.00  0.00    +0.000 C 
BRANCH  11  15
ATOM     15  C   UNL     1       4.624   4.694  19.578  0.00  0.00    +0.000 C 
BRANCH  15  21
ATOM     16  C   UNL     1       5.714   4.089  16.586  0.00  0.00    +0.000 C 
ATOM     17  N   UNL     1       6.435   4.551  17.739  0.00  0.00    +0.000 N 
ATOM     18  C   UNL     1       7.794   4.691  17.784  0.00  0.00    +0.000 A 
ATOM     19  N   UNL     1       8.157   5.098  18.972  0.00  0.00    +0.000 NA
ATOM     20  N   UNL     1       7.019   5.243  19.717  0.00  0.00    +0.000 NA
ATOM     21  C   UNL     1       5.970   4.914  18.980  0.00  0.00    +0.000 A 
ENDBRANCH  15  21
ENDBRANCH  11  15
ENDBRANCH   1  14
BRANCH   8  22
ATOM     22  C   UNL     1      -0.294   9.721  22.794  0.00  0.00    +0.000 C 
ATOM     23  F   UNL     1      -1.002   8.557  22.761  0.00  0.00    +0.000 F 
ATOM     24  F   UNL     1       0.792   9.470  23.571  0.00  0.00    +0.000 F 
ATOM     25  F   UNL     1      -1.064  10.600  23.491  0.00  0.00    +0.000 F 
ENDBRANCH   8  22
TORSDOF 4
ENDMDL
MODEL 3
REMARK VINA RESULT:      -8.1      1.501      1.858
REMARK  Name = 
REMARK  5 active torsions:
REMARK  status: ('A' for Active; 'I' for Inactive)
REMARK    1  A    between atoms: C_1  and  N_2
REMARK    2  A    between atoms: C_6  and  C_7
REMARK    3  A    between atoms: C_7  and  C_8
REMARK    4  A    between atoms: C_11  and  N_12
REMARK    5  A    between atoms: C_19  and  C_20
REMARK                            x       y       z     vdW  Elec       q    Type
REMARK                         _______ _______ _______ _____ _____    ______ ____
ROOT
ATOM      1  N   UNL     1       1.862   8.142  19.363  0.00  0.00    +0.000 N 
ATOM      2  C   UNL     1       1.203   8.314  20.656  0.00  0.00    +0.000 C 
ATOM      3  C   UNL     1       0.493   9.617  20.525  0.00  0.00    +0.000 A 
ATOM      4  C   UNL     1       0.720  10.136  19.249  0.00  0.00    +0.000 A 
ATOM      5  C   UNL     1       0.136  11.319  18.836  0.00  0.00    +0.000 A 
ATOM      6  C   UNL     1      -0.687  11.995  19.745  0.00  0.00    +0.000 A 
ATOM      7  C   UNL     1      -0.907  11.483  21.039  0.00  0.00    +0.000 A 
ATOM      8  C   UNL     1      -0.317  10.276  21.453  0.00  0.00    +0.000 A 
ATOM      9  C   UNL     1       1.598   9.199  18.503  0.00  0.00    +0.000 C 
ATOM     10  O   UNL     1       1.950   9.341  17.347  0.00  0.00    +0.000 OA
ENDROOT
BRANCH   1  14
ATOM     11  C   UNL     1       3.562   6.422  18.169  0.00  0.00    +0.000 C 
ATOM     12  N   UNL     1       3.243   5.259  18.753  0.00  0.00    +0.000 NA
ATOM     13  C   UNL     1       2.331   5.755  19.626  0.00  0.00    +0.000 C 
ATOM     14  C   UNL     1       2.525   6.949  19.074  0.00  0.00    +0.000 C 
BRANCH  11  15
ATOM     15  C   UNL     1       4.597   5.827  17.287  0.00  0.00    +0.000 C 
BRANCH  15  21
ATOM     16  C   UNL     1       6.847   5.334  19.567  0.00  0.00    +0.000 C 
ATOM     17  N   UNL     1       6.911   6.155  18.391  0.00  0.00    +0.000 N 
ATOM     18  C   UNL     1       7.946   7.002  18.107  0.00  0.00    +0.000 A 
ATOM     19  N   UNL     1       7.704   7.635  16.988  0.00  0.00    +0.000 NA
ATOM     20  N   UNL     1       6.500   7.187  16.520  0.00  0.00    +0.000 NA
ATOM     21  C   UNL     1       6.011   6.290  17.362  0.00  0.00    +0.000 A 
ENDBRANCH  15  21
ENDBRANCH  11  15
ENDBRANCH   1  14
BRANCH   8  22
ATOM     22  C   UNL     1      -0.573   9.745  22.843  0.00  0.00    +0.000 C 
ATOM     23  F   UNL     1       0.554   9.638  23.600  0.00  0.00    +0.000 F 
ATOM     24  F   UNL     1      -1.422  10.534  23.554  0.00  0.00    +0.000 F 
ATOM     25  F   UNL     1      -1.129   8.503  22.834  0.00  0.00    +0.000 F 
ENDBRANCH   8  22
TORSDOF 4
ENDMDL
MODEL 4
REMARK VINA RESULT:      -8.1      0.785      1.078
REMARK  Name = 
REMARK  5 active torsions:
REMARK  status: ('A' for Active; 'I' for Inactive)
REMARK    1  A    between atoms: C_1  and  N_2
REMARK    2  A    between atoms: C_6  and  C_7
REMARK    3  A    between atoms: C_7  and  C_8
REMARK    4  A    between atoms: C_11  and  N_12
REMARK    5  A    between atoms: C_19  and  C_20
REMARK                            x       y       z     vdW  Elec       q    Type
REMARK                         _______ _______ _______ _____ _____    ______ ____
ROOT
ATOM      1  N   UNL     1       2.133   7.643  19.614  0.00  0.00    +0.000 N 
ATOM      2  C   UNL     1       1.426   7.978  20.848  0.00  0.00    +0.000 C 
ATOM      3  C   UNL     1       0.735   9.258  20.526  0.00  0.00    +0.000 A 
ATOM      4  C   UNL     1       1.017   9.613  19.205  0.00  0.00    +0.000 A 
ATOM      5  C   UNL     1       0.461  10.738  18.624  0.00  0.00    +0.000 A 
ATOM      6  C   UNL     1      -0.390  11.525  19.409  0.00  0.00    +0.000 A 
ATOM      7  C   UNL     1      -0.667  11.180  20.745  0.00  0.00    +0.000 A 
ATOM      8  C   UNL     1      -0.105  10.032  21.331  0.00  0.00    +0.000 A 
ATOM      9  C   UNL     1       1.914   8.585  18.618  0.00  0.00    +0.000 C 
ATOM     10  O   UNL     1       2.313   8.580  17.469  0.00  0.00    +0.000 OA
ENDROOT
BRANCH   1  14
ATOM     11  C   UNL     1       4.129   5.882  19.182  0.00  0.00    +0.000 C 
ATOM     12  N   UNL     1       3.500   4.705  19.307  0.00  0.00    +0.000 NA
ATOM     13  C   UNL     1       2.288   5.201  19.660  0.00  0.00    +0.000 C 
ATOM     14  C   UNL     1       2.796   6.420  19.504  0.00  0.00    +0.000 C 
BRANCH  11  15
ATOM     15  C   UNL     1       5.447   5.273  18.866  0.00  0.00    +0.000 C 
BRANCH  15  21
ATOM     16  C   UNL     1       4.954   3.628  16.117  0.00  0.00    +0.000 C 
ATOM     17  N   UNL     1       5.905   4.667  16.395  0.00  0.00    +0.000 N 
ATOM     18  C   UNL     1       6.889   5.052  15.529  0.00  0.00    +0.000 A 
ATOM     19  N   UNL     1       7.614   5.995  16.073  0.00  0.00    +0.000 NA
ATOM     20  N   UNL     1       7.090   6.245  17.312  0.00  0.00    +0.000 NA
ATOM     21  C   UNL     1       6.054   5.446  17.517  0.00  0.00    +0.000 A 
ENDBRANCH  15  21
ENDBRANCH  11  15
ENDBRANCH   1  14
BRANCH   8  22
ATOM     22  C   UNL     1      -0.422   9.681  22.765  0.00  0.00    +0.000 C 
ATOM     23  F   UNL     1      -1.090   8.502  22.900  0.00  0.00    +0.000 F 
ATOM     24  F   UNL     1       0.694   9.563  23.532  0.00  0.00    +0.000 F 
ATOM     25  F   UNL     1      -1.201  10.617  23.372  0.00  0.00    +0.000 F 
ENDBRANCH   8  22
TORSDOF 4
ENDMDL
MODEL 5
REMARK VINA RESULT:      -8.0      0.793      1.197
REMARK  Name = 
REMARK  5 active torsions:
REMARK  status: ('A' for Active; 'I' for Inactive)
REMARK    1  A    between atoms: C_1  and  N_2
REMARK    2  A    between atoms: C_6  and  C_7
REMARK    3  A    between atoms: C_7  and  C_8
REMARK    4  A    between atoms: C_11  and  N_12
REMARK    5  A    between atoms: C_19  and  C_20
REMARK                            x       y       z     vdW  Elec       q    Type
REMARK                         _______ _______ _______ _____ _____    ______ ____
ROOT
ATOM      1  N   UNL     1       2.195   7.457  19.594  0.00  0.00    +0.000 N 
ATOM      2  C   UNL     1       1.478   7.847  20.806  0.00  0.00    +0.000 C 
ATOM      3  C   UNL     1       0.879   9.166  20.457  0.00  0.00    +0.000 A 
ATOM      4  C   UNL     1       1.218   9.491  19.142  0.00  0.00    +0.000 A 
ATOM      5  C   UNL     1       0.751  10.644  18.539  0.00  0.00    +0.000 A 
ATOM      6  C   UNL     1      -0.069  11.491  19.295  0.00  0.00    +0.000 A 
ATOM      7  C   UNL     1      -0.402  11.175  20.626  0.00  0.00    +0.000 A 
ATOM      8  C   UNL     1       0.069   9.998  21.234  0.00  0.00    +0.000 A 
ATOM      9  C   UNL     1       2.063   8.403  18.587  0.00  0.00    +0.000 C 
ATOM     10  O   UNL     1       2.491   8.362  17.449  0.00  0.00    +0.000 OA
ENDROOT
BRANCH   1  14
ATOM     11  C   UNL     1       4.092   5.570  19.258  0.00  0.00    +0.000 C 
ATOM     12  N   UNL     1       3.380   4.437  19.338  0.00  0.00    +0.000 NA
ATOM     13  C   UNL     1       2.186   5.011  19.628  0.00  0.00    +0.000 C 
ATOM     14  C   UNL     1       2.781   6.194  19.510  0.00  0.00    +0.000 C 
BRANCH  11  15
ATOM     15  C   UNL     1       5.382   4.877  19.010  0.00  0.00    +0.000 C 
BRANCH  15  21
ATOM     16  C   UNL     1       7.413   6.842  17.423  0.00  0.00    +0.000 C 
ATOM     17  N   UNL     1       6.711   5.684  16.945  0.00  0.00    +0.000 N 
ATOM     18  C   UNL     1       6.694   5.289  15.637  0.00  0.00    +0.000 A 
ATOM     19  N   UNL     1       5.947   4.223  15.507  0.00  0.00    +0.000 NA
ATOM     20  N   UNL     1       5.477   3.903  16.752  0.00  0.00    +0.000 NA
ATOM     21  C   UNL     1       5.934   4.782  17.630  0.00  0.00    +0.000 A 
ENDBRANCH  15  21
ENDBRANCH  11  15
ENDBRANCH   1  14
BRANCH   8  22
ATOM     22  C   UNL     1      -0.307   9.680  22.661  0.00  0.00    +0.000 C 
ATOM     23  F   UNL     1       0.767   9.516  23.482  0.00  0.00    +0.000 F 
ATOM     24  F   UNL     1      -1.062  10.657  23.232  0.00  0.00    +0.000 F 
ATOM     25  F   UNL     1      -1.030   8.532  22.768  0.00  0.00    +0.000 F 
ENDBRANCH   8  22
TORSDOF 4
ENDMDL
MODEL 6
REMARK VINA RESULT:      -7.8      2.188      3.429
REMARK  Name = 
REMARK  5 active torsions:
REMARK  status: ('A' for Active; 'I' for Inactive)
REMARK    1  A    between atoms: C_1  and  N_2
REMARK    2  A    between atoms: C_6  and  C_7
REMARK    3  A    between atoms: C_7  and  C_8
REMARK    4  A    between atoms: C_11  and  N_12
REMARK    5  A    between atoms: C_19  and  C_20
REMARK                            x       y       z     vdW  Elec       q    Type
REMARK                         _______ _______ _______ _____ _____    ______ ____
ROOT
ATOM      1  N   UNL     1       1.904   8.508  19.051  0.00  0.00    +0.000 N 
ATOM      2  C   UNL     1       1.261   8.515  20.363  0.00  0.00    +0.000 C 
ATOM      3  C   UNL     1       0.633   9.864  20.446  0.00  0.00    +0.000 A 
ATOM      4  C   UNL     1       0.888  10.561  19.263  0.00  0.00    +0.000 A 
ATOM      5  C   UNL     1       0.377  11.827  19.047  0.00  0.00    +0.000 A 
ATOM      6  C   UNL     1      -0.400  12.401  20.061  0.00  0.00    +0.000 A 
ATOM      7  C   UNL     1      -0.648  11.707  21.261  0.00  0.00    +0.000 A 
ATOM      8  C   UNL     1      -0.132  10.417  21.475  0.00  0.00    +0.000 A 
ATOM      9  C   UNL     1       1.704   9.700  18.369  0.00  0.00    +0.000 C 
ATOM     10  O   UNL     1       2.060  10.000  17.245  0.00  0.00    +0.000 OA
ENDROOT
BRANCH   1  14
ATOM     11  C   UNL     1       2.351   5.874  18.681  0.00  0.00    +0.000 C 
ATOM     12  N   UNL     1       3.452   5.879  17.916  0.00  0.00    +0.000 NA
ATOM     13  C   UNL     1       3.546   7.224  17.769  0.00  0.00    +0.000 C 
ATOM     14  C   UNL     1       2.492   7.337  18.572  0.00  0.00    +0.000 C 
BRANCH  11  15
ATOM     15  C   UNL     1       2.266   4.393  18.748  0.00  0.00    +0.000 C 
BRANCH  15  21
ATOM     16  C   UNL     1       4.434   2.323  19.981  0.00  0.00    +0.000 C 
ATOM     17  N   UNL     1       3.169   2.740  20.518  0.00  0.00    +0.000 N 
ATOM     18  C   UNL     1       2.597   2.197  21.635  0.00  0.00    +0.000 A 
ATOM     19  N   UNL     1       1.437   2.759  21.856  0.00  0.00    +0.000 NA
ATOM     20  N   UNL     1       1.248   3.697  20.878  0.00  0.00    +0.000 NA
ATOM     21  C   UNL     1       2.291   3.694  20.063  0.00  0.00    +0.000 A 
ENDBRANCH  15  21
ENDBRANCH  11  15
ENDBRANCH   1  14
BRANCH   8  22
ATOM     22  C   UNL     1      -0.417   9.692  22.769  0.00  0.00    +0.000 C 
ATOM     23  F   UNL     1      -1.286  10.354  23.582  0.00  0.00    +0.000 F 
ATOM     24  F   UNL     1      -0.961   8.463  22.569  0.00  0.00    +0.000 F 
ATOM     25  F   UNL     1       0.704   9.493  23.514  0.00  0.00    +0.000 F 
ENDBRANCH   8  22
TORSDOF 4
ENDMDL
MODEL 7
REMARK VINA RESULT:      -7.7      4.416      8.047
REMARK  Name = 
REMARK  5 active torsions:
REMARK  status: ('A' for Active; 'I' for Inactive)
REMARK    1  A    between atoms: C_1  and  N_2
REMARK    2  A    between atoms: C_6  and  C_7
REMARK    3  A    between atoms: C_7  and  C_8
REMARK    4  A    between atoms: C_11  and  N_12
REMARK    5  A    between atoms: C_19  and  C_20
REMARK                            x       y       z     vdW  Elec       q    Type
REMARK                         _______ _______ _______ _____ _____    ______ ____
ROOT
ATOM      1  N   UNL     1       2.230   6.948  19.128  0.00  0.00    +0.000 N 
ATOM      2  C   UNL     1       2.711   5.845  18.300  0.00  0.00    +0.000 C 
ATOM      3  C   UNL     1       2.610   4.657  19.195  0.00  0.00    +0.000 A 
ATOM      4  C   UNL     1       2.095   5.057  20.430  0.00  0.00    +0.000 A 
ATOM      5  C   UNL     1       1.848   4.144  21.439  0.00  0.00    +0.000 A 
ATOM      6  C   UNL     1       2.143   2.798  21.189  0.00  0.00    +0.000 A 
ATOM      7  C   UNL     1       2.675   2.392  19.950  0.00  0.00    +0.000 A 
ATOM      8  C   UNL     1       2.919   3.322  18.924  0.00  0.00    +0.000 A 
ATOM      9  C   UNL     1       1.854   6.521  20.394  0.00  0.00    +0.000 C 
ATOM     10  O   UNL     1       1.370   7.172  21.301  0.00  0.00    +0.000 OA
ENDROOT
BRANCH   1  14
ATOM     11  C   UNL     1       1.201   9.405  18.699  0.00  0.00    +0.000 C 
ATOM     12  N   UNL     1       1.912   9.828  17.645  0.00  0.00    +0.000 NA
ATOM     13  C   UNL     1       2.741   8.758  17.562  0.00  0.00    +0.000 C 
ATOM     14  C   UNL     1       2.061   8.215  18.567  0.00  0.00    +0.000 C 
BRANCH  11  15
ATOM     15  C   UNL     1       0.371  10.634  18.779  0.00  0.00    +0.000 C 
BRANCH  15  21
ATOM     16  C   UNL     1      -2.227  12.377  19.624  0.00  0.00    +0.000 C 
ATOM     17  N   UNL     1      -2.115  11.327  18.650  0.00  0.00    +0.000 N 
ATOM     18  C   UNL     1      -3.180  10.786  17.986  0.00  0.00    +0.000 A 
ATOM     19  N   UNL     1      -2.768   9.832  17.192  0.00  0.00    +0.000 NA
ATOM     20  N   UNL     1      -1.409   9.753  17.325  0.00  0.00    +0.000 NA
ATOM     21  C   UNL     1      -1.003  10.655  18.205  0.00  0.00    +0.000 A 
ENDBRANCH  15  21
ENDBRANCH  11  15
ENDBRANCH   1  14
BRANCH   8  22
ATOM     22  C   UNL     1       3.485   2.861  17.602  0.00  0.00    +0.000 C 
ATOM     23  F   UNL     1       3.739   1.524  17.557  0.00  0.00    +0.000 F 
ATOM     24  F   UNL     1       2.650   3.114  16.560  0.00  0.00    +0.000 F 
ATOM     25  F   UNL     1       4.664   3.470  17.298  0.00  0.00    +0.000 F 
ENDBRANCH   8  22
TORSDOF 4
ENDMDL
MODEL 8
REMARK VINA RESULT:      -7.7      1.339      1.812
REMARK  Name = 
REMARK  5 active torsions:
REMARK  status: ('A' for Active; 'I' for Inactive)
REMARK    1  A    between atoms: C_1  and  N_2
REMARK    2  A    between atoms: C_6  and  C_7
REMARK    3  A    between atoms: C_7  and  C_8
REMARK    4  A    between atoms: C_11  and  N_12
REMARK    5  A    between atoms: C_19  and  C_20
REMARK                            x       y       z     vdW  Elec       q    Type
REMARK                         _______ _______ _______ _____ _____    ______ ____
ROOT
ATOM      1  N   UNL     1       2.056   8.515  18.950  0.00  0.00    +0.000 N 
ATOM      2  C   UNL     1       1.394   8.476  20.252  0.00  0.00    +0.000 C 
ATOM      3  C   UNL     1       0.667   9.775  20.322  0.00  0.00    +0.000 A 
ATOM      4  C   UNL     1       0.889  10.489  19.142  0.00  0.00    +0.000 A 
ATOM      5  C   UNL     1       0.289  11.714  18.915  0.00  0.00    +0.000 A 
ATOM      6  C   UNL     1      -0.543  12.229  19.916  0.00  0.00    +0.000 A 
ATOM      7  C   UNL     1      -0.758  11.521  21.114  0.00  0.00    +0.000 A 
ATOM      8  C   UNL     1      -0.152  10.272  21.339  0.00  0.00    +0.000 A 
ATOM      9  C   UNL     1       1.779   9.689  18.263  0.00  0.00    +0.000 C 
ATOM     10  O   UNL     1       2.130  10.013  17.144  0.00  0.00    +0.000 OA
ENDROOT
BRANCH   1  14
ATOM     11  C   UNL     1       3.766   7.020  17.496  0.00  0.00    +0.000 C 
ATOM     12  N   UNL     1       3.477   5.778  17.909  0.00  0.00    +0.000 NA
ATOM     13  C   UNL     1       2.571   6.125  18.857  0.00  0.00    +0.000 C 
ATOM     14  C   UNL     1       2.736   7.390  18.482  0.00  0.00    +0.000 C 
BRANCH  11  15
ATOM     15  C   UNL     1       4.797   6.580  16.522  0.00  0.00    +0.000 C 
BRANCH  15  21
ATOM     16  C   UNL     1       6.205   3.762  15.756  0.00  0.00    +0.000 C 
ATOM     17  N   UNL     1       6.598   4.738  16.734  0.00  0.00    +0.000 N 
ATOM     18  C   UNL     1       7.612   4.553  17.631  0.00  0.00    +0.000 A 
ATOM     19  N   UNL     1       7.711   5.599  18.410  0.00  0.00    +0.000 NA
ATOM     20  N   UNL     1       6.756   6.493  18.010  0.00  0.00    +0.000 NA
ATOM     21  C   UNL     1       6.076   5.981  16.996  0.00  0.00    +0.000 A 
ENDBRANCH  15  21
ENDBRANCH  11  15
ENDBRANCH   1  14
BRANCH   8  22
ATOM     22  C   UNL     1      -0.403   9.529  22.629  0.00  0.00    +0.000 C 
ATOM     23  F   UNL     1      -1.273  10.166  23.462  0.00  0.00    +0.000 F 
ATOM     24  F   UNL     1      -0.926   8.291  22.425  0.00  0.00    +0.000 F 
ATOM     25  F   UNL     1       0.733   9.345  23.355  0.00  0.00    +0.000 F 
ENDBRANCH   8  22
TORSDOF 4
ENDMDL
MODEL 9
REMARK VINA RESULT:      -7.7      4.273      8.093
REMARK  Name = 
REMARK  5 active torsions:
REMARK  status: ('A' for Active; 'I' for Inactive)
REMARK    1  A    between atoms: C_1  and  N_2
REMARK    2  A    between atoms: C_6  and  C_7
REMARK    3  A    between atoms: C_7  and  C_8
REMARK    4  A    between atoms: C_11  and  N_12
REMARK    5  A    between atoms: C_19  and  C_20
REMARK                            x       y       z     vdW  Elec       q    Type
REMARK                         _______ _______ _______ _____ _____    ______ ____
ROOT
ATOM      1  N   UNL     1       2.377   6.956  19.263  0.00  0.00    +0.000 N 
ATOM      2  C   UNL     1       3.349   7.120  18.185  0.00  0.00    +0.000 C 
ATOM      3  C   UNL     1       3.726   5.723  17.828  0.00  0.00    +0.000 A 
ATOM      4  C   UNL     1       3.011   4.835  18.634  0.00  0.00    +0.000 A 
ATOM      5  C   UNL     1       3.129   3.466  18.482  0.00  0.00    +0.000 A 
ATOM      6  C   UNL     1       4.004   2.991  17.497  0.00  0.00    +0.000 A 
ATOM      7  C   UNL     1       4.739   3.882  16.692  0.00  0.00    +0.000 A 
ATOM      8  C   UNL     1       4.611   5.274  16.845  0.00  0.00    +0.000 A 
ATOM      9  C   UNL     1       2.149   5.618  19.556  0.00  0.00    +0.000 C 
ATOM     10  O   UNL     1       1.370   5.140  20.359  0.00  0.00    +0.000 OA
ENDROOT
BRANCH   1  14
ATOM     11  C   UNL     1       1.139   9.351  19.308  0.00  0.00    +0.000 C 
ATOM     12  N   UNL     1       0.893   9.518  20.615  0.00  0.00    +0.000 NA
ATOM     13  C   UNL     1       1.358   8.312  21.026  0.00  0.00    +0.000 C 
ATOM     14  C   UNL     1       1.701   8.068  19.765  0.00  0.00    +0.000 C 
BRANCH  11  15
ATOM     15  C   UNL     1       0.553  10.658  18.914  0.00  0.00    +0.000 C 
BRANCH  15  21
ATOM     16  C   UNL     1      -2.018  12.391  19.858  0.00  0.00    +0.000 C 
ATOM     17  N   UNL     1      -1.924  11.392  18.831  0.00  0.00    +0.000 N 
ATOM     18  C   UNL     1      -2.998  10.901  18.143  0.00  0.00    +0.000 A 
ATOM     19  N   UNL     1      -2.601   9.984  17.298  0.00  0.00    +0.000 NA
ATOM     20  N   UNL     1      -1.243   9.879  17.422  0.00  0.00    +0.000 NA
ATOM     21  C   UNL     1      -0.823  10.728  18.347  0.00  0.00    +0.000 A 
ENDBRANCH  15  21
ENDBRANCH  11  15
ENDBRANCH   1  14
BRANCH   8  22
ATOM     22  C   UNL     1       5.406   6.209  15.965  0.00  0.00    +0.000 C 
ATOM     23  F   UNL     1       6.189   5.564  15.056  0.00  0.00    +0.000 F 
ATOM     24  F   UNL     1       4.614   7.046  15.244  0.00  0.00    +0.000 F 
ATOM     25  F   UNL     1       6.249   7.006  16.677  0.00  0.00    +0.000 F 
ENDBRANCH   8  22
TORSDOF 4
ENDMDL
