MODEL 1
REMARK VINA RESULT:      -8.3      0.000      0.000
REMARK  Name = 
REMARK  4 active torsions:
REMARK  status: ('A' for Active; 'I' for Inactive)
REMARK    1  A    between atoms: C_2  and  C_15
REMARK    2  A    between atoms: N_3  and  C_4
REMARK    3  A    between atoms: C_19  and  N_20
REMARK    4  A    between atoms: C_21  and  C_23
REMARK                            x       y       z     vdW  Elec       q    Type
REMARK                         _______ _______ _______ _____ _____    ______ ____
ROOT
ATOM      1  O   UNL     1       1.735   8.575  17.761  0.00  0.00    +0.000 OA
ATOM      2  C   UNL     1       1.819   8.174  18.915  0.00  0.00    +0.000 C 
ATOM      3  N   UNL     1       2.374   6.977  19.333  0.00  0.00    +0.000 N 
ATOM      4  H   UNL     1       2.176   6.646  20.275  0.00  0.00    +0.000 HD
ENDROOT
BRANCH   3   5
ATOM      5  C   UNL     1       3.012   5.999  18.525  0.00  0.00    +0.000 A 
ATOM      6  C   UNL     1       4.090   6.312  17.689  0.00  0.00    +0.000 A 
ATOM      7  C   UNL     1       4.646   5.330  16.879  0.00  0.00    +0.000 A 
ATOM      8 CL   UNL     1       5.957   5.718  15.836  0.00  0.00    +0.000 Cl
ATOM      9  C   UNL     1       4.142   4.034  16.898  0.00  0.00    +0.000 A 
ATOM     10  C   UNL     1       3.080   3.707  17.751  0.00  0.00    +0.000 A 
ATOM     11  C   UNL     1       2.553   2.409  17.777  0.00  0.00    +0.000 A 
ATOM     12  C   UNL     1       1.495   2.106  18.621  0.00  0.00    +0.000 A 
ATOM     13  C   UNL     1       1.002   3.115  19.422  0.00  0.00    +0.000 A 
ATOM     14  N   UNL     1       1.480   4.384  19.429  0.00  0.00    +0.000 NA
ATOM     15  C   UNL     1       2.506   4.687  18.595  0.00  0.00    +0.000 A 
ENDBRANCH   3   5
BRANCH   2  16
ATOM     16  C   UNL     1       1.228   9.004  19.998  0.00  0.00    +0.000 A 
ATOM     17  C   UNL     1       0.922   8.420  21.231  0.00  0.00    +0.000 A 
ATOM     18  C   UNL     1       0.352   9.194  22.232  0.00  0.00    +0.000 A 
ATOM     19  C   UNL     1       0.113  10.550  22.010  0.00  0.00    +0.000 A 
ATOM     20  C   UNL     1       0.455  11.171  20.803  0.00  0.00    +0.000 A 
ATOM     21  C   UNL     1       1.016  10.382  19.788  0.00  0.00    +0.000 A 
BRANCH  20  22
ATOM     22  N   UNL     1       0.258  12.558  20.574  0.00  0.00    +0.000 N 
ATOM     23  C   UNL     1       1.177  13.567  20.828  0.00  0.00    +0.000 C 
ATOM     24  O   UNL     1       2.322  13.414  21.248  0.00  0.00    +0.000 OA
ATOM     25  H   UNL     1      -0.638  12.861  20.205  0.00  0.00    +0.000 HD
BRANCH  23  26
ATOM     26  C   UNL     1       0.689  14.983  20.467  0.00  0.00    +0.000 C 
ATOM     27  C   UNL     1      -0.433  14.897  19.434  0.00  0.00    +0.000 C 
ATOM     28  C   UNL     1      -0.298  16.185  18.671  0.00  0.00    +0.000 C 
ATOM     29  C   UNL     1       1.196  16.416  18.703  0.00  0.00    +0.000 C 
ATOM     30  O   UNL     1       1.691  15.853  19.929  0.00  0.00    +0.000 OA
ENDBRANCH  23  26
ENDBRANCH  20  22
ENDBRANCH   2  16
TORSDOF 4
ENDMDL
MODEL 2
REMARK VINA RESULT:      -8.1      1.201      1.388
REMARK  Name = 
REMARK  4 active torsions:
REMARK  status: ('A' for Active; 'I' for Inactive)
REMARK    1  A    between atoms: C_2  and  C_15
REMARK    2  A    between atoms: N_3  and  C_4
REMARK    3  A    between atoms: C_19  and  N_20
REMARK    4  A    between atoms: C_21  and  C_23
REMARK                            x       y       z     vdW  Elec       q    Type
REMARK                         _______ _______ _______ _____ _____    ______ ____
ROOT
ATOM      1  O   UNL     1       1.995   8.675  17.280  0.00  0.00    +0.000 OA
ATOM      2  C   UNL     1       2.010   8.339  18.458  0.00  0.00    +0.000 C 
ATOM      3  N   UNL     1       2.505   7.151  18.969  0.00  0.00    +0.000 N 
ATOM      4  H   UNL     1       2.251   6.882  19.918  0.00  0.00    +0.000 HD
ENDROOT
BRANCH   3   5
ATOM      5  C   UNL     1       3.148   6.110  18.250  0.00  0.00    +0.000 A 
ATOM      6  C   UNL     1       4.258   6.345  17.431  0.00  0.00    +0.000 A 
ATOM      7  C   UNL     1       4.819   5.301  16.709  0.00  0.00    +0.000 A 
ATOM      8 CL   UNL     1       6.171   5.593  15.686  0.00  0.00    +0.000 Cl
ATOM      9  C   UNL     1       4.289   4.018  16.798  0.00  0.00    +0.000 A 
ATOM     10  C   UNL     1       3.193   3.769  17.635  0.00  0.00    +0.000 A 
ATOM     11  C   UNL     1       2.640   2.486  17.731  0.00  0.00    +0.000 A 
ATOM     12  C   UNL     1       1.550   2.261  18.558  0.00  0.00    +0.000 A 
ATOM     13  C   UNL     1       1.052   3.330  19.273  0.00  0.00    +0.000 A 
ATOM     14  N   UNL     1       1.556   4.588  19.210  0.00  0.00    +0.000 NA
ATOM     15  C   UNL     1       2.613   4.815  18.392  0.00  0.00    +0.000 A 
ENDBRANCH   3   5
BRANCH   2  16
ATOM     16  C   UNL     1       1.396   9.248  19.462  0.00  0.00    +0.000 A 
ATOM     17  C   UNL     1       0.974   8.737  20.693  0.00  0.00    +0.000 A 
ATOM     18  C   UNL     1       0.383   9.586  21.619  0.00  0.00    +0.000 A 
ATOM     19  C   UNL     1       0.237  10.941  21.325  0.00  0.00    +0.000 A 
ATOM     20  C   UNL     1       0.695  11.488  20.120  0.00  0.00    +0.000 A 
ATOM     21  C   UNL     1       1.277  10.624  19.180  0.00  0.00    +0.000 A 
BRANCH  20  22
ATOM     22  N   UNL     1       0.592  12.871  19.820  0.00  0.00    +0.000 N 
ATOM     23  C   UNL     1      -0.203  13.437  18.833  0.00  0.00    +0.000 C 
ATOM     24  O   UNL     1      -0.979  12.833  18.095  0.00  0.00    +0.000 OA
ATOM     25  H   UNL     1       1.158  13.521  20.355  0.00  0.00    +0.000 HD
BRANCH  23  26
ATOM     26  C   UNL     1      -0.120  14.973  18.744  0.00  0.00    +0.000 C 
ATOM     27  C   UNL     1       1.333  15.421  18.885  0.00  0.00    +0.000 C 
ATOM     28  C   UNL     1       1.214  16.787  19.501  0.00  0.00    +0.000 C 
ATOM     29  C   UNL     1      -0.013  16.634  20.372  0.00  0.00    +0.000 C 
ATOM     30  O   UNL     1      -0.877  15.681  19.733  0.00  0.00    +0.000 OA
ENDBRANCH  23  26
ENDBRANCH  20  22
ENDBRANCH   2  16
TORSDOF 4
ENDMDL
MODEL 3
REMARK VINA RESULT:      -7.8      3.769      9.019
REMARK  Name = 
REMARK  4 active torsions:
REMARK  status: ('A' for Active; 'I' for Inactive)
REMARK    1  A    between atoms: C_2  and  C_15
REMARK    2  A    between atoms: N_3  and  C_4
REMARK    3  A    between atoms: C_19  and  N_20
REMARK    4  A    between atoms: C_21  and  C_23
REMARK                            x       y       z     vdW  Elec       q    Type
REMARK                         _______ _______ _______ _____ _____    ______ ____
ROOT
ATOM      1  O   UNL     1       1.979   9.645  17.812  0.00  0.00    +0.000 OA
ATOM      2  C   UNL     1       1.635   9.007  18.799  0.00  0.00    +0.000 C 
ATOM      3  N   UNL     1       0.777   9.433  19.799  0.00  0.00    +0.000 N 
ATOM      4  H   UNL     1       0.753   8.919  20.677  0.00  0.00    +0.000 HD
ENDROOT
BRANCH   3   5
ATOM      5  C   UNL     1       0.074  10.664  19.857  0.00  0.00    +0.000 A 
ATOM      6  C   UNL     1       0.534  11.750  20.610  0.00  0.00    +0.000 A 
ATOM      7  C   UNL     1      -0.218  12.915  20.676  0.00  0.00    +0.000 A 
ATOM      8 CL   UNL     1       0.337  14.243  21.619  0.00  0.00    +0.000 Cl
ATOM      9  C   UNL     1      -1.425  13.014  19.992  0.00  0.00    +0.000 A 
ATOM     10  C   UNL     1      -1.880  11.941  19.216  0.00  0.00    +0.000 A 
ATOM     11  C   UNL     1      -3.098  12.018  18.527  0.00  0.00    +0.000 A 
ATOM     12  C   UNL     1      -3.536  10.942  17.770  0.00  0.00    +0.000 A 
ATOM     13  C   UNL     1      -2.734   9.820  17.720  0.00  0.00    +0.000 A 
ATOM     14  N   UNL     1      -1.550   9.702  18.370  0.00  0.00    +0.000 NA
ATOM     15  C   UNL     1      -1.125  10.748  19.122  0.00  0.00    +0.000 A 
ENDBRANCH   3   5
BRANCH   2  16
ATOM     16  C   UNL     1       2.220   7.655  19.007  0.00  0.00    +0.000 A 
ATOM     17  C   UNL     1       1.818   6.887  20.104  0.00  0.00    +0.000 A 
ATOM     18  C   UNL     1       2.381   5.635  20.305  0.00  0.00    +0.000 A 
ATOM     19  C   UNL     1       3.323   5.143  19.401  0.00  0.00    +0.000 A 
ATOM     20  C   UNL     1       3.707   5.870  18.269  0.00  0.00    +0.000 A 
ATOM     21  C   UNL     1       3.147   7.143  18.078  0.00  0.00    +0.000 A 
BRANCH  20  22
ATOM     22  N   UNL     1       4.632   5.370  17.315  0.00  0.00    +0.000 N 
ATOM     23  C   UNL     1       5.806   4.684  17.598  0.00  0.00    +0.000 C 
ATOM     24  O   UNL     1       6.205   4.363  18.715  0.00  0.00    +0.000 OA
ATOM     25  H   UNL     1       4.443   5.533  16.332  0.00  0.00    +0.000 HD
BRANCH  23  26
ATOM     26  C   UNL     1       6.609   4.250  16.356  0.00  0.00    +0.000 C 
ATOM     27  C   UNL     1       7.014   5.479  15.546  0.00  0.00    +0.000 C 
ATOM     28  C   UNL     1       7.088   4.955  14.139  0.00  0.00    +0.000 C 
ATOM     29  C   UNL     1       5.999   3.906  14.136  0.00  0.00    +0.000 C 
ATOM     30  O   UNL     1       5.919   3.367  15.465  0.00  0.00    +0.000 OA
ENDBRANCH  23  26
ENDBRANCH  20  22
ENDBRANCH   2  16
TORSDOF 4
ENDMDL
MODEL 4
REMARK VINA RESULT:      -7.8      1.155      1.174
REMARK  Name = 
REMARK  4 active torsions:
REMARK  status: ('A' for Active; 'I' for Inactive)
REMARK    1  A    between atoms: C_2  and  C_15
REMARK    2  A    between atoms: N_3  and  C_4
REMARK    3  A    between atoms: C_19  and  N_20
REMARK    4  A    between atoms: C_21  and  C_23
REMARK                            x       y       z     vdW  Elec       q    Type
REMARK                         _______ _______ _______ _____ _____    ______ ____
ROOT
ATOM      1  O   UNL     1       2.244   8.249  18.377  0.00  0.00    +0.000 OA
ATOM      2  C   UNL     1       2.100   7.898  19.542  0.00  0.00    +0.000 C 
ATOM      3  N   UNL     1       2.536   6.711  20.105  0.00  0.00    +0.000 N 
ATOM      4  H   UNL     1       2.157   6.427  21.007  0.00  0.00    +0.000 HD
ENDROOT
BRANCH   3   5
ATOM      5  C   UNL     1       3.288   5.687  19.472  0.00  0.00    +0.000 A 
ATOM      6  C   UNL     1       4.627   5.865  19.103  0.00  0.00    +0.000 A 
ATOM      7  C   UNL     1       5.303   4.851  18.440  0.00  0.00    +0.000 A 
ATOM      8 CL   UNL     1       6.941   5.077  17.967  0.00  0.00    +0.000 Cl
ATOM      9  C   UNL     1       4.661   3.653  18.144  0.00  0.00    +0.000 A 
ATOM     10  C   UNL     1       3.329   3.457  18.533  0.00  0.00    +0.000 A 
ATOM     11  C   UNL     1       2.663   2.261  18.236  0.00  0.00    +0.000 A 
ATOM     12  C   UNL     1       1.342   2.089  18.621  0.00  0.00    +0.000 A 
ATOM     13  C   UNL     1       0.729   3.121  19.302  0.00  0.00    +0.000 A 
ATOM     14  N   UNL     1       1.336   4.295  19.609  0.00  0.00    +0.000 NA
ATOM     15  C   UNL     1       2.623   4.472  19.222  0.00  0.00    +0.000 A 
ENDBRANCH   3   5
BRANCH   2  16
ATOM     16  C   UNL     1       1.339   8.787  20.460  0.00  0.00    +0.000 A 
ATOM     17  C   UNL     1       1.150   8.409  21.793  0.00  0.00    +0.000 A 
ATOM     18  C   UNL     1       0.422   9.232  22.640  0.00  0.00    +0.000 A 
ATOM     19  C   UNL     1      -0.093  10.438  22.165  0.00  0.00    +0.000 A 
ATOM     20  C   UNL     1       0.123  10.863  20.849  0.00  0.00    +0.000 A 
ATOM     21  C   UNL     1       0.845  10.021  19.991  0.00  0.00    +0.000 A 
BRANCH  20  22
ATOM     22  N   UNL     1      -0.358  12.106  20.358  0.00  0.00    +0.000 N 
ATOM     23  C   UNL     1      -0.151  13.349  20.939  0.00  0.00    +0.000 C 
ATOM     24  O   UNL     1       0.521  13.575  21.944  0.00  0.00    +0.000 OA
ATOM     25  H   UNL     1      -0.921  12.103  19.514  0.00  0.00    +0.000 HD
BRANCH  23  26
ATOM     26  C   UNL     1      -0.784  14.527  20.175  0.00  0.00    +0.000 C 
ATOM     27  C   UNL     1      -0.110  14.683  18.813  0.00  0.00    +0.000 C 
ATOM     28  C   UNL     1      -0.244  16.152  18.529  0.00  0.00    +0.000 C 
ATOM     29  C   UNL     1      -0.149  16.752  19.914  0.00  0.00    +0.000 C 
ATOM     30  O   UNL     1      -0.700  15.796  20.834  0.00  0.00    +0.000 OA
ENDBRANCH  23  26
ENDBRANCH  20  22
ENDBRANCH   2  16
TORSDOF 4
ENDMDL
MODEL 5
REMARK VINA RESULT:      -7.8      1.290      1.301
REMARK  Name = 
REMARK  4 active torsions:
REMARK  status: ('A' for Active; 'I' for Inactive)
REMARK    1  A    between atoms: C_2  and  C_15
REMARK    2  A    between atoms: N_3  and  C_4
REMARK    3  A    between atoms: C_19  and  N_20
REMARK    4  A    between atoms: C_21  and  C_23
REMARK                            x       y       z     vdW  Elec       q    Type
REMARK                         _______ _______ _______ _____ _____    ______ ____
ROOT
ATOM      1  O   UNL     1       2.061   8.086  18.446  0.00  0.00    +0.000 OA
ATOM      2  C   UNL     1       1.950   7.789  19.629  0.00  0.00    +0.000 C 
ATOM      3  N   UNL     1       2.432   6.644  20.240  0.00  0.00    +0.000 N 
ATOM      4  H   UNL     1       2.078   6.392  21.161  0.00  0.00    +0.000 HD
ENDROOT
BRANCH   3   5
ATOM      5  C   UNL     1       3.202   5.612  19.642  0.00  0.00    +0.000 A 
ATOM      6  C   UNL     1       4.549   5.788  19.304  0.00  0.00    +0.000 A 
ATOM      7  C   UNL     1       5.245   4.766  18.674  0.00  0.00    +0.000 A 
ATOM      8 CL   UNL     1       6.894   4.989  18.240  0.00  0.00    +0.000 Cl
ATOM      9  C   UNL     1       4.613   3.562  18.380  0.00  0.00    +0.000 A 
ATOM     10  C   UNL     1       3.272   3.368  18.737  0.00  0.00    +0.000 A 
ATOM     11  C   UNL     1       2.617   2.166  18.441  0.00  0.00    +0.000 A 
ATOM     12  C   UNL     1       1.287   1.996  18.795  0.00  0.00    +0.000 A 
ATOM     13  C   UNL     1       0.655   3.037  19.443  0.00  0.00    +0.000 A 
ATOM     14  N   UNL     1       1.250   4.216  19.749  0.00  0.00    +0.000 NA
ATOM     15  C   UNL     1       2.547   4.391  19.393  0.00  0.00    +0.000 A 
ENDBRANCH   3   5
BRANCH   2  16
ATOM     16  C   UNL     1       1.180   8.698  20.518  0.00  0.00    +0.000 A 
ATOM     17  C   UNL     1       0.403   8.164  21.551  0.00  0.00    +0.000 A 
ATOM     18  C   UNL     1      -0.330   9.016  22.366  0.00  0.00    +0.000 A 
ATOM     19  C   UNL     1      -0.267  10.395  22.165  0.00  0.00    +0.000 A 
ATOM     20  C   UNL     1       0.540  10.958  21.170  0.00  0.00    +0.000 A 
ATOM     21  C   UNL     1       1.267  10.093  20.338  0.00  0.00    +0.000 A 
BRANCH  20  22
ATOM     22  N   UNL     1       0.649  12.361  20.977  0.00  0.00    +0.000 N 
ATOM     23  C   UNL     1      -0.085  13.121  20.077  0.00  0.00    +0.000 C 
ATOM     24  O   UNL     1      -0.978  12.707  19.339  0.00  0.00    +0.000 OA
ATOM     25  H   UNL     1       1.334  12.869  21.527  0.00  0.00    +0.000 HD
BRANCH  23  26
ATOM     26  C   UNL     1       0.241  14.627  20.096  0.00  0.00    +0.000 C 
ATOM     27  C   UNL     1      -0.261  15.281  18.811  0.00  0.00    +0.000 C 
ATOM     28  C   UNL     1       0.690  16.428  18.615  0.00  0.00    +0.000 C 
ATOM     29  C   UNL     1       1.980  15.868  19.170  0.00  0.00    +0.000 C 
ATOM     30  O   UNL     1       1.632  14.947  20.216  0.00  0.00    +0.000 OA
ENDBRANCH  23  26
ENDBRANCH  20  22
ENDBRANCH   2  16
TORSDOF 4
ENDMDL
MODEL 6
REMARK VINA RESULT:      -7.8      2.744      3.988
REMARK  Name = 
REMARK  4 active torsions:
REMARK  status: ('A' for Active; 'I' for Inactive)
REMARK    1  A    between atoms: C_2  and  C_15
REMARK    2  A    between atoms: N_3  and  C_4
REMARK    3  A    between atoms: C_19  and  N_20
REMARK    4  A    between atoms: C_21  and  C_23
REMARK                            x       y       z     vdW  Elec       q    Type
REMARK                         _______ _______ _______ _____ _____    ______ ____
ROOT
ATOM      1  O   UNL     1       1.876   6.893  20.597  0.00  0.00    +0.000 OA
ATOM      2  C   UNL     1       1.913   7.503  19.535  0.00  0.00    +0.000 C 
ATOM      3  N   UNL     1       2.314   7.001  18.309  0.00  0.00    +0.000 N 
ATOM      4  H   UNL     1       2.529   7.654  17.558  0.00  0.00    +0.000 HD
ENDROOT
BRANCH   3   5
ATOM      5  C   UNL     1       2.706   5.669  18.015  0.00  0.00    +0.000 A 
ATOM      6  C   UNL     1       1.928   4.565  18.383  0.00  0.00    +0.000 A 
ATOM      7  C   UNL     1       2.380   3.280  18.117  0.00  0.00    +0.000 A 
ATOM      8 CL   UNL     1       1.435   1.922  18.588  0.00  0.00    +0.000 Cl
ATOM      9  C   UNL     1       3.601   3.080  17.481  0.00  0.00    +0.000 A 
ATOM     10  C   UNL     1       4.374   4.181  17.087  0.00  0.00    +0.000 A 
ATOM     11  C   UNL     1       5.610   4.000  16.453  0.00  0.00    +0.000 A 
ATOM     12  C   UNL     1       6.365   5.101  16.078  0.00  0.00    +0.000 A 
ATOM     13  C   UNL     1       5.852   6.354  16.343  0.00  0.00    +0.000 A 
ATOM     14  N   UNL     1       4.662   6.575  16.955  0.00  0.00    +0.000 NA
ATOM     15  C   UNL     1       3.927   5.500  17.335  0.00  0.00    +0.000 A 
ENDBRANCH   3   5
BRANCH   2  16
ATOM     16  C   UNL     1       1.548   8.945  19.535  0.00  0.00    +0.000 A 
ATOM     17  C   UNL     1       1.796   9.723  18.400  0.00  0.00    +0.000 A 
ATOM     18  C   UNL     1       1.472  11.072  18.412  0.00  0.00    +0.000 A 
ATOM     19  C   UNL     1       0.882  11.635  19.543  0.00  0.00    +0.000 A 
ATOM     20  C   UNL     1       0.578  10.869  20.674  0.00  0.00    +0.000 A 
ATOM     21  C   UNL     1       0.921   9.509  20.664  0.00  0.00    +0.000 A 
BRANCH  20  22
ATOM     22  N   UNL     1      -0.061  11.415  21.818  0.00  0.00    +0.000 N 
ATOM     23  C   UNL     1      -1.315  12.009  21.849  0.00  0.00    +0.000 C 
ATOM     24  O   UNL     1      -2.089  12.114  20.900  0.00  0.00    +0.000 OA
ATOM     25  H   UNL     1       0.438  11.393  22.702  0.00  0.00    +0.000 HD
BRANCH  23  26
ATOM     26  C   UNL     1      -1.756  12.502  23.240  0.00  0.00    +0.000 C 
ATOM     27  C   UNL     1      -3.276  12.425  23.359  0.00  0.00    +0.000 C 
ATOM     28  C   UNL     1      -3.603  13.529  24.326  0.00  0.00    +0.000 C 
ATOM     29  C   UNL     1      -2.544  14.558  24.000  0.00  0.00    +0.000 C 
ATOM     30  O   UNL     1      -1.377  13.846  23.558  0.00  0.00    +0.000 OA
ENDBRANCH  23  26
ENDBRANCH  20  22
ENDBRANCH   2  16
TORSDOF 4
ENDMDL
MODEL 7
REMARK VINA RESULT:      -7.8      2.830      4.132
REMARK  Name = 
REMARK  4 active torsions:
REMARK  status: ('A' for Active; 'I' for Inactive)
REMARK    1  A    between atoms: C_2  and  C_15
REMARK    2  A    between atoms: N_3  and  C_4
REMARK    3  A    between atoms: C_19  and  N_20
REMARK    4  A    between atoms: C_21  and  C_23
REMARK                            x       y       z     vdW  Elec       q    Type
REMARK                         _______ _______ _______ _____ _____    ______ ____
ROOT
ATOM      1  O   UNL     1       1.805   7.409  20.376  0.00  0.00    +0.000 OA
ATOM      2  C   UNL     1       1.898   7.949  19.280  0.00  0.00    +0.000 C 
ATOM      3  N   UNL     1       2.427   7.392  18.129  0.00  0.00    +0.000 N 
ATOM      4  H   UNL     1       2.668   8.006  17.353  0.00  0.00    +0.000 HD
ENDROOT
BRANCH   3   5
ATOM      5  C   UNL     1       2.913   6.070  17.961  0.00  0.00    +0.000 A 
ATOM      6  C   UNL     1       2.101   4.947  18.156  0.00  0.00    +0.000 A 
ATOM      7  C   UNL     1       2.638   3.673  18.030  0.00  0.00    +0.000 A 
ATOM      8 CL   UNL     1       1.645   2.292  18.290  0.00  0.00    +0.000 Cl
ATOM      9  C   UNL     1       3.980   3.504  17.704  0.00  0.00    +0.000 A 
ATOM     10  C   UNL     1       4.794   4.622  17.482  0.00  0.00    +0.000 A 
ATOM     11  C   UNL     1       6.149   4.472  17.162  0.00  0.00    +0.000 A 
ATOM     12  C   UNL     1       6.941   5.591  16.954  0.00  0.00    +0.000 A 
ATOM     13  C   UNL     1       6.346   6.831  17.067  0.00  0.00    +0.000 A 
ATOM     14  N   UNL     1       5.039   7.022  17.375  0.00  0.00    +0.000 NA
ATOM     15  C   UNL     1       4.265   5.931  17.592  0.00  0.00    +0.000 A 
ENDBRANCH   3   5
BRANCH   2  16
ATOM     16  C   UNL     1       1.457   9.363  19.149  0.00  0.00    +0.000 A 
ATOM     17  C   UNL     1       2.167  10.237  18.320  0.00  0.00    +0.000 A 
ATOM     18  C   UNL     1       1.764  11.561  18.217  0.00  0.00    +0.000 A 
ATOM     19  C   UNL     1       0.643  12.003  18.919  0.00  0.00    +0.000 A 
ATOM     20  C   UNL     1      -0.114  11.138  19.718  0.00  0.00    +0.000 A 
ATOM     21  C   UNL     1       0.306   9.805  19.832  0.00  0.00    +0.000 A 
BRANCH  20  22
ATOM     22  N   UNL     1      -1.282  11.559  20.407  0.00  0.00    +0.000 N 
ATOM     23  C   UNL     1      -1.355  11.917  21.747  0.00  0.00    +0.000 C 
ATOM     24  O   UNL     1      -0.413  11.970  22.534  0.00  0.00    +0.000 OA
ATOM     25  H   UNL     1      -2.156  11.592  19.894  0.00  0.00    +0.000 HD
BRANCH  23  26
ATOM     26  C   UNL     1      -2.758  12.344  22.219  0.00  0.00    +0.000 C 
ATOM     27  C   UNL     1      -2.826  13.866  22.326  0.00  0.00    +0.000 C 
ATOM     28  C   UNL     1      -3.843  14.089  23.410  0.00  0.00    +0.000 C 
ATOM     29  C   UNL     1      -3.606  12.901  24.315  0.00  0.00    +0.000 C 
ATOM     30  O   UNL     1      -3.160  11.815  23.488  0.00  0.00    +0.000 OA
ENDBRANCH  23  26
ENDBRANCH  20  22
ENDBRANCH   2  16
TORSDOF 4
ENDMDL
MODEL 8
REMARK VINA RESULT:      -7.7      3.854     10.171
REMARK  Name = 
REMARK  4 active torsions:
REMARK  status: ('A' for Active; 'I' for Inactive)
REMARK    1  A    between atoms: C_2  and  C_15
REMARK    2  A    between atoms: N_3  and  C_4
REMARK    3  A    between atoms: C_19  and  N_20
REMARK    4  A    between atoms: C_21  and  C_23
REMARK                            x       y       z     vdW  Elec       q    Type
REMARK                         _______ _______ _______ _____ _____    ______ ____
ROOT
ATOM      1  O   UNL     1       0.613  10.008  22.968  0.00  0.00    +0.000 OA
ATOM      2  C   UNL     1       0.329  10.396  21.842  0.00  0.00    +0.000 C 
ATOM      3  N   UNL     1      -0.531  11.432  21.520  0.00  0.00    +0.000 N 
ATOM      4  H   UNL     1      -0.871  11.508  20.563  0.00  0.00    +0.000 HD
ENDROOT
BRANCH   3   5
ATOM      5  C   UNL     1      -1.212  12.292  22.420  0.00  0.00    +0.000 A 
ATOM      6  C   UNL     1      -2.377  11.900  23.089  0.00  0.00    +0.000 A 
ATOM      7  C   UNL     1      -3.035  12.797  23.920  0.00  0.00    +0.000 A 
ATOM      8 CL   UNL     1      -4.478  12.322  24.726  0.00  0.00    +0.000 Cl
ATOM      9  C   UNL     1      -2.539  14.084  24.098  0.00  0.00    +0.000 A 
ATOM     10  C   UNL     1      -1.360  14.477  23.452  0.00  0.00    +0.000 A 
ATOM     11  C   UNL     1      -0.851  15.772  23.612  0.00  0.00    +0.000 A 
ATOM     12  C   UNL     1       0.314  16.145  22.957  0.00  0.00    +0.000 A 
ATOM     13  C   UNL     1       0.939  15.203  22.166  0.00  0.00    +0.000 A 
ATOM     14  N   UNL     1       0.481  13.940  21.983  0.00  0.00    +0.000 NA
ATOM     15  C   UNL     1      -0.665  13.576  22.611  0.00  0.00    +0.000 A 
ENDBRANCH   3   5
BRANCH   2  16
ATOM     16  C   UNL     1       0.906   9.673  20.678  0.00  0.00    +0.000 A 
ATOM     17  C   UNL     1       0.979  10.308  19.434  0.00  0.00    +0.000 A 
ATOM     18  C   UNL     1       1.499   9.622  18.346  0.00  0.00    +0.000 A 
ATOM     19  C   UNL     1       1.967   8.318  18.505  0.00  0.00    +0.000 A 
ATOM     20  C   UNL     1       1.951   7.676  19.749  0.00  0.00    +0.000 A 
ATOM     21  C   UNL     1       1.409   8.367  20.843  0.00  0.00    +0.000 A 
BRANCH  20  22
ATOM     22  N   UNL     1       2.460   6.365  19.940  0.00  0.00    +0.000 N 
ATOM     23  C   UNL     1       3.475   5.767  19.205  0.00  0.00    +0.000 C 
ATOM     24  O   UNL     1       4.123   6.295  18.304  0.00  0.00    +0.000 OA
ATOM     25  H   UNL     1       2.045   5.790  20.666  0.00  0.00    +0.000 HD
BRANCH  23  26
ATOM     26  C   UNL     1       3.827   4.334  19.647  0.00  0.00    +0.000 C 
ATOM     27  C   UNL     1       4.116   3.470  18.422  0.00  0.00    +0.000 C 
ATOM     28  C   UNL     1       3.718   2.092  18.871  0.00  0.00    +0.000 C 
ATOM     29  C   UNL     1       2.563   2.384  19.802  0.00  0.00    +0.000 C 
ATOM     30  O   UNL     1       2.812   3.664  20.405  0.00  0.00    +0.000 OA
ENDBRANCH  23  26
ENDBRANCH  20  22
ENDBRANCH   2  16
TORSDOF 4
ENDMDL
MODEL 9
REMARK VINA RESULT:      -7.7      3.542      8.680
REMARK  Name = 
REMARK  4 active torsions:
REMARK  status: ('A' for Active; 'I' for Inactive)
REMARK    1  A    between atoms: C_2  and  C_15
REMARK    2  A    between atoms: N_3  and  C_4
REMARK    3  A    between atoms: C_19  and  N_20
REMARK    4  A    between atoms: C_21  and  C_23
REMARK                            x       y       z     vdW  Elec       q    Type
REMARK                         _______ _______ _______ _____ _____    ______ ____
ROOT
ATOM      1  O   UNL     1       0.978   8.590  21.566  0.00  0.00    +0.000 OA
ATOM      2  C   UNL     1       1.290   8.405  20.396  0.00  0.00    +0.000 C 
ATOM      3  N   UNL     1       1.077   9.273  19.339  0.00  0.00    +0.000 N 
ATOM      4  H   UNL     1       1.159   8.918  18.388  0.00  0.00    +0.000 HD
ENDROOT
BRANCH   3   5
ATOM      5  C   UNL     1       0.514  10.574  19.399  0.00  0.00    +0.000 A 
ATOM      6  C   UNL     1       1.192  11.654  19.976  0.00  0.00    +0.000 A 
ATOM      7  C   UNL     1       0.576  12.896  20.056  0.00  0.00    +0.000 A 
ATOM      8 CL   UNL     1       1.401  14.218  20.784  0.00  0.00    +0.000 Cl
ATOM      9  C   UNL     1      -0.710  13.077  19.559  0.00  0.00    +0.000 A 
ATOM     10  C   UNL     1      -1.386  12.008  18.957  0.00  0.00    +0.000 A 
ATOM     11  C   UNL     1      -2.686  12.169  18.459  0.00  0.00    +0.000 A 
ATOM     12  C   UNL     1      -3.342  11.096  17.874  0.00  0.00    +0.000 A 
ATOM     13  C   UNL     1      -2.670   9.894  17.798  0.00  0.00    +0.000 A 
ATOM     14  N   UNL     1      -1.414   9.694  18.267  0.00  0.00    +0.000 NA
ATOM     15  C   UNL     1      -0.774  10.736  18.852  0.00  0.00    +0.000 A 
ENDBRANCH   3   5
BRANCH   2  16
ATOM     16  C   UNL     1       1.912   7.105  20.027  0.00  0.00    +0.000 A 
ATOM     17  C   UNL     1       1.809   6.015  20.896  0.00  0.00    +0.000 A 
ATOM     18  C   UNL     1       2.408   4.811  20.556  0.00  0.00    +0.000 A 
ATOM     19  C   UNL     1       3.085   4.689  19.343  0.00  0.00    +0.000 A 
ATOM     20  C   UNL     1       3.162   5.750  18.432  0.00  0.00    +0.000 A 
ATOM     21  C   UNL     1       2.568   6.971  18.787  0.00  0.00    +0.000 A 
BRANCH  20  22
ATOM     22  N   UNL     1       3.810   5.634  17.175  0.00  0.00    +0.000 N 
ATOM     23  C   UNL     1       5.127   5.980  16.899  0.00  0.00    +0.000 C 
ATOM     24  O   UNL     1       5.950   6.397  17.711  0.00  0.00    +0.000 OA
ATOM     25  H   UNL     1       3.274   5.282  16.389  0.00  0.00    +0.000 HD
BRANCH  23  26
ATOM     26  C   UNL     1       5.562   5.732  15.443  0.00  0.00    +0.000 C 
ATOM     27  C   UNL     1       5.149   4.326  15.011  0.00  0.00    +0.000 C 
ATOM     28  C   UNL     1       6.188   3.961  13.988  0.00  0.00    +0.000 C 
ATOM     29  C   UNL     1       7.415   4.667  14.519  0.00  0.00    +0.000 C 
ATOM     30  O   UNL     1       6.969   5.851  15.199  0.00  0.00    +0.000 OA
ENDBRANCH  23  26
ENDBRANCH  20  22
ENDBRANCH   2  16
TORSDOF 4
ENDMDL
