MODEL 1
REMARK VINA RESULT:      -8.4      0.000      0.000
REMARK  Name = 
REMARK  5 active torsions:
REMARK  status: ('A' for Active; 'I' for Inactive)
REMARK    1  A    between atoms: S_2  and  C_4
REMARK    2  A    between atoms: S_2  and  C_16
REMARK    3  A    between atoms: C_4  and  C_5
REMARK    4  A    between atoms: C_7  and  C_8
REMARK    5  A    between atoms: N_20  and  C_21
REMARK                            x       y       z     vdW  Elec       q    Type
REMARK                         _______ _______ _______ _____ _____    ______ ____
ROOT
ATOM      1  O   UNL     1       6.476   3.962  18.385  0.00  0.00    +0.000 OA
ATOM      2  S   UNL     1       5.580   5.090  18.567  0.00  0.00    +0.000 S 
ATOM      3  O   UNL     1       5.482   5.817  19.819  0.00  0.00    +0.000 OA
ENDROOT
BRANCH   2   4
ATOM      4  C   UNL     1       3.966   4.434  18.234  0.00  0.00    +0.000 A 
ATOM      5  N   UNL     1       3.803   3.161  17.890  0.00  0.00    +0.000 NA
ATOM      6  C   UNL     1       2.475   2.900  18.027  0.00  0.00    +0.000 A 
ATOM      7  C   UNL     1       1.809   4.022  18.444  0.00  0.00    +0.000 A 
ATOM      8  N   UNL     1       2.744   5.045  18.499  0.00  0.00    +0.000 N 
BRANCH   8   9
ATOM      9  C   UNL     1       2.407   6.411  18.745  0.00  0.00    +0.000 A 
ATOM     10  C   UNL     1       2.321   7.338  17.700  0.00  0.00    +0.000 A 
ATOM     11  C   UNL     1       1.930   8.658  17.939  0.00  0.00    +0.000 A 
ATOM     12  C   UNL     1       1.590   9.066  19.224  0.00  0.00    +0.000 A 
ATOM     13  C   UNL     1       1.651   8.147  20.268  0.00  0.00    +0.000 A 
ATOM     14 CL   UNL     1       1.201   8.638  21.854  0.00  0.00    +0.000 Cl
ATOM     15  C   UNL     1       2.061   6.833  20.038  0.00  0.00    +0.000 A 
ENDBRANCH   8   9
ENDBRANCH   2   4
BRANCH   2  16
ATOM     16  C   UNL     1       5.791   6.277  17.255  0.00  0.00    +0.000 C 
BRANCH  16  17
ATOM     17  C   UNL     1       6.162   5.560  16.020  0.00  0.00    +0.000 A 
ATOM     18  C   UNL     1       5.522   4.662  15.203  0.00  0.00    +0.000 A 
ATOM     19  C   UNL     1       6.407   4.462  14.113  0.00  0.00    +0.000 A 
ATOM     20  N   UNL     1       7.528   5.181  14.293  0.00  0.00    +0.000 NA
ATOM     21  O   UNL     1       7.373   5.858  15.485  0.00  0.00    +0.000 OA
BRANCH  19  22
ATOM     22  C   UNL     1       6.183   3.652  12.918  0.00  0.00    +0.000 A 
ATOM     23  C   UNL     1       4.884   3.461  12.428  0.00  0.00    +0.000 A 
ATOM     24  C   UNL     1       4.656   2.648  11.316  0.00  0.00    +0.000 A 
ATOM     25  C   UNL     1       5.726   2.024  10.678  0.00  0.00    +0.000 A 
ATOM     26  C   UNL     1       7.025   2.214  11.149  0.00  0.00    +0.000 A 
ATOM     27  C   UNL     1       7.253   3.023  12.265  0.00  0.00    +0.000 A 
ENDBRANCH  19  22
ENDBRANCH  16  17
ENDBRANCH   2  16
TORSDOF 5
ENDMDL
MODEL 2
REMARK VINA RESULT:      -8.3      0.928      1.316
REMARK  Name = 
REMARK  5 active torsions:
REMARK  status: ('A' for Active; 'I' for Inactive)
REMARK    1  A    between atoms: S_2  and  C_4
REMARK    2  A    between atoms: S_2  and  C_16
REMARK    3  A    between atoms: C_4  and  C_5
REMARK    4  A    between atoms: C_7  and  C_8
REMARK    5  A    between atoms: N_20  and  C_21
REMARK                            x       y       z     vdW  Elec       q    Type
REMARK                         _______ _______ _______ _____ _____    ______ ____
ROOT
ATOM      1  O   UNL     1       6.514   3.964  18.395  0.00  0.00    +0.000 OA
ATOM      2  S   UNL     1       5.537   5.024  18.576  0.00  0.00    +0.000 S 
ATOM      3  O   UNL     1       5.392   5.750  19.824  0.00  0.00    +0.000 OA
ENDROOT
BRANCH   2   4
ATOM      4  C   UNL     1       3.975   4.247  18.257  0.00  0.00    +0.000 A 
ATOM      5  N   UNL     1       3.911   3.025  17.741  0.00  0.00    +0.000 NA
ATOM      6  C   UNL     1       2.631   2.603  17.925  0.00  0.00    +0.000 A 
ATOM      7  C   UNL     1       1.893   3.575  18.547  0.00  0.00    +0.000 A 
ATOM      8  N   UNL     1       2.723   4.677  18.691  0.00  0.00    +0.000 N 
BRANCH   8   9
ATOM      9  C   UNL     1       2.274   5.950  19.158  0.00  0.00    +0.000 A 
ATOM     10  C   UNL     1       1.851   6.130  20.480  0.00  0.00    +0.000 A 
ATOM     11  C   UNL     1       1.472   7.391  20.948  0.00  0.00    +0.000 A 
ATOM     12  C   UNL     1       1.539   8.498  20.111  0.00  0.00    +0.000 A 
ATOM     13  C   UNL     1       1.978   8.335  18.800  0.00  0.00    +0.000 A 
ATOM     14 CL   UNL     1       2.093   9.707  17.769  0.00  0.00    +0.000 Cl
ATOM     15  C   UNL     1       2.338   7.074  18.321  0.00  0.00    +0.000 A 
ENDBRANCH   8   9
ENDBRANCH   2   4
BRANCH   2  16
ATOM     16  C   UNL     1       5.651   6.215  17.255  0.00  0.00    +0.000 C 
BRANCH  16  17
ATOM     17  C   UNL     1       6.091   5.524  16.029  0.00  0.00    +0.000 A 
ATOM     18  C   UNL     1       5.521   4.596  15.192  0.00  0.00    +0.000 A 
ATOM     19  C   UNL     1       6.444   4.448  14.125  0.00  0.00    +0.000 A 
ATOM     20  N   UNL     1       7.520   5.225  14.337  0.00  0.00    +0.000 NA
ATOM     21  O   UNL     1       7.299   5.888  15.527  0.00  0.00    +0.000 OA
BRANCH  19  22
ATOM     22  C   UNL     1       6.295   3.633  12.922  0.00  0.00    +0.000 A 
ATOM     23  C   UNL     1       5.019   3.336  12.425  0.00  0.00    +0.000 A 
ATOM     24  C   UNL     1       4.865   2.516  11.305  0.00  0.00    +0.000 A 
ATOM     25  C   UNL     1       5.987   1.991  10.667  0.00  0.00    +0.000 A 
ATOM     26  C   UNL     1       7.263   2.286  11.145  0.00  0.00    +0.000 A 
ATOM     27  C   UNL     1       7.417   3.102  12.269  0.00  0.00    +0.000 A 
ENDBRANCH  19  22
ENDBRANCH  16  17
ENDBRANCH   2  16
TORSDOF 5
ENDMDL
MODEL 3
REMARK VINA RESULT:      -7.9      1.741      2.907
REMARK  Name = 
REMARK  5 active torsions:
REMARK  status: ('A' for Active; 'I' for Inactive)
REMARK    1  A    between atoms: S_2  and  C_4
REMARK    2  A    between atoms: S_2  and  C_16
REMARK    3  A    between atoms: C_4  and  C_5
REMARK    4  A    between atoms: C_7  and  C_8
REMARK    5  A    between atoms: N_20  and  C_21
REMARK                            x       y       z     vdW  Elec       q    Type
REMARK                         _______ _______ _______ _____ _____    ______ ____
ROOT
ATOM      1  O   UNL     1       5.005   3.727  17.423  0.00  0.00    +0.000 OA
ATOM      2  S   UNL     1       5.577   4.838  18.163  0.00  0.00    +0.000 S 
ATOM      3  O   UNL     1       6.030   4.713  19.535  0.00  0.00    +0.000 OA
ENDROOT
BRANCH   2   4
ATOM      4  C   UNL     1       4.306   6.075  18.160  0.00  0.00    +0.000 A 
ATOM      5  N   UNL     1       4.568   7.325  17.794  0.00  0.00    +0.000 NA
ATOM      6  C   UNL     1       3.363   7.919  17.587  0.00  0.00    +0.000 A 
ATOM      7  C   UNL     1       2.346   7.037  17.840  0.00  0.00    +0.000 A 
ATOM      8  N   UNL     1       2.936   5.866  18.294  0.00  0.00    +0.000 N 
BRANCH   8   9
ATOM      9  C   UNL     1       2.198   4.757  18.808  0.00  0.00    +0.000 A 
ATOM     10  C   UNL     1       1.454   3.925  17.964  0.00  0.00    +0.000 A 
ATOM     11  C   UNL     1       0.786   2.804  18.464  0.00  0.00    +0.000 A 
ATOM     12  C   UNL     1       0.874   2.480  19.813  0.00  0.00    +0.000 A 
ATOM     13  C   UNL     1       1.628   3.289  20.659  0.00  0.00    +0.000 A 
ATOM     14 CL   UNL     1       1.767   2.874  22.323  0.00  0.00    +0.000 Cl
ATOM     15  C   UNL     1       2.281   4.420  20.169  0.00  0.00    +0.000 A 
ENDBRANCH   8   9
ENDBRANCH   2   4
BRANCH   2  16
ATOM     16  C   UNL     1       6.874   5.617  17.221  0.00  0.00    +0.000 C 
BRANCH  16  17
ATOM     17  C   UNL     1       6.835   5.100  15.840  0.00  0.00    +0.000 A 
ATOM     18  C   UNL     1       6.093   4.142  15.194  0.00  0.00    +0.000 A 
ATOM     19  C   UNL     1       6.480   4.235  13.832  0.00  0.00    +0.000 A 
ATOM     20  N   UNL     1       7.425   5.179  13.686  0.00  0.00    +0.000 NA
ATOM     21  O   UNL     1       7.648   5.710  14.940  0.00  0.00    +0.000 OA
BRANCH  19  22
ATOM     22  C   UNL     1       5.941   3.489  12.699  0.00  0.00    +0.000 A 
ATOM     23  C   UNL     1       4.653   3.765  12.220  0.00  0.00    +0.000 A 
ATOM     24  C   UNL     1       4.111   3.021  11.170  0.00  0.00    +0.000 A 
ATOM     25  C   UNL     1       4.854   2.000  10.582  0.00  0.00    +0.000 A 
ATOM     26  C   UNL     1       6.141   1.722  11.042  0.00  0.00    +0.000 A 
ATOM     27  C   UNL     1       6.682   2.461  12.097  0.00  0.00    +0.000 A 
ENDBRANCH  19  22
ENDBRANCH  16  17
ENDBRANCH   2  16
TORSDOF 5
ENDMDL
MODEL 4
REMARK VINA RESULT:      -7.8      3.686      8.642
REMARK  Name = 
REMARK  5 active torsions:
REMARK  status: ('A' for Active; 'I' for Inactive)
REMARK    1  A    between atoms: S_2  and  C_4
REMARK    2  A    between atoms: S_2  and  C_16
REMARK    3  A    between atoms: C_4  and  C_5
REMARK    4  A    between atoms: C_7  and  C_8
REMARK    5  A    between atoms: N_20  and  C_21
REMARK                            x       y       z     vdW  Elec       q    Type
REMARK                         _______ _______ _______ _____ _____    ______ ____
ROOT
ATOM      1  O   UNL     1       1.010   5.046  20.399  0.00  0.00    +0.000 OA
ATOM      2  S   UNL     1       2.030   5.022  19.366  0.00  0.00    +0.000 S 
ATOM      3  O   UNL     1       1.734   4.708  17.981  0.00  0.00    +0.000 OA
ENDROOT
BRANCH   2   4
ATOM      4  C   UNL     1       3.198   3.809  19.923  0.00  0.00    +0.000 A 
ATOM      5  N   UNL     1       2.897   2.972  20.910  0.00  0.00    +0.000 NA
ATOM      6  C   UNL     1       3.837   1.990  20.872  0.00  0.00    +0.000 A 
ATOM      7  C   UNL     1       4.734   2.227  19.865  0.00  0.00    +0.000 A 
ATOM      8  N   UNL     1       4.387   3.444  19.297  0.00  0.00    +0.000 N 
BRANCH   8   9
ATOM      9  C   UNL     1       5.177   4.111  18.312  0.00  0.00    +0.000 A 
ATOM     10  C   UNL     1       4.985   3.878  16.946  0.00  0.00    +0.000 A 
ATOM     11  C   UNL     1       5.717   4.581  15.986  0.00  0.00    +0.000 A 
ATOM     12  C   UNL     1       6.634   5.550  16.376  0.00  0.00    +0.000 A 
ATOM     13  C   UNL     1       6.819   5.806  17.732  0.00  0.00    +0.000 A 
ATOM     14 CL   UNL     1       7.929   7.027  18.219  0.00  0.00    +0.000 Cl
ATOM     15  C   UNL     1       6.105   5.093  18.695  0.00  0.00    +0.000 A 
ENDBRANCH   8   9
ENDBRANCH   2   4
BRANCH   2  16
ATOM     16  C   UNL     1       2.991   6.524  19.398  0.00  0.00    +0.000 C 
BRANCH  16  17
ATOM     17  C   UNL     1       2.090   7.658  19.678  0.00  0.00    +0.000 A 
ATOM     18  C   UNL     1       1.444   8.116  20.799  0.00  0.00    +0.000 A 
ATOM     19  C   UNL     1       0.833   9.333  20.399  0.00  0.00    +0.000 A 
ATOM     20  N   UNL     1       1.080   9.565  19.099  0.00  0.00    +0.000 NA
ATOM     21  O   UNL     1       1.857   8.516  18.653  0.00  0.00    +0.000 OA
BRANCH  19  22
ATOM     22  C   UNL     1       0.080  10.268  21.230  0.00  0.00    +0.000 A 
ATOM     23  C   UNL     1      -0.429   9.859  22.470  0.00  0.00    +0.000 A 
ATOM     24  C   UNL     1      -1.193  10.732  23.248  0.00  0.00    +0.000 A 
ATOM     25  C   UNL     1      -1.451  12.024  22.796  0.00  0.00    +0.000 A 
ATOM     26  C   UNL     1      -0.943  12.447  21.568  0.00  0.00    +0.000 A 
ATOM     27  C   UNL     1      -0.183  11.573  20.787  0.00  0.00    +0.000 A 
ENDBRANCH  19  22
ENDBRANCH  16  17
ENDBRANCH   2  16
TORSDOF 5
ENDMDL
MODEL 5
REMARK VINA RESULT:      -7.8      2.038      3.116
REMARK  Name = 
REMARK  5 active torsions:
REMARK  status: ('A' for Active; 'I' for Inactive)
REMARK    1  A    between atoms: S_2  and  C_4
REMARK    2  A    between atoms: S_2  and  C_16
REMARK    3  A    between atoms: C_4  and  C_5
REMARK    4  A    between atoms: C_7  and  C_8
REMARK    5  A    between atoms: N_20  and  C_21
REMARK                            x       y       z     vdW  Elec       q    Type
REMARK                         _______ _______ _______ _____ _____    ______ ____
ROOT
ATOM      1  O   UNL     1       5.437   3.713  17.736  0.00  0.00    +0.000 OA
ATOM      2  S   UNL     1       5.948   4.915  18.373  0.00  0.00    +0.000 S 
ATOM      3  O   UNL     1       6.401   4.938  19.750  0.00  0.00    +0.000 OA
ENDROOT
BRANCH   2   4
ATOM      4  C   UNL     1       4.614   6.079  18.258  0.00  0.00    +0.000 A 
ATOM      5  N   UNL     1       4.776   7.247  17.647  0.00  0.00    +0.000 NA
ATOM      6  C   UNL     1       3.526   7.744  17.445  0.00  0.00    +0.000 A 
ATOM      7  C   UNL     1       2.584   6.886  17.947  0.00  0.00    +0.000 A 
ATOM      8  N   UNL     1       3.273   5.846  18.553  0.00  0.00    +0.000 N 
BRANCH   8   9
ATOM      9  C   UNL     1       2.643   4.824  19.328  0.00  0.00    +0.000 A 
ATOM     10  C   UNL     1       2.668   4.853  20.726  0.00  0.00    +0.000 A 
ATOM     11  C   UNL     1       1.996   3.886  21.478  0.00  0.00    +0.000 A 
ATOM     12  C   UNL     1       1.263   2.890  20.843  0.00  0.00    +0.000 A 
ATOM     13  C   UNL     1       1.212   2.864  19.452  0.00  0.00    +0.000 A 
ATOM     14 CL   UNL     1       0.280   1.653  18.662  0.00  0.00    +0.000 Cl
ATOM     15  C   UNL     1       1.898   3.815  18.696  0.00  0.00    +0.000 A 
ENDBRANCH   8   9
ENDBRANCH   2   4
BRANCH   2  16
ATOM     16  C   UNL     1       7.206   5.673  17.364  0.00  0.00    +0.000 C 
BRANCH  16  17
ATOM     17  C   UNL     1       7.074   5.172  15.983  0.00  0.00    +0.000 A 
ATOM     18  C   UNL     1       6.274   4.237  15.373  0.00  0.00    +0.000 A 
ATOM     19  C   UNL     1       6.580   4.337  13.991  0.00  0.00    +0.000 A 
ATOM     20  N   UNL     1       7.536   5.262  13.798  0.00  0.00    +0.000 NA
ATOM     21  O   UNL     1       7.845   5.774  15.042  0.00  0.00    +0.000 OA
BRANCH  19  22
ATOM     22  C   UNL     1       5.958   3.615  12.885  0.00  0.00    +0.000 A 
ATOM     23  C   UNL     1       4.675   3.966  12.446  0.00  0.00    +0.000 A 
ATOM     24  C   UNL     1       4.052   3.248  11.422  0.00  0.00    +0.000 A 
ATOM     25  C   UNL     1       4.711   2.176  10.823  0.00  0.00    +0.000 A 
ATOM     26  C   UNL     1       5.992   1.823  11.243  0.00  0.00    +0.000 A 
ATOM     27  C   UNL     1       6.613   2.537  12.271  0.00  0.00    +0.000 A 
ENDBRANCH  19  22
ENDBRANCH  16  17
ENDBRANCH   2  16
TORSDOF 5
ENDMDL
MODEL 6
REMARK VINA RESULT:      -7.8      3.740      4.948
REMARK  Name = 
REMARK  5 active torsions:
REMARK  status: ('A' for Active; 'I' for Inactive)
REMARK    1  A    between atoms: S_2  and  C_4
REMARK    2  A    between atoms: S_2  and  C_16
REMARK    3  A    between atoms: C_4  and  C_5
REMARK    4  A    between atoms: C_7  and  C_8
REMARK    5  A    between atoms: N_20  and  C_21
REMARK                            x       y       z     vdW  Elec       q    Type
REMARK                         _______ _______ _______ _____ _____    ______ ____
ROOT
ATOM      1  O   UNL     1       1.147   4.329  17.599  0.00  0.00    +0.000 OA
ATOM      2  S   UNL     1       1.220   3.030  18.244  0.00  0.00    +0.000 S 
ATOM      3  O   UNL     1       0.118   2.087  18.231  0.00  0.00    +0.000 OA
ENDROOT
BRANCH   2   4
ATOM      4  C   UNL     1       1.553   3.397  19.947  0.00  0.00    +0.000 A 
ATOM      5  N   UNL     1       1.568   2.437  20.864  0.00  0.00    +0.000 NA
ATOM      6  C   UNL     1       2.160   2.974  21.964  0.00  0.00    +0.000 A 
ATOM      7  C   UNL     1       2.501   4.280  21.733  0.00  0.00    +0.000 A 
ATOM      8  N   UNL     1       2.038   4.596  20.464  0.00  0.00    +0.000 N 
BRANCH   8   9
ATOM      9  C   UNL     1       2.065   5.915  19.918  0.00  0.00    +0.000 A 
ATOM     10  C   UNL     1       2.641   6.172  18.668  0.00  0.00    +0.000 A 
ATOM     11  C   UNL     1       2.609   7.454  18.112  0.00  0.00    +0.000 A 
ATOM     12  C   UNL     1       1.974   8.493  18.781  0.00  0.00    +0.000 A 
ATOM     13  C   UNL     1       1.378   8.244  20.015  0.00  0.00    +0.000 A 
ATOM     14 CL   UNL     1       0.563   9.519  20.833  0.00  0.00    +0.000 Cl
ATOM     15  C   UNL     1       1.425   6.971  20.585  0.00  0.00    +0.000 A 
ENDBRANCH   8   9
ENDBRANCH   2   4
BRANCH   2  16
ATOM     16  C   UNL     1       2.695   2.163  17.742  0.00  0.00    +0.000 C 
BRANCH  16  17
ATOM     17  C   UNL     1       3.868   2.997  18.062  0.00  0.00    +0.000 A 
ATOM     18  C   UNL     1       4.451   4.096  17.481  0.00  0.00    +0.000 A 
ATOM     19  C   UNL     1       5.486   4.477  18.373  0.00  0.00    +0.000 A 
ATOM     20  N   UNL     1       5.533   3.627  19.413  0.00  0.00    +0.000 NA
ATOM     21  O   UNL     1       4.528   2.703  19.211  0.00  0.00    +0.000 OA
BRANCH  19  22
ATOM     22  C   UNL     1       6.373   5.633  18.270  0.00  0.00    +0.000 A 
ATOM     23  C   UNL     1       6.145   6.612  17.294  0.00  0.00    +0.000 A 
ATOM     24  C   UNL     1       7.018   7.694  17.156  0.00  0.00    +0.000 A 
ATOM     25  C   UNL     1       8.122   7.812  17.998  0.00  0.00    +0.000 A 
ATOM     26  C   UNL     1       8.354   6.850  18.980  0.00  0.00    +0.000 A 
ATOM     27  C   UNL     1       7.485   5.764  19.115  0.00  0.00    +0.000 A 
ENDBRANCH  19  22
ENDBRANCH  16  17
ENDBRANCH   2  16
TORSDOF 5
ENDMDL
MODEL 7
REMARK VINA RESULT:      -7.7      3.827      8.818
REMARK  Name = 
REMARK  5 active torsions:
REMARK  status: ('A' for Active; 'I' for Inactive)
REMARK    1  A    between atoms: S_2  and  C_4
REMARK    2  A    between atoms: S_2  and  C_16
REMARK    3  A    between atoms: C_4  and  C_5
REMARK    4  A    between atoms: C_7  and  C_8
REMARK    5  A    between atoms: N_20  and  C_21
REMARK                            x       y       z     vdW  Elec       q    Type
REMARK                         _______ _______ _______ _____ _____    ______ ____
ROOT
ATOM      1  O   UNL     1       0.897   4.970  20.200  0.00  0.00    +0.000 OA
ATOM      2  S   UNL     1       2.036   5.129  19.313  0.00  0.00    +0.000 S 
ATOM      3  O   UNL     1       1.923   5.035  17.870  0.00  0.00    +0.000 OA
ENDROOT
BRANCH   2   4
ATOM      4  C   UNL     1       3.171   3.861  19.815  0.00  0.00    +0.000 A 
ATOM      5  N   UNL     1       2.844   2.986  20.760  0.00  0.00    +0.000 NA
ATOM      6  C   UNL     1       3.759   1.984  20.679  0.00  0.00    +0.000 A 
ATOM      7  C   UNL     1       4.667   2.245  19.688  0.00  0.00    +0.000 A 
ATOM      8  N   UNL     1       4.353   3.496  19.177  0.00  0.00    +0.000 N 
BRANCH   8   9
ATOM      9  C   UNL     1       5.164   4.190  18.228  0.00  0.00    +0.000 A 
ATOM     10  C   UNL     1       6.103   5.145  18.634  0.00  0.00    +0.000 A 
ATOM     11  C   UNL     1       6.937   5.774  17.707  0.00  0.00    +0.000 A 
ATOM     12  C   UNL     1       6.867   5.437  16.360  0.00  0.00    +0.000 A 
ATOM     13  C   UNL     1       5.952   4.473  15.946  0.00  0.00    +0.000 A 
ATOM     14 CL   UNL     1       5.883   4.028  14.286  0.00  0.00    +0.000 Cl
ATOM     15  C   UNL     1       5.102   3.856  16.866  0.00  0.00    +0.000 A 
ENDBRANCH   8   9
ENDBRANCH   2   4
BRANCH   2  16
ATOM     16  C   UNL     1       2.930   6.621  19.701  0.00  0.00    +0.000 C 
BRANCH  16  17
ATOM     17  C   UNL     1       1.966   7.727  19.853  0.00  0.00    +0.000 A 
ATOM     18  C   UNL     1       1.208   8.203  20.894  0.00  0.00    +0.000 A 
ATOM     19  C   UNL     1       0.587   9.376  20.390  0.00  0.00    +0.000 A 
ATOM     20  N   UNL     1       0.936   9.565  19.106  0.00  0.00    +0.000 NA
ATOM     21  O   UNL     1       1.789   8.531  18.774  0.00  0.00    +0.000 OA
BRANCH  19  22
ATOM     22  C   UNL     1      -0.271  10.312  21.111  0.00  0.00    +0.000 A 
ATOM     23  C   UNL     1      -0.803  11.430  20.455  0.00  0.00    +0.000 A 
ATOM     24  C   UNL     1      -1.582  12.357  21.150  0.00  0.00    +0.000 A 
ATOM     25  C   UNL     1      -1.845  12.171  22.506  0.00  0.00    +0.000 A 
ATOM     26  C   UNL     1      -1.330  11.057  23.168  0.00  0.00    +0.000 A 
ATOM     27  C   UNL     1      -0.545  10.132  22.475  0.00  0.00    +0.000 A 
ENDBRANCH  19  22
ENDBRANCH  16  17
ENDBRANCH   2  16
TORSDOF 5
ENDMDL
MODEL 8
REMARK VINA RESULT:      -7.6      3.676      7.919
REMARK  Name = 
REMARK  5 active torsions:
REMARK  status: ('A' for Active; 'I' for Inactive)
REMARK    1  A    between atoms: S_2  and  C_4
REMARK    2  A    between atoms: S_2  and  C_16
REMARK    3  A    between atoms: C_4  and  C_5
REMARK    4  A    between atoms: C_7  and  C_8
REMARK    5  A    between atoms: N_20  and  C_21
REMARK                            x       y       z     vdW  Elec       q    Type
REMARK                         _______ _______ _______ _____ _____    ______ ____
ROOT
ATOM      1  O   UNL     1       1.064   5.121  20.366  0.00  0.00    +0.000 OA
ATOM      2  S   UNL     1       2.108   5.113  19.357  0.00  0.00    +0.000 S 
ATOM      3  O   UNL     1       1.838   4.863  17.954  0.00  0.00    +0.000 OA
ENDROOT
BRANCH   2   4
ATOM      4  C   UNL     1       3.231   3.848  19.890  0.00  0.00    +0.000 A 
ATOM      5  N   UNL     1       2.880   2.970  20.824  0.00  0.00    +0.000 NA
ATOM      6  C   UNL     1       3.799   1.970  20.767  0.00  0.00    +0.000 A 
ATOM      7  C   UNL     1       4.734   2.235  19.803  0.00  0.00    +0.000 A 
ATOM      8  N   UNL     1       4.432   3.486  19.285  0.00  0.00    +0.000 N 
BRANCH   8   9
ATOM      9  C   UNL     1       5.268   4.183  18.360  0.00  0.00    +0.000 A 
ATOM     10  C   UNL     1       5.102   4.038  16.978  0.00  0.00    +0.000 A 
ATOM     11  C   UNL     1       5.882   4.770  16.079  0.00  0.00    +0.000 A 
ATOM     12  C   UNL     1       6.820   5.682  16.547  0.00  0.00    +0.000 A 
ATOM     13  C   UNL     1       6.979   5.851  17.920  0.00  0.00    +0.000 A 
ATOM     14 CL   UNL     1       8.116   7.002  18.505  0.00  0.00    +0.000 Cl
ATOM     15  C   UNL     1       6.218   5.108  18.823  0.00  0.00    +0.000 A 
ENDBRANCH   8   9
ENDBRANCH   2   4
BRANCH   2  16
ATOM     16  C   UNL     1       3.105   6.586  19.474  0.00  0.00    +0.000 C 
BRANCH  16  17
ATOM     17  C   UNL     1       2.306   7.738  19.015  0.00  0.00    +0.000 A 
ATOM     18  C   UNL     1       1.395   8.573  19.612  0.00  0.00    +0.000 A 
ATOM     19  C   UNL     1       1.097   9.553  18.630  0.00  0.00    +0.000 A 
ATOM     20  N   UNL     1       1.774   9.292  17.499  0.00  0.00    +0.000 NA
ATOM     21  O   UNL     1       2.521   8.157  17.742  0.00  0.00    +0.000 OA
BRANCH  19  22
ATOM     22  C   UNL     1       0.235  10.724  18.771  0.00  0.00    +0.000 A 
ATOM     23  C   UNL     1       0.795  12.006  18.856  0.00  0.00    +0.000 A 
ATOM     24  C   UNL     1      -0.019  13.125  19.042  0.00  0.00    +0.000 A 
ATOM     25  C   UNL     1      -1.401  12.975  19.136  0.00  0.00    +0.000 A 
ATOM     26  C   UNL     1      -1.971  11.706  19.042  0.00  0.00    +0.000 A 
ATOM     27  C   UNL     1      -1.158  10.585  18.862  0.00  0.00    +0.000 A 
ENDBRANCH  19  22
ENDBRANCH  16  17
ENDBRANCH   2  16
TORSDOF 5
ENDMDL
MODEL 9
REMARK VINA RESULT:      -7.6      3.787      8.062
REMARK  Name = 
REMARK  5 active torsions:
REMARK  status: ('A' for Active; 'I' for Inactive)
REMARK    1  A    between atoms: S_2  and  C_4
REMARK    2  A    between atoms: S_2  and  C_16
REMARK    3  A    between atoms: C_4  and  C_5
REMARK    4  A    between atoms: C_7  and  C_8
REMARK    5  A    between atoms: N_20  and  C_21
REMARK                            x       y       z     vdW  Elec       q    Type
REMARK                         _______ _______ _______ _____ _____    ______ ____
ROOT
ATOM      1  O   UNL     1       1.105   5.206  20.432  0.00  0.00    +0.000 OA
ATOM      2  S   UNL     1       2.103   5.142  19.379  0.00  0.00    +0.000 S 
ATOM      3  O   UNL     1       1.766   4.859  17.997  0.00  0.00    +0.000 OA
ENDROOT
BRANCH   2   4
ATOM      4  C   UNL     1       3.217   3.864  19.901  0.00  0.00    +0.000 A 
ATOM      5  N   UNL     1       2.883   3.019  20.871  0.00  0.00    +0.000 NA
ATOM      6  C   UNL     1       3.776   1.996  20.805  0.00  0.00    +0.000 A 
ATOM      7  C   UNL     1       4.679   2.215  19.798  0.00  0.00    +0.000 A 
ATOM      8  N   UNL     1       4.384   3.459  19.260  0.00  0.00    +0.000 N 
BRANCH   8   9
ATOM      9  C   UNL     1       5.199   4.112  18.285  0.00  0.00    +0.000 A 
ATOM     10  C   UNL     1       6.307   4.880  18.662  0.00  0.00    +0.000 A 
ATOM     11  C   UNL     1       7.136   5.465  17.701  0.00  0.00    +0.000 A 
ATOM     12  C   UNL     1       6.890   5.266  16.348  0.00  0.00    +0.000 A 
ATOM     13  C   UNL     1       5.803   4.486  15.961  0.00  0.00    +0.000 A 
ATOM     14 CL   UNL     1       5.512   4.210  14.289  0.00  0.00    +0.000 Cl
ATOM     15  C   UNL     1       4.960   3.916  16.916  0.00  0.00    +0.000 A 
ENDBRANCH   8   9
ENDBRANCH   2   4
BRANCH   2  16
ATOM     16  C   UNL     1       3.140   6.591  19.409  0.00  0.00    +0.000 C 
BRANCH  16  17
ATOM     17  C   UNL     1       2.344   7.754  18.973  0.00  0.00    +0.000 A 
ATOM     18  C   UNL     1       1.457   8.597  19.595  0.00  0.00    +0.000 A 
ATOM     19  C   UNL     1       1.146   9.584  18.624  0.00  0.00    +0.000 A 
ATOM     20  N   UNL     1       1.794   9.320  17.477  0.00  0.00    +0.000 NA
ATOM     21  O   UNL     1       2.533   8.176  17.697  0.00  0.00    +0.000 OA
BRANCH  19  22
ATOM     22  C   UNL     1       0.302  10.764  18.790  0.00  0.00    +0.000 A 
ATOM     23  C   UNL     1       0.877  12.009  19.079  0.00  0.00    +0.000 A 
ATOM     24  C   UNL     1       0.074  13.132  19.289  0.00  0.00    +0.000 A 
ATOM     25  C   UNL     1      -1.313  13.022  19.204  0.00  0.00    +0.000 A 
ATOM     26  C   UNL     1      -1.897  11.792  18.907  0.00  0.00    +0.000 A 
ATOM     27  C   UNL     1      -1.095  10.667  18.703  0.00  0.00    +0.000 A 
ENDBRANCH  19  22
ENDBRANCH  16  17
ENDBRANCH   2  16
TORSDOF 5
ENDMDL
