MODEL 1
REMARK VINA RESULT:      -9.0      0.000      0.000
REMARK  Name = 
REMARK  5 active torsions:
REMARK  status: ('A' for Active; 'I' for Inactive)
REMARK    1  A    between atoms: C_1  and  C_2
REMARK    2  A    between atoms: C_6  and  N_7
REMARK    3  A    between atoms: C_8  and  C_10
REMARK    4  A    between atoms: C_10  and  S_11
REMARK    5  A    between atoms: S_11  and  C_12
REMARK                            x       y       z     vdW  Elec       q    Type
REMARK                         _______ _______ _______ _____ _____    ______ ____
ROOT
ATOM      1  C   UNL     1       5.567   5.383  18.035  0.00  0.00    +0.000 A 
ATOM      2  N   UNL     1       4.953   5.481  19.174  0.00  0.00    +0.000 NA
ATOM      3  C   UNL     1       3.672   4.908  19.292  0.00  0.00    +0.000 A 
ATOM      4  C   UNL     1       3.003   4.943  20.528  0.00  0.00    +0.000 A 
ATOM      5  C   UNL     1       1.731   4.367  20.681  0.00  0.00    +0.000 A 
ATOM      6  C   UNL     1       1.097   3.762  19.597  0.00  0.00    +0.000 A 
ATOM      7  C   UNL     1       1.738   3.719  18.368  0.00  0.00    +0.000 A 
ATOM      8  C   UNL     1       3.023   4.275  18.233  0.00  0.00    +0.000 A 
ATOM      9  C   UNL     1       3.744   4.167  16.958  0.00  0.00    +0.000 A 
ATOM     10  O   UNL     1       3.195   3.593  16.016  0.00  0.00    +0.000 OA
ATOM     11  N   UNL     1       5.013   4.731  16.930  0.00  0.00    +0.000 N 
ATOM     12  C   UNL     1       5.671   4.648  15.705  0.00  0.00    +0.000 A 
ATOM     13  N   UNL     1       6.374   5.563  15.071  0.00  0.00    +0.000 NA
ATOM     14  N   UNL     1       6.854   5.012  13.905  0.00  0.00    +0.000 NA
ATOM     15  C   UNL     1       6.470   3.758  13.872  0.00  0.00    +0.000 A 
ATOM     16  N   UNL     1       5.700   3.495  14.961  0.00  0.00    +0.000 N 
ATOM     17  H   UNL     1       5.279   2.614  15.215  0.00  0.00    +0.000 HD
ENDROOT
BRANCH   1  18
ATOM     18  S   UNL     1       7.218   5.976  17.879  0.00  0.00    +0.000 S 
BRANCH  18  19
ATOM     19  C   UNL     1       7.105   7.734  17.528  0.00  0.00    +0.000 C 
BRANCH  19  21
ATOM     20  N   UNL     1       8.344   9.802  18.083  0.00  0.00    +0.000 N 
ATOM     21  C   UNL     1       8.201   8.438  18.345  0.00  0.00    +0.000 C 
ATOM     22  O   UNL     1       8.875   7.785  19.136  0.00  0.00    +0.000 OA
ATOM     23  H   UNL     1       7.729  10.206  17.385  0.00  0.00    +0.000 HD
BRANCH  20  29
ATOM     24  C   UNL     1      12.072  13.023  17.373  0.00  0.00    +0.000 C 
ATOM     25  C   UNL     1      11.153  12.269  18.292  0.00  0.00    +0.000 A 
ATOM     26  C   UNL     1      11.257  12.453  19.673  0.00  0.00    +0.000 A 
ATOM     27  C   UNL     1      10.410  11.761  20.533  0.00  0.00    +0.000 A 
ATOM     28  C   UNL     1       9.447  10.885  20.023  0.00  0.00    +0.000 A 
ATOM     29  C   UNL     1       9.309  10.680  18.647  0.00  0.00    +0.000 A 
ATOM     30  C   UNL     1      10.179  11.378  17.785  0.00  0.00    +0.000 A 
ENDBRANCH  20  29
ENDBRANCH  19  21
ENDBRANCH  18  19
ENDBRANCH   1  18
TORSDOF 4
ENDMDL
MODEL 2
REMARK VINA RESULT:      -8.9      4.365      6.850
REMARK  Name = 
REMARK  5 active torsions:
REMARK  status: ('A' for Active; 'I' for Inactive)
REMARK    1  A    between atoms: C_1  and  C_2
REMARK    2  A    between atoms: C_6  and  N_7
REMARK    3  A    between atoms: C_8  and  C_10
REMARK    4  A    between atoms: C_10  and  S_11
REMARK    5  A    between atoms: S_11  and  C_12
REMARK                            x       y       z     vdW  Elec       q    Type
REMARK                         _______ _______ _______ _____ _____    ______ ____
ROOT
ATOM      1  C   UNL     1       3.383   6.354  18.572  0.00  0.00    +0.000 A 
ATOM      2  N   UNL     1       2.257   5.968  19.090  0.00  0.00    +0.000 NA
ATOM      3  C   UNL     1       2.221   4.730  19.759  0.00  0.00    +0.000 A 
ATOM      4  C   UNL     1       1.035   4.308  20.384  0.00  0.00    +0.000 A 
ATOM      5  C   UNL     1       0.972   3.085  21.072  0.00  0.00    +0.000 A 
ATOM      6  C   UNL     1       2.088   2.253  21.132  0.00  0.00    +0.000 A 
ATOM      7  C   UNL     1       3.269   2.649  20.520  0.00  0.00    +0.000 A 
ATOM      8  C   UNL     1       3.328   3.887  19.857  0.00  0.00    +0.000 A 
ATOM      9  C   UNL     1       4.593   4.352  19.273  0.00  0.00    +0.000 A 
ATOM     10  O   UNL     1       5.587   3.631  19.367  0.00  0.00    +0.000 OA
ATOM     11  N   UNL     1       4.555   5.596  18.656  0.00  0.00    +0.000 N 
ATOM     12  C   UNL     1       5.753   6.009  18.079  0.00  0.00    +0.000 A 
ATOM     13  N   UNL     1       5.965   6.583  16.914  0.00  0.00    +0.000 NA
ATOM     14  N   UNL     1       7.314   6.830  16.789  0.00  0.00    +0.000 NA
ATOM     15  C   UNL     1       7.891   6.439  17.900  0.00  0.00    +0.000 A 
ATOM     16  N   UNL     1       6.960   5.889  18.722  0.00  0.00    +0.000 N 
ATOM     17  H   UNL     1       7.103   5.518  19.650  0.00  0.00    +0.000 HD
ENDROOT
BRANCH   1  18
ATOM     18  S   UNL     1       3.505   7.949  17.834  0.00  0.00    +0.000 S 
BRANCH  18  19
ATOM     19  C   UNL     1       1.826   8.491  17.495  0.00  0.00    +0.000 C 
BRANCH  19  21
ATOM     20  N   UNL     1       0.812   8.789  19.731  0.00  0.00    +0.000 N 
ATOM     21  C   UNL     1       1.404   9.427  18.640  0.00  0.00    +0.000 C 
ATOM     22  O   UNL     1       1.585  10.636  18.527  0.00  0.00    +0.000 OA
ATOM     23  H   UNL     1       0.706   7.782  19.677  0.00  0.00    +0.000 HD
BRANCH  20  29
ATOM     24  C   UNL     1      -1.917  12.456  21.703  0.00  0.00    +0.000 C 
ATOM     25  C   UNL     1      -1.069  11.226  21.863  0.00  0.00    +0.000 A 
ATOM     26  C   UNL     1      -0.834  10.714  23.142  0.00  0.00    +0.000 A 
ATOM     27  C   UNL     1      -0.051   9.575  23.302  0.00  0.00    +0.000 A 
ATOM     28  C   UNL     1       0.497   8.932  22.188  0.00  0.00    +0.000 A 
ATOM     29  C   UNL     1       0.278   9.411  20.893  0.00  0.00    +0.000 A 
ATOM     30  C   UNL     1      -0.508  10.572  20.743  0.00  0.00    +0.000 A 
ENDBRANCH  20  29
ENDBRANCH  19  21
ENDBRANCH  18  19
ENDBRANCH   1  18
TORSDOF 4
ENDMDL
MODEL 3
REMARK VINA RESULT:      -8.8      1.360      4.487
REMARK  Name = 
REMARK  5 active torsions:
REMARK  status: ('A' for Active; 'I' for Inactive)
REMARK    1  A    between atoms: C_1  and  C_2
REMARK    2  A    between atoms: C_6  and  N_7
REMARK    3  A    between atoms: C_8  and  C_10
REMARK    4  A    between atoms: C_10  and  S_11
REMARK    5  A    between atoms: S_11  and  C_12
REMARK                            x       y       z     vdW  Elec       q    Type
REMARK                         _______ _______ _______ _____ _____    ______ ____
ROOT
ATOM      1  C   UNL     1       6.893   5.789  16.656  0.00  0.00    +0.000 A 
ATOM      2  N   UNL     1       7.588   5.773  15.560  0.00  0.00    +0.000 NA
ATOM      3  C   UNL     1       7.085   5.048  14.462  0.00  0.00    +0.000 A 
ATOM      4  C   UNL     1       7.780   5.058  13.241  0.00  0.00    +0.000 A 
ATOM      5  C   UNL     1       7.296   4.358  12.124  0.00  0.00    +0.000 A 
ATOM      6  C   UNL     1       6.117   3.620  12.213  0.00  0.00    +0.000 A 
ATOM      7  C   UNL     1       5.417   3.594  13.410  0.00  0.00    +0.000 A 
ATOM      8  C   UNL     1       5.896   4.320  14.513  0.00  0.00    +0.000 A 
ATOM      9  C   UNL     1       5.123   4.364  15.761  0.00  0.00    +0.000 A 
ATOM     10  O   UNL     1       4.061   3.745  15.819  0.00  0.00    +0.000 OA
ATOM     11  N   UNL     1       5.671   5.123  16.788  0.00  0.00    +0.000 N 
ATOM     12  C   UNL     1       4.942   5.129  17.975  0.00  0.00    +0.000 A 
ATOM     13  N   UNL     1       5.367   5.023  19.216  0.00  0.00    +0.000 NA
ATOM     14  N   UNL     1       4.280   5.108  20.056  0.00  0.00    +0.000 NA
ATOM     15  C   UNL     1       3.219   5.308  19.311  0.00  0.00    +0.000 A 
ATOM     16  N   UNL     1       3.580   5.295  18.001  0.00  0.00    +0.000 N 
ATOM     17  H   UNL     1       2.984   5.441  17.200  0.00  0.00    +0.000 HD
ENDROOT
BRANCH   1  18
ATOM     18  S   UNL     1       7.423   6.781  18.012  0.00  0.00    +0.000 S 
BRANCH  18  19
ATOM     19  C   UNL     1       7.476   8.477  17.422  0.00  0.00    +0.000 C 
BRANCH  19  21
ATOM     20  N   UNL     1       8.765  10.540  17.871  0.00  0.00    +0.000 N 
ATOM     21  C   UNL     1       8.509   9.229  18.278  0.00  0.00    +0.000 C 
ATOM     22  O   UNL     1       9.045   8.653  19.219  0.00  0.00    +0.000 OA
ATOM     23  H   UNL     1       8.262  10.879  17.057  0.00  0.00    +0.000 HD
BRANCH  20  29
ATOM     24  C   UNL     1       9.907  13.765  21.486  0.00  0.00    +0.000 C 
ATOM     25  C   UNL     1      10.269  13.033  20.225  0.00  0.00    +0.000 A 
ATOM     26  C   UNL     1      11.523  13.238  19.646  0.00  0.00    +0.000 A 
ATOM     27  C   UNL     1      11.870  12.564  18.479  0.00  0.00    +0.000 A 
ATOM     28  C   UNL     1      10.972  11.674  17.884  0.00  0.00    +0.000 A 
ATOM     29  C   UNL     1       9.710  11.438  18.439  0.00  0.00    +0.000 A 
ATOM     30  C   UNL     1       9.365  12.134  19.615  0.00  0.00    +0.000 A 
ENDBRANCH  20  29
ENDBRANCH  19  21
ENDBRANCH  18  19
ENDBRANCH   1  18
TORSDOF 4
ENDMDL
MODEL 4
REMARK VINA RESULT:      -8.8      5.023      7.625
REMARK  Name = 
REMARK  5 active torsions:
REMARK  status: ('A' for Active; 'I' for Inactive)
REMARK    1  A    between atoms: C_1  and  C_2
REMARK    2  A    between atoms: C_6  and  N_7
REMARK    3  A    between atoms: C_8  and  C_10
REMARK    4  A    between atoms: C_10  and  S_11
REMARK    5  A    between atoms: S_11  and  C_12
REMARK                            x       y       z     vdW  Elec       q    Type
REMARK                         _______ _______ _______ _____ _____    ______ ____
ROOT
ATOM      1  C   UNL     1       3.511   6.109  18.079  0.00  0.00    +0.000 A 
ATOM      2  N   UNL     1       4.282   6.577  17.145  0.00  0.00    +0.000 NA
ATOM      3  C   UNL     1       4.969   5.660  16.325  0.00  0.00    +0.000 A 
ATOM      4  C   UNL     1       5.764   6.130  15.266  0.00  0.00    +0.000 A 
ATOM      5  C   UNL     1       6.449   5.241  14.422  0.00  0.00    +0.000 A 
ATOM      6  C   UNL     1       6.365   3.866  14.633  0.00  0.00    +0.000 A 
ATOM      7  C   UNL     1       5.587   3.380  15.674  0.00  0.00    +0.000 A 
ATOM      8  C   UNL     1       4.885   4.279  16.496  0.00  0.00    +0.000 A 
ATOM      9  C   UNL     1       3.997   3.775  17.551  0.00  0.00    +0.000 A 
ATOM     10  O   UNL     1       3.894   2.557  17.705  0.00  0.00    +0.000 OA
ATOM     11  N   UNL     1       3.333   4.740  18.298  0.00  0.00    +0.000 N 
ATOM     12  C   UNL     1       2.520   4.247  19.316  0.00  0.00    +0.000 A 
ATOM     13  N   UNL     1       2.381   4.672  20.554  0.00  0.00    +0.000 NA
ATOM     14  N   UNL     1       1.442   3.885  21.181  0.00  0.00    +0.000 NA
ATOM     15  C   UNL     1       0.996   3.023  20.299  0.00  0.00    +0.000 A 
ATOM     16  N   UNL     1       1.665   3.190  19.128  0.00  0.00    +0.000 N 
ATOM     17  H   UNL     1       1.525   2.686  18.265  0.00  0.00    +0.000 HD
ENDROOT
BRANCH   1  18
ATOM     18  S   UNL     1       2.541   7.215  19.047  0.00  0.00    +0.000 S 
BRANCH  18  19
ATOM     19  C   UNL     1       1.999   8.527  17.946  0.00  0.00    +0.000 C 
BRANCH  19  21
ATOM     20  N   UNL     1       1.248   9.441  20.118  0.00  0.00    +0.000 N 
ATOM     21  C   UNL     1       1.035   9.425  18.738  0.00  0.00    +0.000 C 
ATOM     22  O   UNL     1       0.154  10.037  18.142  0.00  0.00    +0.000 OA
ATOM     23  H   UNL     1       2.003   8.866  20.476  0.00  0.00    +0.000 HD
BRANCH  20  29
ATOM     24  C   UNL     1      -0.537  13.760  21.830  0.00  0.00    +0.000 C 
ATOM     25  C   UNL     1      -0.403  12.268  21.935  0.00  0.00    +0.000 A 
ATOM     26  C   UNL     1      -1.048  11.590  22.973  0.00  0.00    +0.000 A 
ATOM     27  C   UNL     1      -0.933  10.208  23.079  0.00  0.00    +0.000 A 
ATOM     28  C   UNL     1      -0.180   9.488  22.147  0.00  0.00    +0.000 A 
ATOM     29  C   UNL     1       0.474  10.131  21.091  0.00  0.00    +0.000 A 
ATOM     30  C   UNL     1       0.359  11.533  20.999  0.00  0.00    +0.000 A 
ENDBRANCH  20  29
ENDBRANCH  19  21
ENDBRANCH  18  19
ENDBRANCH   1  18
TORSDOF 4
ENDMDL
MODEL 5
REMARK VINA RESULT:      -8.7      4.720      7.365
REMARK  Name = 
REMARK  5 active torsions:
REMARK  status: ('A' for Active; 'I' for Inactive)
REMARK    1  A    between atoms: C_1  and  C_2
REMARK    2  A    between atoms: C_6  and  N_7
REMARK    3  A    between atoms: C_8  and  C_10
REMARK    4  A    between atoms: C_10  and  S_11
REMARK    5  A    between atoms: S_11  and  C_12
REMARK                            x       y       z     vdW  Elec       q    Type
REMARK                         _______ _______ _______ _____ _____    ______ ____
ROOT
ATOM      1  C   UNL     1       2.817   6.621  18.310  0.00  0.00    +0.000 A 
ATOM      2  N   UNL     1       2.810   7.798  17.764  0.00  0.00    +0.000 NA
ATOM      3  C   UNL     1       2.162   8.846  18.447  0.00  0.00    +0.000 A 
ATOM      4  C   UNL     1       2.186  10.147  17.915  0.00  0.00    +0.000 A 
ATOM      5  C   UNL     1       1.562  11.215  18.580  0.00  0.00    +0.000 A 
ATOM      6  C   UNL     1       0.887  10.998  19.779  0.00  0.00    +0.000 A 
ATOM      7  C   UNL     1       0.848   9.722  20.321  0.00  0.00    +0.000 A 
ATOM      8  C   UNL     1       1.499   8.665  19.660  0.00  0.00    +0.000 A 
ATOM      9  C   UNL     1       1.531   7.327  20.263  0.00  0.00    +0.000 A 
ATOM     10  O   UNL     1       0.969   7.152  21.344  0.00  0.00    +0.000 OA
ATOM     11  N   UNL     1       2.214   6.354  19.543  0.00  0.00    +0.000 N 
ATOM     12  C   UNL     1       2.209   5.082  20.111  0.00  0.00    +0.000 A 
ATOM     13  N   UNL     1       2.026   3.912  19.538  0.00  0.00    +0.000 NA
ATOM     14  N   UNL     1       2.135   2.934  20.500  0.00  0.00    +0.000 NA
ATOM     15  C   UNL     1       2.425   3.526  21.634  0.00  0.00    +0.000 A 
ATOM     16  N   UNL     1       2.448   4.872  21.446  0.00  0.00    +0.000 N 
ATOM     17  H   UNL     1       2.661   5.582  22.131  0.00  0.00    +0.000 HD
ENDROOT
BRANCH   1  18
ATOM     18  S   UNL     1       3.719   5.311  17.552  0.00  0.00    +0.000 S 
BRANCH  18  19
ATOM     19  C   UNL     1       5.429   5.493  18.072  0.00  0.00    +0.000 C 
BRANCH  19  21
ATOM     20  N   UNL     1       5.662   5.139  15.635  0.00  0.00    +0.000 N 
ATOM     21  C   UNL     1       6.316   5.135  16.868  0.00  0.00    +0.000 C 
ATOM     22  O   UNL     1       7.497   4.856  17.053  0.00  0.00    +0.000 OA
ATOM     23  H   UNL     1       4.674   5.368  15.636  0.00  0.00    +0.000 HD
BRANCH  20  29
ATOM     24  C   UNL     1       5.472   2.299  11.551  0.00  0.00    +0.000 C 
ATOM     25  C   UNL     1       6.125   3.384  12.360  0.00  0.00    +0.000 A 
ATOM     26  C   UNL     1       7.254   4.033  11.855  0.00  0.00    +0.000 A 
ATOM     27  C   UNL     1       7.866   5.040  12.594  0.00  0.00    +0.000 A 
ATOM     28  C   UNL     1       7.353   5.413  13.840  0.00  0.00    +0.000 A 
ATOM     29  C   UNL     1       6.221   4.791  14.374  0.00  0.00    +0.000 A 
ATOM     30  C   UNL     1       5.615   3.765  13.621  0.00  0.00    +0.000 A 
ENDBRANCH  20  29
ENDBRANCH  19  21
ENDBRANCH  18  19
ENDBRANCH   1  18
TORSDOF 4
ENDMDL
MODEL 6
REMARK VINA RESULT:      -8.7      5.187      8.335
REMARK  Name = 
REMARK  5 active torsions:
REMARK  status: ('A' for Active; 'I' for Inactive)
REMARK    1  A    between atoms: C_1  and  C_2
REMARK    2  A    between atoms: C_6  and  N_7
REMARK    3  A    between atoms: C_8  and  C_10
REMARK    4  A    between atoms: C_10  and  S_11
REMARK    5  A    between atoms: S_11  and  C_12
REMARK                            x       y       z     vdW  Elec       q    Type
REMARK                         _______ _______ _______ _____ _____    ______ ____
ROOT
ATOM      1  C   UNL     1       3.482   5.991  18.249  0.00  0.00    +0.000 A 
ATOM      2  N   UNL     1       4.180   6.484  17.272  0.00  0.00    +0.000 NA
ATOM      3  C   UNL     1       4.859   5.590  16.422  0.00  0.00    +0.000 A 
ATOM      4  C   UNL     1       5.576   6.085  15.318  0.00  0.00    +0.000 A 
ATOM      5  C   UNL     1       6.251   5.218  14.443  0.00  0.00    +0.000 A 
ATOM      6  C   UNL     1       6.237   3.843  14.666  0.00  0.00    +0.000 A 
ATOM      7  C   UNL     1       5.539   3.333  15.751  0.00  0.00    +0.000 A 
ATOM      8  C   UNL     1       4.844   4.208  16.605  0.00  0.00    +0.000 A 
ATOM      9  C   UNL     1       4.037   3.675  17.710  0.00  0.00    +0.000 A 
ATOM     10  O   UNL     1       3.995   2.456  17.875  0.00  0.00    +0.000 OA
ATOM     11  N   UNL     1       3.374   4.618  18.486  0.00  0.00    +0.000 N 
ATOM     12  C   UNL     1       2.639   4.099  19.549  0.00  0.00    +0.000 A 
ATOM     13  N   UNL     1       2.550   4.527  20.790  0.00  0.00    +0.000 NA
ATOM     14  N   UNL     1       1.681   3.707  21.472  0.00  0.00    +0.000 NA
ATOM     15  C   UNL     1       1.224   2.820  20.621  0.00  0.00    +0.000 A 
ATOM     16  N   UNL     1       1.820   3.006  19.414  0.00  0.00    +0.000 N 
ATOM     17  H   UNL     1       1.656   2.489  18.563  0.00  0.00    +0.000 HD
ENDROOT
BRANCH   1  18
ATOM     18  S   UNL     1       2.518   7.063  19.262  0.00  0.00    +0.000 S 
BRANCH  18  19
ATOM     19  C   UNL     1       2.256   8.569  18.318  0.00  0.00    +0.000 C 
BRANCH  19  21
ATOM     20  N   UNL     1       0.159   9.839  17.986  0.00  0.00    +0.000 N 
ATOM     21  C   UNL     1       1.035   9.283  18.921  0.00  0.00    +0.000 C 
ATOM     22  O   UNL     1       0.913   9.341  20.141  0.00  0.00    +0.000 OA
ATOM     23  H   UNL     1       0.399   9.732  17.007  0.00  0.00    +0.000 HD
BRANCH  20  29
ATOM     24  C   UNL     1      -4.473  11.120  16.689  0.00  0.00    +0.000 C 
ATOM     25  C   UNL     1      -3.296  11.233  17.617  0.00  0.00    +0.000 A 
ATOM     26  C   UNL     1      -3.378  12.069  18.733  0.00  0.00    +0.000 A 
ATOM     27  C   UNL     1      -2.295  12.180  19.600  0.00  0.00    +0.000 A 
ATOM     28  C   UNL     1      -1.125  11.452  19.366  0.00  0.00    +0.000 A 
ATOM     29  C   UNL     1      -1.009  10.600  18.263  0.00  0.00    +0.000 A 
ATOM     30  C   UNL     1      -2.108  10.503  17.386  0.00  0.00    +0.000 A 
ENDBRANCH  20  29
ENDBRANCH  19  21
ENDBRANCH  18  19
ENDBRANCH   1  18
TORSDOF 4
ENDMDL
MODEL 7
REMARK VINA RESULT:      -8.7      5.048      7.668
REMARK  Name = 
REMARK  5 active torsions:
REMARK  status: ('A' for Active; 'I' for Inactive)
REMARK    1  A    between atoms: C_1  and  C_2
REMARK    2  A    between atoms: C_6  and  N_7
REMARK    3  A    between atoms: C_8  and  C_10
REMARK    4  A    between atoms: C_10  and  S_11
REMARK    5  A    between atoms: S_11  and  C_12
REMARK                            x       y       z     vdW  Elec       q    Type
REMARK                         _______ _______ _______ _____ _____    ______ ____
ROOT
ATOM      1  C   UNL     1       3.051   6.165  18.686  0.00  0.00    +0.000 A 
ATOM      2  N   UNL     1       2.031   5.675  19.322  0.00  0.00    +0.000 NA
ATOM      3  C   UNL     1       2.197   4.460  20.015  0.00  0.00    +0.000 A 
ATOM      4  C   UNL     1       1.131   3.931  20.763  0.00  0.00    +0.000 A 
ATOM      5  C   UNL     1       1.271   2.730  21.477  0.00  0.00    +0.000 A 
ATOM      6  C   UNL     1       2.473   2.026  21.440  0.00  0.00    +0.000 A 
ATOM      7  C   UNL     1       3.537   2.528  20.705  0.00  0.00    +0.000 A 
ATOM      8  C   UNL     1       3.395   3.745  20.017  0.00  0.00    +0.000 A 
ATOM      9  C   UNL     1       4.537   4.326  19.300  0.00  0.00    +0.000 A 
ATOM     10  O   UNL     1       5.609   3.720  19.307  0.00  0.00    +0.000 OA
ATOM     11  N   UNL     1       4.301   5.540  18.666  0.00  0.00    +0.000 N 
ATOM     12  C   UNL     1       5.385   6.063  17.964  0.00  0.00    +0.000 A 
ATOM     13  N   UNL     1       5.418   6.622  16.774  0.00  0.00    +0.000 NA
ATOM     14  N   UNL     1       6.712   7.009  16.510  0.00  0.00    +0.000 NA
ATOM     15  C   UNL     1       7.435   6.716  17.564  0.00  0.00    +0.000 A 
ATOM     16  N   UNL     1       6.654   6.093  18.485  0.00  0.00    +0.000 N 
ATOM     17  H   UNL     1       6.928   5.768  19.401  0.00  0.00    +0.000 HD
ENDROOT
BRANCH   1  18
ATOM     18  S   UNL     1       2.923   7.741  17.910  0.00  0.00    +0.000 S 
BRANCH  18  19
ATOM     19  C   UNL     1       2.145   8.841  19.097  0.00  0.00    +0.000 C 
BRANCH  19  21
ATOM     20  N   UNL     1      -0.189   9.589  18.764  0.00  0.00    +0.000 N 
ATOM     21  C   UNL     1       1.132   9.706  18.329  0.00  0.00    +0.000 C 
ATOM     22  O   UNL     1       1.523  10.407  17.400  0.00  0.00    +0.000 OA
ATOM     23  H   UNL     1      -0.369   8.952  19.532  0.00  0.00    +0.000 HD
BRANCH  20  29
ATOM     24  C   UNL     1      -3.279  10.097  14.895  0.00  0.00    +0.000 C 
ATOM     25  C   UNL     1      -2.852  10.474  16.285  0.00  0.00    +0.000 A 
ATOM     26  C   UNL     1      -3.587  11.426  16.996  0.00  0.00    +0.000 A 
ATOM     27  C   UNL     1      -3.202  11.781  18.285  0.00  0.00    +0.000 A 
ATOM     28  C   UNL     1      -2.086  11.185  18.878  0.00  0.00    +0.000 A 
ATOM     29  C   UNL     1      -1.329  10.224  18.200  0.00  0.00    +0.000 A 
ATOM     30  C   UNL     1      -1.723   9.879  16.891  0.00  0.00    +0.000 A 
ENDBRANCH  20  29
ENDBRANCH  19  21
ENDBRANCH  18  19
ENDBRANCH   1  18
TORSDOF 4
ENDMDL
MODEL 8
REMARK VINA RESULT:      -8.7      7.090     10.276
REMARK  Name = 
REMARK  5 active torsions:
REMARK  status: ('A' for Active; 'I' for Inactive)
REMARK    1  A    between atoms: C_1  and  C_2
REMARK    2  A    between atoms: C_6  and  N_7
REMARK    3  A    between atoms: C_8  and  C_10
REMARK    4  A    between atoms: C_10  and  S_11
REMARK    5  A    between atoms: S_11  and  C_12
REMARK                            x       y       z     vdW  Elec       q    Type
REMARK                         _______ _______ _______ _____ _____    ______ ____
ROOT
ATOM      1  C   UNL     1      -0.641  10.328  18.955  0.00  0.00    +0.000 A 
ATOM      2  N   UNL     1      -0.914   9.891  17.763  0.00  0.00    +0.000 NA
ATOM      3  C   UNL     1      -2.101  10.332  17.147  0.00  0.00    +0.000 A 
ATOM      4  C   UNL     1      -2.398   9.927  15.834  0.00  0.00    +0.000 A 
ATOM      5  C   UNL     1      -3.566  10.362  15.187  0.00  0.00    +0.000 A 
ATOM      6  C   UNL     1      -4.467  11.195  15.847  0.00  0.00    +0.000 A 
ATOM      7  C   UNL     1      -4.195  11.605  17.144  0.00  0.00    +0.000 A 
ATOM      8  C   UNL     1      -3.009  11.185  17.772  0.00  0.00    +0.000 A 
ATOM      9  C   UNL     1      -2.672  11.675  19.115  0.00  0.00    +0.000 A 
ATOM     10  O   UNL     1      -3.452  12.445  19.676  0.00  0.00    +0.000 OA
ATOM     11  N   UNL     1      -1.471  11.217  19.643  0.00  0.00    +0.000 N 
ATOM     12  C   UNL     1      -1.180  11.665  20.930  0.00  0.00    +0.000 A 
ATOM     13  N   UNL     1      -0.699  10.998  21.957  0.00  0.00    +0.000 NA
ATOM     14  N   UNL     1      -0.555  11.870  23.012  0.00  0.00    +0.000 NA
ATOM     15  C   UNL     1      -0.911  13.060  22.593  0.00  0.00    +0.000 A 
ATOM     16  N   UNL     1      -1.341  12.975  21.308  0.00  0.00    +0.000 N 
ATOM     17  H   UNL     1      -1.659  13.728  20.716  0.00  0.00    +0.000 HD
ENDROOT
BRANCH   1  18
ATOM     18  S   UNL     1       0.890   9.900  19.713  0.00  0.00    +0.000 S 
BRANCH  18  19
ATOM     19  C   UNL     1       1.923   9.189  18.428  0.00  0.00    +0.000 C 
BRANCH  19  21
ATOM     20  N   UNL     1       2.539   6.883  17.776  0.00  0.00    +0.000 N 
ATOM     21  C   UNL     1       2.234   7.739  18.836  0.00  0.00    +0.000 C 
ATOM     22  O   UNL     1       2.177   7.422  20.021  0.00  0.00    +0.000 OA
ATOM     23  H   UNL     1       2.526   7.280  16.843  0.00  0.00    +0.000 HD
BRANCH  20  29
ATOM     24  C   UNL     1       0.858   2.293  18.713  0.00  0.00    +0.000 C 
ATOM     25  C   UNL     1       1.972   3.223  18.325  0.00  0.00    +0.000 A 
ATOM     26  C   UNL     1       3.237   2.702  18.042  0.00  0.00    +0.000 A 
ATOM     27  C   UNL     1       4.276   3.554  17.680  0.00  0.00    +0.000 A 
ATOM     28  C   UNL     1       4.060   4.932  17.589  0.00  0.00    +0.000 A 
ATOM     29  C   UNL     1       2.806   5.489  17.858  0.00  0.00    +0.000 A 
ATOM     30  C   UNL     1       1.764   4.618  18.235  0.00  0.00    +0.000 A 
ENDBRANCH  20  29
ENDBRANCH  19  21
ENDBRANCH  18  19
ENDBRANCH   1  18
TORSDOF 4
ENDMDL
MODEL 9
REMARK VINA RESULT:      -8.6      5.144      8.357
REMARK  Name = 
REMARK  5 active torsions:
REMARK  status: ('A' for Active; 'I' for Inactive)
REMARK    1  A    between atoms: C_1  and  C_2
REMARK    2  A    between atoms: C_6  and  N_7
REMARK    3  A    between atoms: C_8  and  C_10
REMARK    4  A    between atoms: C_10  and  S_11
REMARK    5  A    between atoms: S_11  and  C_12
REMARK                            x       y       z     vdW  Elec       q    Type
REMARK                         _______ _______ _______ _____ _____    ______ ____
ROOT
ATOM      1  C   UNL     1       3.462   6.045  18.288  0.00  0.00    +0.000 A 
ATOM      2  N   UNL     1       4.154   6.537  17.306  0.00  0.00    +0.000 NA
ATOM      3  C   UNL     1       4.845   5.643  16.465  0.00  0.00    +0.000 A 
ATOM      4  C   UNL     1       5.556   6.136  15.357  0.00  0.00    +0.000 A 
ATOM      5  C   UNL     1       6.243   5.269  14.491  0.00  0.00    +0.000 A 
ATOM      6  C   UNL     1       6.246   3.896  14.727  0.00  0.00    +0.000 A 
ATOM      7  C   UNL     1       5.554   3.389  15.817  0.00  0.00    +0.000 A 
ATOM      8  C   UNL     1       4.848   4.263  16.662  0.00  0.00    +0.000 A 
ATOM      9  C   UNL     1       4.047   3.731  17.772  0.00  0.00    +0.000 A 
ATOM     10  O   UNL     1       4.020   2.513  17.949  0.00  0.00    +0.000 OA
ATOM     11  N   UNL     1       3.372   4.673  18.538  0.00  0.00    +0.000 N 
ATOM     12  C   UNL     1       2.642   4.156  19.606  0.00  0.00    +0.000 A 
ATOM     13  N   UNL     1       2.547   4.595  20.843  0.00  0.00    +0.000 NA
ATOM     14  N   UNL     1       1.688   3.770  21.533  0.00  0.00    +0.000 NA
ATOM     15  C   UNL     1       1.243   2.869  20.690  0.00  0.00    +0.000 A 
ATOM     16  N   UNL     1       1.838   3.050  19.482  0.00  0.00    +0.000 N 
ATOM     17  H   UNL     1       1.681   2.523  18.636  0.00  0.00    +0.000 HD
ENDROOT
BRANCH   1  18
ATOM     18  S   UNL     1       2.485   7.115  19.289  0.00  0.00    +0.000 S 
BRANCH  18  19
ATOM     19  C   UNL     1       2.271   8.639  18.363  0.00  0.00    +0.000 C 
BRANCH  19  21
ATOM     20  N   UNL     1       0.077   9.621  17.778  0.00  0.00    +0.000 N 
ATOM     21  C   UNL     1       0.943   9.270  18.815  0.00  0.00    +0.000 C 
ATOM     22  O   UNL     1       0.736   9.442  20.012  0.00  0.00    +0.000 OA
ATOM     23  H   UNL     1       0.392   9.439  16.831  0.00  0.00    +0.000 HD
BRANCH  20  29
ATOM     24  C   UNL     1      -2.773  12.912  20.189  0.00  0.00    +0.000 C 
ATOM     25  C   UNL     1      -2.587  11.895  19.099  0.00  0.00    +0.000 A 
ATOM     26  C   UNL     1      -3.644  11.618  18.228  0.00  0.00    +0.000 A 
ATOM     27  C   UNL     1      -3.482  10.680  17.214  0.00  0.00    +0.000 A 
ATOM     28  C   UNL     1      -2.264  10.015  17.055  0.00  0.00    +0.000 A 
ATOM     29  C   UNL     1      -1.181  10.270  17.903  0.00  0.00    +0.000 A 
ATOM     30  C   UNL     1      -1.360  11.215  18.934  0.00  0.00    +0.000 A 
ENDBRANCH  20  29
ENDBRANCH  19  21
ENDBRANCH  18  19
ENDBRANCH   1  18
TORSDOF 4
ENDMDL
