MODEL 1
REMARK VINA RESULT:      -9.0      0.000      0.000
REMARK  Name = 
REMARK  7 active torsions:
REMARK  status: ('A' for Active; 'I' for Inactive)
REMARK    1  A    between atoms: C_1  and  C_2
REMARK    2  A    between atoms: C_2  and  C_3
REMARK    3  A    between atoms: C_2  and  C_4
REMARK    4  A    between atoms: C_6  and  C_7
REMARK    5  A    between atoms: N_9  and  C_10
REMARK    6  A    between atoms: C_13  and  C_14
REMARK    7  A    between atoms: C_14  and  N_15
REMARK                            x       y       z     vdW  Elec       q    Type
REMARK                         _______ _______ _______ _____ _____    ______ ____
ROOT
ATOM      1  C   UNL     1       2.410   7.525  18.700  0.00  0.00    +0.000 C 
ATOM      2  O   UNL     1       2.164   7.540  19.907  0.00  0.00    +0.000 OA
ATOM      3  N   UNL     1       2.005   8.477  17.780  0.00  0.00    +0.000 N 
ATOM      4  H   UNL     1       2.141   8.268  16.798  0.00  0.00    +0.000 HD
ENDROOT
BRANCH   1   7
ATOM      5  C   UNL     1       5.053   5.569  16.964  0.00  0.00    +0.000 A 
ATOM      6  C   UNL     1       4.331   6.601  17.535  0.00  0.00    +0.000 A 
ATOM      7  C   UNL     1       3.119   6.316  18.187  0.00  0.00    +0.000 A 
ATOM      8  C   UNL     1       2.642   4.984  18.248  0.00  0.00    +0.000 A 
ATOM      9  C   UNL     1       1.413   4.558  18.817  0.00  0.00    +0.000 A 
ATOM     10  C   UNL     1       1.051   3.210  18.832  0.00  0.00    +0.000 A 
ATOM     11  C   UNL     1       1.883   2.268  18.248  0.00  0.00    +0.000 A 
ATOM     12  C   UNL     1       3.073   2.679  17.657  0.00  0.00    +0.000 A 
ATOM     13  C   UNL     1       3.470   4.010  17.645  0.00  0.00    +0.000 A 
ATOM     14  N   UNL     1       4.633   4.291  17.042  0.00  0.00    +0.000 NA
BRANCH   5  16
ATOM     15  C   UNL     1       7.274   6.663  17.241  0.00  0.00    +0.000 C 
ATOM     16  C   UNL     1       6.386   5.852  16.297  0.00  0.00    +0.000 C 
ATOM     17  C   UNL     1       7.101   4.574  15.850  0.00  0.00    +0.000 C 
ENDBRANCH   5  16
ENDBRANCH   1   7
BRANCH   3  18
ATOM     18  C   UNL     1       1.273   9.657  18.075  0.00  0.00    +0.000 A 
ATOM     19  C   UNL     1       1.872  10.890  18.350  0.00  0.00    +0.000 A 
ATOM     20  C   UNL     1       1.107  11.998  18.726  0.00  0.00    +0.000 A 
ATOM     21  C   UNL     1      -0.284  11.906  18.827  0.00  0.00    +0.000 A 
ATOM     22  C   UNL     1      -0.895  10.691  18.488  0.00  0.00    +0.000 A 
ATOM     23  C   UNL     1      -0.123   9.577  18.117  0.00  0.00    +0.000 A 
BRANCH  21  24
ATOM     24  C   UNL     1      -1.095  13.069  19.348  0.00  0.00    +0.000 C 
BRANCH  24  25
ATOM     25  N   UNL     1      -1.624  12.896  20.697  0.00  0.00    +0.000 N 
ATOM     26  C   UNL     1      -0.750  12.716  21.759  0.00  0.00    +0.000 A 
ATOM     27  C   UNL     1      -1.194  12.388  22.978  0.00  0.00    +0.000 A 
ATOM     28  C   UNL     1      -2.604  12.205  23.203  0.00  0.00    +0.000 A 
ATOM     29  C   UNL     1      -3.481  12.414  22.215  0.00  0.00    +0.000 A 
ATOM     30  C   UNL     1      -3.007  12.801  20.856  0.00  0.00    +0.000 A 
ATOM     31  O   UNL     1      -3.833  12.972  19.962  0.00  0.00    +0.000 OA
ENDBRANCH  24  25
ENDBRANCH  21  24
ENDBRANCH   3  18
TORSDOF 5
ENDMDL
MODEL 2
REMARK VINA RESULT:      -9.0      0.963      1.300
REMARK  Name = 
REMARK  7 active torsions:
REMARK  status: ('A' for Active; 'I' for Inactive)
REMARK    1  A    between atoms: C_1  and  C_2
REMARK    2  A    between atoms: C_2  and  C_3
REMARK    3  A    between atoms: C_2  and  C_4
REMARK    4  A    between atoms: C_6  and  C_7
REMARK    5  A    between atoms: N_9  and  C_10
REMARK    6  A    between atoms: C_13  and  C_14
REMARK    7  A    between atoms: C_14  and  N_15
REMARK                            x       y       z     vdW  Elec       q    Type
REMARK                         _______ _______ _______ _____ _____    ______ ____
ROOT
ATOM      1  C   UNL     1       2.412   7.413  18.640  0.00  0.00    +0.000 C 
ATOM      2  O   UNL     1       2.282   7.460  19.864  0.00  0.00    +0.000 OA
ATOM      3  N   UNL     1       1.960   8.365  17.742  0.00  0.00    +0.000 N 
ATOM      4  H   UNL     1       1.994   8.133  16.757  0.00  0.00    +0.000 HD
ENDROOT
BRANCH   1   7
ATOM      5  C   UNL     1       4.731   5.323  16.622  0.00  0.00    +0.000 A 
ATOM      6  C   UNL     1       4.117   6.396  17.241  0.00  0.00    +0.000 A 
ATOM      7  C   UNL     1       3.020   6.167  18.089  0.00  0.00    +0.000 A 
ATOM      8  C   UNL     1       2.546   4.849  18.297  0.00  0.00    +0.000 A 
ATOM      9  C   UNL     1       1.417   4.474  19.073  0.00  0.00    +0.000 A 
ATOM     10  C   UNL     1       1.049   3.136  19.217  0.00  0.00    +0.000 A 
ATOM     11  C   UNL     1       1.771   2.149  18.562  0.00  0.00    +0.000 A 
ATOM     12  C   UNL     1       2.858   2.508  17.771  0.00  0.00    +0.000 A 
ATOM     13  C   UNL     1       3.260   3.830  17.625  0.00  0.00    +0.000 A 
ATOM     14  N   UNL     1       4.316   4.058  16.833  0.00  0.00    +0.000 NA
BRANCH   5  16
ATOM     15  C   UNL     1       7.180   5.777  16.611  0.00  0.00    +0.000 C 
ATOM     16  C   UNL     1       5.945   5.546  15.741  0.00  0.00    +0.000 C 
ATOM     17  C   UNL     1       6.182   4.390  14.765  0.00  0.00    +0.000 C 
ENDBRANCH   5  16
ENDBRANCH   1   7
BRANCH   3  18
ATOM     18  C   UNL     1       1.307   9.579  18.078  0.00  0.00    +0.000 A 
ATOM     19  C   UNL     1       1.984  10.772  18.349  0.00  0.00    +0.000 A 
ATOM     20  C   UNL     1       1.297  11.916  18.767  0.00  0.00    +0.000 A 
ATOM     21  C   UNL     1      -0.092  11.900  18.916  0.00  0.00    +0.000 A 
ATOM     22  C   UNL     1      -0.783  10.728  18.583  0.00  0.00    +0.000 A 
ATOM     23  C   UNL     1      -0.089   9.578  18.169  0.00  0.00    +0.000 A 
BRANCH  21  24
ATOM     24  C   UNL     1      -0.817  13.099  19.481  0.00  0.00    +0.000 C 
BRANCH  24  25
ATOM     25  N   UNL     1      -1.666  12.819  20.635  0.00  0.00    +0.000 N 
ATOM     26  C   UNL     1      -3.045  12.876  20.501  0.00  0.00    +0.000 A 
ATOM     27  C   UNL     1      -3.852  12.793  21.567  0.00  0.00    +0.000 A 
ATOM     28  C   UNL     1      -3.289  12.653  22.884  0.00  0.00    +0.000 A 
ATOM     29  C   UNL     1      -1.964  12.550  23.048  0.00  0.00    +0.000 A 
ATOM     30  C   UNL     1      -1.052  12.618  21.872  0.00  0.00    +0.000 A 
ATOM     31  O   UNL     1       0.161  12.536  22.052  0.00  0.00    +0.000 OA
ENDBRANCH  24  25
ENDBRANCH  21  24
ENDBRANCH   3  18
TORSDOF 5
ENDMDL
MODEL 3
REMARK VINA RESULT:      -8.7      0.987      1.195
REMARK  Name = 
REMARK  7 active torsions:
REMARK  status: ('A' for Active; 'I' for Inactive)
REMARK    1  A    between atoms: C_1  and  C_2
REMARK    2  A    between atoms: C_2  and  C_3
REMARK    3  A    between atoms: C_2  and  C_4
REMARK    4  A    between atoms: C_6  and  C_7
REMARK    5  A    between atoms: N_9  and  C_10
REMARK    6  A    between atoms: C_13  and  C_14
REMARK    7  A    between atoms: C_14  and  N_15
REMARK                            x       y       z     vdW  Elec       q    Type
REMARK                         _______ _______ _______ _____ _____    ______ ____
ROOT
ATOM      1  C   UNL     1       2.373   7.452  18.675  0.00  0.00    +0.000 C 
ATOM      2  O   UNL     1       2.130   7.452  19.882  0.00  0.00    +0.000 OA
ATOM      3  N   UNL     1       1.942   8.402  17.764  0.00  0.00    +0.000 N 
ATOM      4  H   UNL     1       2.080   8.203  16.780  0.00  0.00    +0.000 HD
ENDROOT
BRANCH   1   7
ATOM      5  C   UNL     1       5.041   5.574  16.893  0.00  0.00    +0.000 A 
ATOM      6  C   UNL     1       4.298   6.584  17.475  0.00  0.00    +0.000 A 
ATOM      7  C   UNL     1       3.108   6.264  18.150  0.00  0.00    +0.000 A 
ATOM      8  C   UNL     1       2.672   4.919  18.221  0.00  0.00    +0.000 A 
ATOM      9  C   UNL     1       1.467   4.457  18.812  0.00  0.00    +0.000 A 
ATOM     10  C   UNL     1       1.145   3.099  18.834  0.00  0.00    +0.000 A 
ATOM     11  C   UNL     1       1.995   2.181  18.236  0.00  0.00    +0.000 A 
ATOM     12  C   UNL     1       3.161   2.626  17.623  0.00  0.00    +0.000 A 
ATOM     13  C   UNL     1       3.517   3.969  17.603  0.00  0.00    +0.000 A 
ATOM     14  N   UNL     1       4.661   4.284  16.979  0.00  0.00    +0.000 NA
BRANCH   5  16
ATOM     15  C   UNL     1       7.344   6.466  17.215  0.00  0.00    +0.000 C 
ATOM     16  C   UNL     1       6.352   5.895  16.201  0.00  0.00    +0.000 C 
ATOM     17  C   UNL     1       6.952   4.681  15.487  0.00  0.00    +0.000 C 
ENDBRANCH   5  16
ENDBRANCH   1   7
BRANCH   3  18
ATOM     18  C   UNL     1       1.183   9.561  18.070  0.00  0.00    +0.000 A 
ATOM     19  C   UNL     1       1.746  10.748  18.551  0.00  0.00    +0.000 A 
ATOM     20  C   UNL     1       0.942  11.830  18.925  0.00  0.00    +0.000 A 
ATOM     21  C   UNL     1      -0.449  11.757  18.819  0.00  0.00    +0.000 A 
ATOM     22  C   UNL     1      -1.014  10.595  18.277  0.00  0.00    +0.000 A 
ATOM     23  C   UNL     1      -0.205   9.507  17.907  0.00  0.00    +0.000 A 
BRANCH  21  24
ATOM     24  C   UNL     1      -1.318  12.879  19.336  0.00  0.00    +0.000 C 
BRANCH  24  25
ATOM     25  N   UNL     1      -1.157  13.181  20.755  0.00  0.00    +0.000 N 
ATOM     26  C   UNL     1      -1.413  12.196  21.698  0.00  0.00    +0.000 A 
ATOM     27  C   UNL     1      -1.442  12.477  23.007  0.00  0.00    +0.000 A 
ATOM     28  C   UNL     1      -1.215  13.826  23.457  0.00  0.00    +0.000 A 
ATOM     29  C   UNL     1      -0.921  14.793  22.580  0.00  0.00    +0.000 A 
ATOM     30  C   UNL     1      -0.863  14.494  21.121  0.00  0.00    +0.000 A 
ATOM     31  O   UNL     1      -0.606  15.404  20.336  0.00  0.00    +0.000 OA
ENDBRANCH  24  25
ENDBRANCH  21  24
ENDBRANCH   3  18
TORSDOF 5
ENDMDL
MODEL 4
REMARK VINA RESULT:      -8.6      1.582      2.045
REMARK  Name = 
REMARK  7 active torsions:
REMARK  status: ('A' for Active; 'I' for Inactive)
REMARK    1  A    between atoms: C_1  and  C_2
REMARK    2  A    between atoms: C_2  and  C_3
REMARK    3  A    between atoms: C_2  and  C_4
REMARK    4  A    between atoms: C_6  and  C_7
REMARK    5  A    between atoms: N_9  and  C_10
REMARK    6  A    between atoms: C_13  and  C_14
REMARK    7  A    between atoms: C_14  and  N_15
REMARK                            x       y       z     vdW  Elec       q    Type
REMARK                         _______ _______ _______ _____ _____    ______ ____
ROOT
ATOM      1  C   UNL     1       2.594   7.632  18.228  0.00  0.00    +0.000 C 
ATOM      2  O   UNL     1       2.446   8.307  17.209  0.00  0.00    +0.000 OA
ATOM      3  N   UNL     1       2.084   7.935  19.479  0.00  0.00    +0.000 N 
ATOM      4  H   UNL     1       2.406   7.381  20.263  0.00  0.00    +0.000 HD
ENDROOT
BRANCH   1   7
ATOM      5  C   UNL     1       5.780   5.755  17.843  0.00  0.00    +0.000 A 
ATOM      6  C   UNL     1       4.854   6.767  18.016  0.00  0.00    +0.000 A 
ATOM      7  C   UNL     1       3.489   6.444  18.108  0.00  0.00    +0.000 A 
ATOM      8  C   UNL     1       3.071   5.095  18.014  0.00  0.00    +0.000 A 
ATOM      9  C   UNL     1       1.730   4.628  18.028  0.00  0.00    +0.000 A 
ATOM     10  C   UNL     1       1.435   3.267  17.942  0.00  0.00    +0.000 A 
ATOM     11  C   UNL     1       2.465   2.348  17.799  0.00  0.00    +0.000 A 
ATOM     12  C   UNL     1       3.780   2.797  17.749  0.00  0.00    +0.000 A 
ATOM     13  C   UNL     1       4.105   4.144  17.854  0.00  0.00    +0.000 A 
ATOM     14  N   UNL     1       5.405   4.461  17.786  0.00  0.00    +0.000 NA
BRANCH   5  16
ATOM     15  C   UNL     1       7.454   7.541  17.384  0.00  0.00    +0.000 C 
ATOM     16  C   UNL     1       7.261   6.080  17.789  0.00  0.00    +0.000 C 
ATOM     17  C   UNL     1       7.974   5.789  19.113  0.00  0.00    +0.000 C 
ENDBRANCH   5  16
ENDBRANCH   1   7
BRANCH   3  18
ATOM     18  C   UNL     1       1.267   9.052  19.794  0.00  0.00    +0.000 A 
ATOM     19  C   UNL     1       1.226  10.220  19.027  0.00  0.00    +0.000 A 
ATOM     20  C   UNL     1       0.474  11.327  19.434  0.00  0.00    +0.000 A 
ATOM     21  C   UNL     1      -0.268  11.291  20.617  0.00  0.00    +0.000 A 
ATOM     22  C   UNL     1      -0.283  10.100  21.356  0.00  0.00    +0.000 A 
ATOM     23  C   UNL     1       0.479   8.992  20.948  0.00  0.00    +0.000 A 
BRANCH  21  24
ATOM     24  C   UNL     1      -0.981  12.526  21.114  0.00  0.00    +0.000 C 
BRANCH  24  25
ATOM     25  N   UNL     1      -2.438  12.459  21.067  0.00  0.00    +0.000 N 
ATOM     26  C   UNL     1      -3.083  12.433  19.839  0.00  0.00    +0.000 A 
ATOM     27  C   UNL     1      -4.415  12.542  19.750  0.00  0.00    +0.000 A 
ATOM     28  C   UNL     1      -5.204  12.699  20.943  0.00  0.00    +0.000 A 
ATOM     29  C   UNL     1      -4.621  12.683  22.148  0.00  0.00    +0.000 A 
ATOM     30  C   UNL     1      -3.142  12.541  22.268  0.00  0.00    +0.000 A 
ATOM     31  O   UNL     1      -2.631  12.545  23.386  0.00  0.00    +0.000 OA
ENDBRANCH  24  25
ENDBRANCH  21  24
ENDBRANCH   3  18
TORSDOF 5
ENDMDL
MODEL 5
REMARK VINA RESULT:      -8.6      2.127      2.835
REMARK  Name = 
REMARK  7 active torsions:
REMARK  status: ('A' for Active; 'I' for Inactive)
REMARK    1  A    between atoms: C_1  and  C_2
REMARK    2  A    between atoms: C_2  and  C_3
REMARK    3  A    between atoms: C_2  and  C_4
REMARK    4  A    between atoms: C_6  and  C_7
REMARK    5  A    between atoms: N_9  and  C_10
REMARK    6  A    between atoms: C_13  and  C_14
REMARK    7  A    between atoms: C_14  and  N_15
REMARK                            x       y       z     vdW  Elec       q    Type
REMARK                         _______ _______ _______ _____ _____    ______ ____
ROOT
ATOM      1  C   UNL     1       2.485   7.034  18.858  0.00  0.00    +0.000 C 
ATOM      2  O   UNL     1       2.299   7.319  17.675  0.00  0.00    +0.000 OA
ATOM      3  N   UNL     1       2.030   7.762  19.945  0.00  0.00    +0.000 N 
ATOM      4  H   UNL     1       2.382   7.505  20.860  0.00  0.00    +0.000 HD
ENDROOT
BRANCH   1   7
ATOM      5  C   UNL     1       5.512   4.888  18.631  0.00  0.00    +0.000 A 
ATOM      6  C   UNL     1       4.626   5.943  18.507  0.00  0.00    +0.000 A 
ATOM      7  C   UNL     1       3.366   5.859  19.123  0.00  0.00    +0.000 A 
ATOM      8  C   UNL     1       3.008   4.700  19.854  0.00  0.00    +0.000 A 
ATOM      9  C   UNL     1       1.755   4.452  20.474  0.00  0.00    +0.000 A 
ATOM     10  C   UNL     1       1.518   3.273  21.182  0.00  0.00    +0.000 A 
ATOM     11  C   UNL     1       2.506   2.304  21.254  0.00  0.00    +0.000 A 
ATOM     12  C   UNL     1       3.725   2.521  20.621  0.00  0.00    +0.000 A 
ATOM     13  C   UNL     1       3.997   3.693  19.926  0.00  0.00    +0.000 A 
ATOM     14  N   UNL     1       5.203   3.791  19.350  0.00  0.00    +0.000 NA
BRANCH   5  16
ATOM     15  C   UNL     1       6.837   4.535  16.551  0.00  0.00    +0.000 C 
ATOM     16  C   UNL     1       6.894   4.980  18.012  0.00  0.00    +0.000 C 
ATOM     17  C   UNL     1       7.495   6.384  18.125  0.00  0.00    +0.000 C 
ENDBRANCH   5  16
ENDBRANCH   1   7
BRANCH   3  18
ATOM     18  C   UNL     1       1.235   8.935  19.885  0.00  0.00    +0.000 A 
ATOM     19  C   UNL     1       0.286   9.276  20.853  0.00  0.00    +0.000 A 
ATOM     20  C   UNL     1      -0.537  10.396  20.697  0.00  0.00    +0.000 A 
ATOM     21  C   UNL     1      -0.425  11.214  19.570  0.00  0.00    +0.000 A 
ATOM     22  C   UNL     1       0.569  10.915  18.629  0.00  0.00    +0.000 A 
ATOM     23  C   UNL     1       1.390   9.785  18.785  0.00  0.00    +0.000 A 
BRANCH  21  24
ATOM     24  C   UNL     1      -1.394  12.351  19.347  0.00  0.00    +0.000 C 
BRANCH  24  25
ATOM     25  N   UNL     1      -2.667  11.968  18.746  0.00  0.00    +0.000 N 
ATOM     26  C   UNL     1      -2.690  11.454  17.458  0.00  0.00    +0.000 A 
ATOM     27  C   UNL     1      -3.844  11.250  16.810  0.00  0.00    +0.000 A 
ATOM     28  C   UNL     1      -5.093  11.576  17.448  0.00  0.00    +0.000 A 
ATOM     29  C   UNL     1      -5.113  12.030  18.707  0.00  0.00    +0.000 A 
ATOM     30  C   UNL     1      -3.839  12.243  19.451  0.00  0.00    +0.000 A 
ATOM     31  O   UNL     1      -3.885  12.677  20.600  0.00  0.00    +0.000 OA
ENDBRANCH  24  25
ENDBRANCH  21  24
ENDBRANCH   3  18
TORSDOF 5
ENDMDL
MODEL 6
REMARK VINA RESULT:      -8.6      2.119      2.706
REMARK  Name = 
REMARK  7 active torsions:
REMARK  status: ('A' for Active; 'I' for Inactive)
REMARK    1  A    between atoms: C_1  and  C_2
REMARK    2  A    between atoms: C_2  and  C_3
REMARK    3  A    between atoms: C_2  and  C_4
REMARK    4  A    between atoms: C_6  and  C_7
REMARK    5  A    between atoms: N_9  and  C_10
REMARK    6  A    between atoms: C_13  and  C_14
REMARK    7  A    between atoms: C_14  and  N_15
REMARK                            x       y       z     vdW  Elec       q    Type
REMARK                         _______ _______ _______ _____ _____    ______ ____
ROOT
ATOM      1  C   UNL     1       2.093   7.561  19.591  0.00  0.00    +0.000 C 
ATOM      2  O   UNL     1       1.783   8.205  18.589  0.00  0.00    +0.000 OA
ATOM      3  N   UNL     1       1.762   7.887  20.896  0.00  0.00    +0.000 N 
ATOM      4  H   UNL     1       2.208   7.360  21.638  0.00  0.00    +0.000 HD
ENDROOT
BRANCH   1   7
ATOM      5  C   UNL     1       4.846   5.578  18.072  0.00  0.00    +0.000 A 
ATOM      6  C   UNL     1       3.988   6.609  18.407  0.00  0.00    +0.000 A 
ATOM      7  C   UNL     1       2.989   6.388  19.371  0.00  0.00    +0.000 A 
ATOM      8  C   UNL     1       2.860   5.117  19.982  0.00  0.00    +0.000 A 
ATOM      9  C   UNL     1       1.867   4.734  20.921  0.00  0.00    +0.000 A 
ATOM     10  C   UNL     1       1.845   3.451  21.470  0.00  0.00    +0.000 A 
ATOM     11  C   UNL     1       2.786   2.515  21.067  0.00  0.00    +0.000 A 
ATOM     12  C   UNL     1       3.743   2.869  20.122  0.00  0.00    +0.000 A 
ATOM     13  C   UNL     1       3.801   4.144  19.574  0.00  0.00    +0.000 A 
ATOM     14  N   UNL     1       4.761   4.371  18.667  0.00  0.00    +0.000 NA
BRANCH   5  16
ATOM     15  C   UNL     1       5.382   5.841  15.654  0.00  0.00    +0.000 C 
ATOM     16  C   UNL     1       5.959   5.811  17.068  0.00  0.00    +0.000 C 
ATOM     17  C   UNL     1       6.748   7.092  17.355  0.00  0.00    +0.000 C 
ENDBRANCH   5  16
ENDBRANCH   1   7
BRANCH   3  18
ATOM     18  C   UNL     1       0.974   8.995  21.300  0.00  0.00    +0.000 A 
ATOM     19  C   UNL     1       1.103  10.276  20.755  0.00  0.00    +0.000 A 
ATOM     20  C   UNL     1       0.366  11.354  21.255  0.00  0.00    +0.000 A 
ATOM     21  C   UNL     1      -0.532  11.176  22.311  0.00  0.00    +0.000 A 
ATOM     22  C   UNL     1      -0.715   9.883  22.817  0.00  0.00    +0.000 A 
ATOM     23  C   UNL     1       0.032   8.803  22.317  0.00  0.00    +0.000 A 
BRANCH  21  24
ATOM     24  C   UNL     1      -1.237  12.362  22.927  0.00  0.00    +0.000 C 
BRANCH  24  25
ATOM     25  N   UNL     1      -2.541  12.672  22.351  0.00  0.00    +0.000 N 
ATOM     26  C   UNL     1      -2.613  13.297  21.114  0.00  0.00    +0.000 A 
ATOM     27  C   UNL     1      -3.777  13.750  20.630  0.00  0.00    +0.000 A 
ATOM     28  C   UNL     1      -4.983  13.600  21.402  0.00  0.00    +0.000 A 
ATOM     29  C   UNL     1      -4.960  12.963  22.579  0.00  0.00    +0.000 A 
ATOM     30  C   UNL     1      -3.678  12.433  23.124  0.00  0.00    +0.000 A 
ATOM     31  O   UNL     1      -3.682  11.865  24.214  0.00  0.00    +0.000 OA
ENDBRANCH  24  25
ENDBRANCH  21  24
ENDBRANCH   3  18
TORSDOF 5
ENDMDL
MODEL 7
REMARK VINA RESULT:      -8.5      0.919      3.094
REMARK  Name = 
REMARK  7 active torsions:
REMARK  status: ('A' for Active; 'I' for Inactive)
REMARK    1  A    between atoms: C_1  and  C_2
REMARK    2  A    between atoms: C_2  and  C_3
REMARK    3  A    between atoms: C_2  and  C_4
REMARK    4  A    between atoms: C_6  and  C_7
REMARK    5  A    between atoms: N_9  and  C_10
REMARK    6  A    between atoms: C_13  and  C_14
REMARK    7  A    between atoms: C_14  and  N_15
REMARK                            x       y       z     vdW  Elec       q    Type
REMARK                         _______ _______ _______ _____ _____    ______ ____
ROOT
ATOM      1  C   UNL     1       2.227   7.443  18.885  0.00  0.00    +0.000 C 
ATOM      2  O   UNL     1       2.189   7.639  20.100  0.00  0.00    +0.000 OA
ATOM      3  N   UNL     1       1.744   8.302  17.912  0.00  0.00    +0.000 N 
ATOM      4  H   UNL     1       1.697   7.954  16.961  0.00  0.00    +0.000 HD
ENDROOT
BRANCH   1   7
ATOM      5  C   UNL     1       2.604   3.744  18.840  0.00  0.00    +0.000 A 
ATOM      6  C   UNL     1       2.164   5.026  19.117  0.00  0.00    +0.000 A 
ATOM      7  C   UNL     1       2.747   6.114  18.447  0.00  0.00    +0.000 A 
ATOM      8  C   UNL     1       3.783   5.897  17.506  0.00  0.00    +0.000 A 
ATOM      9  C   UNL     1       4.502   6.899  16.802  0.00  0.00    +0.000 A 
ATOM     10  C   UNL     1       5.499   6.565  15.884  0.00  0.00    +0.000 A 
ATOM     11  C   UNL     1       5.826   5.233  15.677  0.00  0.00    +0.000 A 
ATOM     12  C   UNL     1       5.151   4.245  16.387  0.00  0.00    +0.000 A 
ATOM     13  C   UNL     1       4.141   4.546  17.292  0.00  0.00    +0.000 A 
ATOM     14  N   UNL     1       3.564   3.514  17.923  0.00  0.00    +0.000 NA
BRANCH   5  16
ATOM     15  C   UNL     1       1.754   2.852  21.004  0.00  0.00    +0.000 C 
ATOM     16  C   UNL     1       1.954   2.554  19.519  0.00  0.00    +0.000 C 
ATOM     17  C   UNL     1       0.626   2.159  18.865  0.00  0.00    +0.000 C 
ENDBRANCH   5  16
ENDBRANCH   1   7
BRANCH   3  18
ATOM     18  C   UNL     1       1.162   9.575  18.144  0.00  0.00    +0.000 A 
ATOM     19  C   UNL     1       1.905  10.725  18.425  0.00  0.00    +0.000 A 
ATOM     20  C   UNL     1       1.276  11.935  18.738  0.00  0.00    +0.000 A 
ATOM     21  C   UNL     1      -0.117  12.029  18.768  0.00  0.00    +0.000 A 
ATOM     22  C   UNL     1      -0.867  10.897  18.423  0.00  0.00    +0.000 A 
ATOM     23  C   UNL     1      -0.233   9.681  18.115  0.00  0.00    +0.000 A 
BRANCH  21  24
ATOM     24  C   UNL     1      -0.791  13.302  19.223  0.00  0.00    +0.000 C 
BRANCH  24  25
ATOM     25  N   UNL     1      -1.349  13.258  20.571  0.00  0.00    +0.000 N 
ATOM     26  C   UNL     1      -0.519  13.464  21.663  0.00  0.00    +0.000 A 
ATOM     27  C   UNL     1      -0.954  13.265  22.914  0.00  0.00    +0.000 A 
ATOM     28  C   UNL     1      -2.303  12.819  23.143  0.00  0.00    +0.000 A 
ATOM     29  C   UNL     1      -3.146  12.653  22.117  0.00  0.00    +0.000 A 
ATOM     30  C   UNL     1      -2.687  12.890  20.719  0.00  0.00    +0.000 A 
ATOM     31  O   UNL     1      -3.476  12.715  19.794  0.00  0.00    +0.000 OA
ENDBRANCH  24  25
ENDBRANCH  21  24
ENDBRANCH   3  18
TORSDOF 5
ENDMDL
MODEL 8
REMARK VINA RESULT:      -8.5      1.643      2.086
REMARK  Name = 
REMARK  7 active torsions:
REMARK  status: ('A' for Active; 'I' for Inactive)
REMARK    1  A    between atoms: C_1  and  C_2
REMARK    2  A    between atoms: C_2  and  C_3
REMARK    3  A    between atoms: C_2  and  C_4
REMARK    4  A    between atoms: C_6  and  C_7
REMARK    5  A    between atoms: N_9  and  C_10
REMARK    6  A    between atoms: C_13  and  C_14
REMARK    7  A    between atoms: C_14  and  N_15
REMARK                            x       y       z     vdW  Elec       q    Type
REMARK                         _______ _______ _______ _____ _____    ______ ____
ROOT
ATOM      1  C   UNL     1       2.159   7.474  18.542  0.00  0.00    +0.000 C 
ATOM      2  O   UNL     1       1.824   8.216  17.619  0.00  0.00    +0.000 OA
ATOM      3  N   UNL     1       1.879   7.675  19.883  0.00  0.00    +0.000 N 
ATOM      4  H   UNL     1       2.342   7.073  20.554  0.00  0.00    +0.000 HD
ENDROOT
BRANCH   1   7
ATOM      5  C   UNL     1       5.129   5.706  17.170  0.00  0.00    +0.000 A 
ATOM      6  C   UNL     1       4.258   6.689  17.605  0.00  0.00    +0.000 A 
ATOM      7  C   UNL     1       3.029   6.318  18.176  0.00  0.00    +0.000 A 
ATOM      8  C   UNL     1       2.686   4.949  18.295  0.00  0.00    +0.000 A 
ATOM      9  C   UNL     1       1.461   4.430  18.792  0.00  0.00    +0.000 A 
ATOM     10  C   UNL     1       1.238   3.055  18.876  0.00  0.00    +0.000 A 
ATOM     11  C   UNL     1       2.210   2.172  18.430  0.00  0.00    +0.000 A 
ATOM     12  C   UNL     1       3.399   2.670  17.909  0.00  0.00    +0.000 A 
ATOM     13  C   UNL     1       3.658   4.033  17.832  0.00  0.00    +0.000 A 
ATOM     14  N   UNL     1       4.835   4.398  17.306  0.00  0.00    +0.000 NA
BRANCH   5  16
ATOM     15  C   UNL     1       7.390   6.600  17.708  0.00  0.00    +0.000 C 
ATOM     16  C   UNL     1       6.479   6.087  16.594  0.00  0.00    +0.000 C 
ATOM     17  C   UNL     1       7.144   4.929  15.844  0.00  0.00    +0.000 C 
ENDBRANCH   5  16
ENDBRANCH   1   7
BRANCH   3  18
ATOM     18  C   UNL     1       1.121   8.747  20.421  0.00  0.00    +0.000 A 
ATOM     19  C   UNL     1       1.208  10.063  19.958  0.00  0.00    +0.000 A 
ATOM     20  C   UNL     1       0.509  11.099  20.586  0.00  0.00    +0.000 A 
ATOM     21  C   UNL     1      -0.306  10.843  21.691  0.00  0.00    +0.000 A 
ATOM     22  C   UNL     1      -0.448   9.517  22.120  0.00  0.00    +0.000 A 
ATOM     23  C   UNL     1       0.260   8.479  21.491  0.00  0.00    +0.000 A 
BRANCH  21  24
ATOM     24  C   UNL     1      -0.964  11.979  22.439  0.00  0.00    +0.000 C 
BRANCH  24  25
ATOM     25  N   UNL     1      -2.313  12.312  21.994  0.00  0.00    +0.000 N 
ATOM     26  C   UNL     1      -2.529  12.673  20.672  0.00  0.00    +0.000 A 
ATOM     27  C   UNL     1      -3.714  13.146  20.265  0.00  0.00    +0.000 A 
ATOM     28  C   UNL     1      -4.790  13.299  21.209  0.00  0.00    +0.000 A 
ATOM     29  C   UNL     1      -4.632  12.919  22.483  0.00  0.00    +0.000 A 
ATOM     30  C   UNL     1      -3.328  12.369  22.950  0.00  0.00    +0.000 A 
ATOM     31  O   UNL     1      -3.206  12.043  24.128  0.00  0.00    +0.000 OA
ENDBRANCH  24  25
ENDBRANCH  21  24
ENDBRANCH   3  18
TORSDOF 5
ENDMDL
MODEL 9
REMARK VINA RESULT:      -8.5      1.423      3.394
REMARK  Name = 
REMARK  7 active torsions:
REMARK  status: ('A' for Active; 'I' for Inactive)
REMARK    1  A    between atoms: C_1  and  C_2
REMARK    2  A    between atoms: C_2  and  C_3
REMARK    3  A    between atoms: C_2  and  C_4
REMARK    4  A    between atoms: C_6  and  C_7
REMARK    5  A    between atoms: N_9  and  C_10
REMARK    6  A    between atoms: C_13  and  C_14
REMARK    7  A    between atoms: C_14  and  N_15
REMARK                            x       y       z     vdW  Elec       q    Type
REMARK                         _______ _______ _______ _____ _____    ______ ____
ROOT
ATOM      1  C   UNL     1       2.321   7.460  18.882  0.00  0.00    +0.000 C 
ATOM      2  O   UNL     1       2.230   7.634  20.098  0.00  0.00    +0.000 OA
ATOM      3  N   UNL     1       1.942   8.366  17.905  0.00  0.00    +0.000 N 
ATOM      4  H   UNL     1       1.926   8.040  16.946  0.00  0.00    +0.000 HD
ENDROOT
BRANCH   1   7
ATOM      5  C   UNL     1       2.563   3.751  18.847  0.00  0.00    +0.000 A 
ATOM      6  C   UNL     1       2.174   5.048  19.125  0.00  0.00    +0.000 A 
ATOM      7  C   UNL     1       2.787   6.112  18.442  0.00  0.00    +0.000 A 
ATOM      8  C   UNL     1       3.799   5.854  17.486  0.00  0.00    +0.000 A 
ATOM      9  C   UNL     1       4.543   6.826  16.767  0.00  0.00    +0.000 A 
ATOM     10  C   UNL     1       5.513   6.453  15.836  0.00  0.00    +0.000 A 
ATOM     11  C   UNL     1       5.788   5.109  15.630  0.00  0.00    +0.000 A 
ATOM     12  C   UNL     1       5.088   4.149  16.353  0.00  0.00    +0.000 A 
ATOM     13  C   UNL     1       4.104   4.490  17.272  0.00  0.00    +0.000 A 
ATOM     14  N   UNL     1       3.500   3.482  17.917  0.00  0.00    +0.000 NA
BRANCH   5  16
ATOM     15  C   UNL     1       1.625   2.938  21.007  0.00  0.00    +0.000 C 
ATOM     16  C   UNL     1       1.881   2.587  19.541  0.00  0.00    +0.000 C 
ATOM     17  C   UNL     1       0.577   2.176  18.851  0.00  0.00    +0.000 C 
ENDBRANCH   5  16
ENDBRANCH   1   7
BRANCH   3  18
ATOM     18  C   UNL     1       1.424   9.666  18.135  0.00  0.00    +0.000 A 
ATOM     19  C   UNL     1       2.219  10.814  18.210  0.00  0.00    +0.000 A 
ATOM     20  C   UNL     1       1.667  12.058  18.532  0.00  0.00    +0.000 A 
ATOM     21  C   UNL     1       0.298  12.189  18.778  0.00  0.00    +0.000 A 
ATOM     22  C   UNL     1      -0.514  11.056  18.641  0.00  0.00    +0.000 A 
ATOM     23  C   UNL     1       0.044   9.806  18.323  0.00  0.00    +0.000 A 
BRANCH  21  24
ATOM     24  C   UNL     1      -0.275  13.508  19.242  0.00  0.00    +0.000 C 
BRANCH  24  25
ATOM     25  N   UNL     1      -0.970  13.461  20.525  0.00  0.00    +0.000 N 
ATOM     26  C   UNL     1      -2.357  13.473  20.552  0.00  0.00    +0.000 A 
ATOM     27  C   UNL     1      -3.029  13.602  21.703  0.00  0.00    +0.000 A 
ATOM     28  C   UNL     1      -2.310  13.743  22.943  0.00  0.00    +0.000 A 
ATOM     29  C   UNL     1      -0.973  13.691  22.960  0.00  0.00    +0.000 A 
ATOM     30  C   UNL     1      -0.208  13.526  21.691  0.00  0.00    +0.000 A 
ATOM     31  O   UNL     1       1.020  13.498  21.734  0.00  0.00    +0.000 OA
ENDBRANCH  24  25
ENDBRANCH  21  24
ENDBRANCH   3  18
TORSDOF 5
ENDMDL
