MODEL 1
REMARK VINA RESULT:      -8.0      0.000      0.000
REMARK  Name = 
REMARK  6 active torsions:
REMARK  status: ('A' for Active; 'I' for Inactive)
REMARK    1  A    between atoms: C_1  and  C_2
REMARK    2  A    between atoms: C_4  and  C_5
REMARK    3  A    between atoms: C_7  and  N_8
REMARK    4  A    between atoms: C_10  and  C_11
REMARK    5  A    between atoms: C_20  and  C_21
REMARK    6  A    between atoms: C_27  and  C_28
REMARK                            x       y       z     vdW  Elec       q    Type
REMARK                         _______ _______ _______ _____ _____    ______ ____
ROOT
ATOM      1  C   UNL     1       0.143  10.007  22.344  0.00  0.00    +0.000 C 
ATOM      2  O   UNL     1       0.444   9.767  23.519  0.00  0.00    +0.000 OA
ATOM      3  N   UNL     1      -0.796  11.044  22.078  0.00  0.00    +0.000 N 
ATOM      4  C   UNL     1      -1.366  11.308  20.755  0.00  0.00    +0.000 C 
ATOM      5  C   UNL     1      -2.215  12.590  20.601  0.00  0.00    +0.000 C 
ATOM      6  N   UNL     1      -2.772  13.099  21.828  0.00  0.00    +0.000 N 
ATOM      7  C   UNL     1      -2.465  12.587  23.054  0.00  0.00    +0.000 A 
ATOM      8  N   UNL     1      -3.118  13.261  23.975  0.00  0.00    +0.000 NA
ATOM      9  N   UNL     1      -3.836  14.244  23.349  0.00  0.00    +0.000 NA
ATOM     10  C   UNL     1      -3.616  14.163  22.049  0.00  0.00    +0.000 A 
ATOM     11  C   UNL     1      -1.561  11.436  23.267  0.00  0.00    +0.000 C 
ENDROOT
BRANCH   1  14
ATOM     12  N   UNL     1       1.696   7.554  20.186  0.00  0.00    +0.000 N 
ATOM     13  N   UNL     1       1.040   7.852  21.352  0.00  0.00    +0.000 NA
ATOM     14  C   UNL     1       0.751   9.159  21.277  0.00  0.00    +0.000 A 
ATOM     15  C   UNL     1       1.110   9.663  19.992  0.00  0.00    +0.000 A 
ATOM     16  C   UNL     1       1.653   8.612  19.293  0.00  0.00    +0.000 A 
ATOM     17  C   UNL     1       2.017   8.532  17.852  0.00  0.00    +0.000 C 
BRANCH  12  24
ATOM     18  C   UNL     1       5.464   4.734  18.537  0.00  0.00    +0.000 C 
ATOM     19  C   UNL     1       4.115   4.872  19.181  0.00  0.00    +0.000 A 
ATOM     20  C   UNL     1       3.427   3.742  19.633  0.00  0.00    +0.000 A 
ATOM     21  C   UNL     1       2.192   3.864  20.285  0.00  0.00    +0.000 A 
ATOM     22  C   UNL     1       1.457   2.641  20.746  0.00  0.00    +0.000 C 
ATOM     23  C   UNL     1       1.645   5.139  20.496  0.00  0.00    +0.000 A 
ATOM     24  C   UNL     1       2.299   6.276  20.008  0.00  0.00    +0.000 A 
ATOM     25  C   UNL     1       3.538   6.139  19.362  0.00  0.00    +0.000 A 
ENDBRANCH  12  24
ENDBRANCH   1  14
BRANCH  10  26
ATOM     26  C   UNL     1      -4.175  15.075  21.018  0.00  0.00    +0.000 C 
ATOM     27  F   UNL     1      -4.996  16.024  21.544  0.00  0.00    +0.000 F 
ATOM     28  F   UNL     1      -3.205  15.744  20.342  0.00  0.00    +0.000 F 
ATOM     29  F   UNL     1      -4.912  14.409  20.090  0.00  0.00    +0.000 F 
ENDBRANCH  10  26
TORSDOF 3
ENDMDL
MODEL 2
REMARK VINA RESULT:      -7.9      5.932     10.161
REMARK  Name = 
REMARK  6 active torsions:
REMARK  status: ('A' for Active; 'I' for Inactive)
REMARK    1  A    between atoms: C_1  and  C_2
REMARK    2  A    between atoms: C_4  and  C_5
REMARK    3  A    between atoms: C_7  and  N_8
REMARK    4  A    between atoms: C_10  and  C_11
REMARK    5  A    between atoms: C_20  and  C_21
REMARK    6  A    between atoms: C_27  and  C_28
REMARK                            x       y       z     vdW  Elec       q    Type
REMARK                         _______ _______ _______ _____ _____    ______ ____
ROOT
ATOM      1  C   UNL     1       2.440   8.805  18.076  0.00  0.00    +0.000 C 
ATOM      2  O   UNL     1       3.286   9.450  17.448  0.00  0.00    +0.000 OA
ATOM      3  N   UNL     1       2.725   7.451  18.414  0.00  0.00    +0.000 N 
ATOM      4  C   UNL     1       1.745   6.533  18.998  0.00  0.00    +0.000 C 
ATOM      5  C   UNL     1       2.272   5.164  19.486  0.00  0.00    +0.000 C 
ATOM      6  N   UNL     1       3.505   4.737  18.876  0.00  0.00    +0.000 N 
ATOM      7  C   UNL     1       4.238   5.530  18.043  0.00  0.00    +0.000 A 
ATOM      8  N   UNL     1       5.307   4.870  17.655  0.00  0.00    +0.000 NA
ATOM      9  N   UNL     1       5.291   3.645  18.266  0.00  0.00    +0.000 NA
ATOM     10  C   UNL     1       4.212   3.565  19.022  0.00  0.00    +0.000 A 
ATOM     11  C   UNL     1       3.840   6.896  17.639  0.00  0.00    +0.000 C 
ENDROOT
BRANCH   1  14
ATOM     12  N   UNL     1      -0.846  10.299  18.312  0.00  0.00    +0.000 N 
ATOM     13  N   UNL     1       0.014   9.433  17.687  0.00  0.00    +0.000 NA
ATOM     14  C   UNL     1       1.147   9.475  18.402  0.00  0.00    +0.000 A 
ATOM     15  C   UNL     1       0.957  10.274  19.569  0.00  0.00    +0.000 A 
ATOM     16  C   UNL     1      -0.337  10.738  19.523  0.00  0.00    +0.000 A 
ATOM     17  C   UNL     1      -1.114  11.453  20.571  0.00  0.00    +0.000 C 
BRANCH  12  24
ATOM     18  C   UNL     1      -5.401  12.307  18.617  0.00  0.00    +0.000 C 
ATOM     19  C   UNL     1      -4.341  11.573  17.848  0.00  0.00    +0.000 A 
ATOM     20  C   UNL     1      -4.559  11.208  16.515  0.00  0.00    +0.000 A 
ATOM     21  C   UNL     1      -3.555  10.571  15.771  0.00  0.00    +0.000 A 
ATOM     22  C   UNL     1      -3.811  10.168  14.349  0.00  0.00    +0.000 C 
ATOM     23  C   UNL     1      -2.313  10.308  16.368  0.00  0.00    +0.000 A 
ATOM     24  C   UNL     1      -2.096  10.626  17.714  0.00  0.00    +0.000 A 
ATOM     25  C   UNL     1      -3.109  11.268  18.445  0.00  0.00    +0.000 A 
ENDBRANCH  12  24
ENDBRANCH   1  14
BRANCH  10  26
ATOM     26  C   UNL     1       3.842   2.413  19.884  0.00  0.00    +0.000 C 
ATOM     27  F   UNL     1       2.816   1.680  19.372  0.00  0.00    +0.000 F 
ATOM     28  F   UNL     1       4.876   1.549  20.060  0.00  0.00    +0.000 F 
ATOM     29  F   UNL     1       3.445   2.806  21.123  0.00  0.00    +0.000 F 
ENDBRANCH  10  26
TORSDOF 3
ENDMDL
MODEL 3
REMARK VINA RESULT:      -7.9      4.893      9.611
REMARK  Name = 
REMARK  6 active torsions:
REMARK  status: ('A' for Active; 'I' for Inactive)
REMARK    1  A    between atoms: C_1  and  C_2
REMARK    2  A    between atoms: C_4  and  C_5
REMARK    3  A    between atoms: C_7  and  N_8
REMARK    4  A    between atoms: C_10  and  C_11
REMARK    5  A    between atoms: C_20  and  C_21
REMARK    6  A    between atoms: C_27  and  C_28
REMARK                            x       y       z     vdW  Elec       q    Type
REMARK                         _______ _______ _______ _____ _____    ______ ____
ROOT
ATOM      1  C   UNL     1       1.671   9.808  18.789  0.00  0.00    +0.000 C 
ATOM      2  O   UNL     1       2.145  10.157  17.702  0.00  0.00    +0.000 OA
ATOM      3  N   UNL     1       1.823   8.452  19.197  0.00  0.00    +0.000 N 
ATOM      4  C   UNL     1       1.161   7.875  20.369  0.00  0.00    +0.000 C 
ATOM      5  C   UNL     1       1.588   6.448  20.782  0.00  0.00    +0.000 C 
ATOM      6  N   UNL     1       2.177   5.663  19.728  0.00  0.00    +0.000 N 
ATOM      7  C   UNL     1       2.476   6.171  18.498  0.00  0.00    +0.000 A 
ATOM      8  N   UNL     1       3.007   5.221  17.761  0.00  0.00    +0.000 NA
ATOM      9  N   UNL     1       3.087   4.088  18.524  0.00  0.00    +0.000 NA
ATOM     10  C   UNL     1       2.603   4.354  19.724  0.00  0.00    +0.000 A 
ATOM     11  C   UNL     1       2.200   7.566  18.090  0.00  0.00    +0.000 C 
ENDROOT
BRANCH   1  14
ATOM     12  N   UNL     1      -0.609  11.943  20.614  0.00  0.00    +0.000 N 
ATOM     13  N   UNL     1      -0.321  10.719  20.069  0.00  0.00    +0.000 NA
ATOM     14  C   UNL     1       0.927  10.825  19.588  0.00  0.00    +0.000 A 
ATOM     15  C   UNL     1       1.482  12.088  19.952  0.00  0.00    +0.000 A 
ATOM     16  C   UNL     1       0.510  12.758  20.657  0.00  0.00    +0.000 A 
ATOM     17  C   UNL     1       0.617  14.027  21.427  0.00  0.00    +0.000 C 
BRANCH  12  24
ATOM     18  C   UNL     1      -3.874  12.528  24.338  0.00  0.00    +0.000 C 
ATOM     19  C   UNL     1      -3.550  12.493  22.872  0.00  0.00    +0.000 A 
ATOM     20  C   UNL     1      -4.540  12.762  21.922  0.00  0.00    +0.000 A 
ATOM     21  C   UNL     1      -4.236  12.786  20.553  0.00  0.00    +0.000 A 
ATOM     22  C   UNL     1      -5.313  13.056  19.545  0.00  0.00    +0.000 C 
ATOM     23  C   UNL     1      -2.919  12.549  20.134  0.00  0.00    +0.000 A 
ATOM     24  C   UNL     1      -1.926  12.233  21.070  0.00  0.00    +0.000 A 
ATOM     25  C   UNL     1      -2.245  12.218  22.438  0.00  0.00    +0.000 A 
ENDBRANCH  12  24
ENDBRANCH   1  14
BRANCH  10  26
ATOM     26  C   UNL     1       2.545   3.404  20.865  0.00  0.00    +0.000 C 
ATOM     27  F   UNL     1       1.431   2.623  20.844  0.00  0.00    +0.000 F 
ATOM     28  F   UNL     1       3.605   2.553  20.879  0.00  0.00    +0.000 F 
ATOM     29  F   UNL     1       2.539   4.042  22.064  0.00  0.00    +0.000 F 
ENDBRANCH  10  26
TORSDOF 3
ENDMDL
MODEL 4
REMARK VINA RESULT:      -7.9      0.075      1.743
REMARK  Name = 
REMARK  6 active torsions:
REMARK  status: ('A' for Active; 'I' for Inactive)
REMARK    1  A    between atoms: C_1  and  C_2
REMARK    2  A    between atoms: C_4  and  C_5
REMARK    3  A    between atoms: C_7  and  N_8
REMARK    4  A    between atoms: C_10  and  C_11
REMARK    5  A    between atoms: C_20  and  C_21
REMARK    6  A    between atoms: C_27  and  C_28
REMARK                            x       y       z     vdW  Elec       q    Type
REMARK                         _______ _______ _______ _____ _____    ______ ____
ROOT
ATOM      1  C   UNL     1       0.106  10.053  22.332  0.00  0.00    +0.000 C 
ATOM      2  O   UNL     1       0.411   9.821  23.507  0.00  0.00    +0.000 OA
ATOM      3  N   UNL     1      -0.840  11.083  22.062  0.00  0.00    +0.000 N 
ATOM      4  C   UNL     1      -1.413  11.335  20.738  0.00  0.00    +0.000 C 
ATOM      5  C   UNL     1      -2.271  12.612  20.579  0.00  0.00    +0.000 C 
ATOM      6  N   UNL     1      -2.829  13.123  21.805  0.00  0.00    +0.000 N 
ATOM      7  C   UNL     1      -2.516  12.620  23.033  0.00  0.00    +0.000 A 
ATOM      8  N   UNL     1      -3.173  13.295  23.951  0.00  0.00    +0.000 NA
ATOM      9  N   UNL     1      -3.898  14.270  23.321  0.00  0.00    +0.000 NA
ATOM     10  C   UNL     1      -3.679  14.183  22.022  0.00  0.00    +0.000 A 
ATOM     11  C   UNL     1      -1.605  11.476  23.251  0.00  0.00    +0.000 C 
ENDROOT
BRANCH   1  14
ATOM     12  N   UNL     1       1.661   7.594  20.183  0.00  0.00    +0.000 N 
ATOM     13  N   UNL     1       0.996   7.893  21.343  0.00  0.00    +0.000 NA
ATOM     14  C   UNL     1       0.718   9.203  21.269  0.00  0.00    +0.000 A 
ATOM     15  C   UNL     1       1.093   9.708  19.988  0.00  0.00    +0.000 A 
ATOM     16  C   UNL     1       1.635   8.654  19.292  0.00  0.00    +0.000 A 
ATOM     17  C   UNL     1       2.012   8.575  17.854  0.00  0.00    +0.000 C 
BRANCH  12  24
ATOM     18  C   UNL     1       1.528   2.642  20.761  0.00  0.00    +0.000 C 
ATOM     19  C   UNL     1       2.228   3.890  20.306  0.00  0.00    +0.000 A 
ATOM     20  C   UNL     1       3.478   3.814  19.683  0.00  0.00    +0.000 A 
ATOM     21  C   UNL     1       4.115   4.968  19.206  0.00  0.00    +0.000 A 
ATOM     22  C   UNL     1       5.465   4.872  18.558  0.00  0.00    +0.000 C 
ATOM     23  C   UNL     1       3.485   6.213  19.344  0.00  0.00    +0.000 A 
ATOM     24  C   UNL     1       2.255   6.312  20.006  0.00  0.00    +0.000 A 
ATOM     25  C   UNL     1       1.626   5.146  20.475  0.00  0.00    +0.000 A 
ENDBRANCH  12  24
ENDBRANCH   1  14
BRANCH  10  26
ATOM     26  C   UNL     1      -4.246  15.086  20.986  0.00  0.00    +0.000 C 
ATOM     27  F   UNL     1      -3.294  15.815  20.345  0.00  0.00    +0.000 F 
ATOM     28  F   UNL     1      -4.917  14.404  20.021  0.00  0.00    +0.000 F 
ATOM     29  F   UNL     1      -5.121  15.983  21.512  0.00  0.00    +0.000 F 
ENDBRANCH  10  26
TORSDOF 3
ENDMDL
MODEL 5
REMARK VINA RESULT:      -7.9      4.815      9.561
REMARK  Name = 
REMARK  6 active torsions:
REMARK  status: ('A' for Active; 'I' for Inactive)
REMARK    1  A    between atoms: C_1  and  C_2
REMARK    2  A    between atoms: C_4  and  C_5
REMARK    3  A    between atoms: C_7  and  N_8
REMARK    4  A    between atoms: C_10  and  C_11
REMARK    5  A    between atoms: C_20  and  C_21
REMARK    6  A    between atoms: C_27  and  C_28
REMARK                            x       y       z     vdW  Elec       q    Type
REMARK                         _______ _______ _______ _____ _____    ______ ____
ROOT
ATOM      1  C   UNL     1       1.614  10.055  19.028  0.00  0.00    +0.000 C 
ATOM      2  O   UNL     1       2.129  10.460  17.980  0.00  0.00    +0.000 OA
ATOM      3  N   UNL     1       1.762   8.682  19.376  0.00  0.00    +0.000 N 
ATOM      4  C   UNL     1       1.059   8.044  20.491  0.00  0.00    +0.000 C 
ATOM      5  C   UNL     1       1.482   6.602  20.852  0.00  0.00    +0.000 C 
ATOM      6  N   UNL     1       2.121   5.873  19.786  0.00  0.00    +0.000 N 
ATOM      7  C   UNL     1       2.465   6.443  18.596  0.00  0.00    +0.000 A 
ATOM      8  N   UNL     1       3.034   5.534  17.835  0.00  0.00    +0.000 NA
ATOM      9  N   UNL     1       3.094   4.366  18.546  0.00  0.00    +0.000 NA
ATOM     10  C   UNL     1       2.559   4.569  19.736  0.00  0.00    +0.000 A 
ATOM     11  C   UNL     1       2.192   7.853  18.244  0.00  0.00    +0.000 C 
ENDROOT
BRANCH   1  14
ATOM     12  N   UNL     1      -0.759  12.085  20.853  0.00  0.00    +0.000 N 
ATOM     13  N   UNL     1      -0.440  10.893  20.257  0.00  0.00    +0.000 NA
ATOM     14  C   UNL     1       0.828  11.027  19.844  0.00  0.00    +0.000 A 
ATOM     15  C   UNL     1       1.361  12.268  20.303  0.00  0.00    +0.000 A 
ATOM     16  C   UNL     1       0.353  12.898  20.995  0.00  0.00    +0.000 A 
ATOM     17  C   UNL     1       0.419  14.123  21.838  0.00  0.00    +0.000 C 
BRANCH  12  24
ATOM     18  C   UNL     1      -5.464  13.301  19.734  0.00  0.00    +0.000 C 
ATOM     19  C   UNL     1      -4.399  12.975  20.741  0.00  0.00    +0.000 A 
ATOM     20  C   UNL     1      -4.709  12.909  22.103  0.00  0.00    +0.000 A 
ATOM     21  C   UNL     1      -3.734  12.551  23.045  0.00  0.00    +0.000 A 
ATOM     22  C   UNL     1      -4.076  12.504  24.505  0.00  0.00    +0.000 C 
ATOM     23  C   UNL     1      -2.435  12.243  22.614  0.00  0.00    +0.000 A 
ATOM     24  C   UNL     1      -2.098  12.349  21.259  0.00  0.00    +0.000 A 
ATOM     25  C   UNL     1      -3.086  12.704  20.326  0.00  0.00    +0.000 A 
ENDBRANCH  12  24
ENDBRANCH   1  14
BRANCH  10  26
ATOM     26  C   UNL     1       2.464   3.564  20.826  0.00  0.00    +0.000 C 
ATOM     27  F   UNL     1       1.267   2.918  20.843  0.00  0.00    +0.000 F 
ATOM     28  F   UNL     1       3.415   2.599  20.720  0.00  0.00    +0.000 F 
ATOM     29  F   UNL     1       2.609   4.125  22.055  0.00  0.00    +0.000 F 
ENDBRANCH  10  26
TORSDOF 3
ENDMDL
MODEL 6
REMARK VINA RESULT:      -7.8      5.925     10.079
REMARK  Name = 
REMARK  6 active torsions:
REMARK  status: ('A' for Active; 'I' for Inactive)
REMARK    1  A    between atoms: C_1  and  C_2
REMARK    2  A    between atoms: C_4  and  C_5
REMARK    3  A    between atoms: C_7  and  N_8
REMARK    4  A    between atoms: C_10  and  C_11
REMARK    5  A    between atoms: C_20  and  C_21
REMARK    6  A    between atoms: C_27  and  C_28
REMARK                            x       y       z     vdW  Elec       q    Type
REMARK                         _______ _______ _______ _____ _____    ______ ____
ROOT
ATOM      1  C   UNL     1       2.451   8.802  18.129  0.00  0.00    +0.000 C 
ATOM      2  O   UNL     1       3.301   9.440  17.499  0.00  0.00    +0.000 OA
ATOM      3  N   UNL     1       2.743   7.458  18.502  0.00  0.00    +0.000 N 
ATOM      4  C   UNL     1       1.762   6.545  19.092  0.00  0.00    +0.000 C 
ATOM      5  C   UNL     1       2.293   5.192  19.617  0.00  0.00    +0.000 C 
ATOM      6  N   UNL     1       3.538   4.762  19.034  0.00  0.00    +0.000 N 
ATOM      7  C   UNL     1       4.276   5.542  18.194  0.00  0.00    +0.000 A 
ATOM      8  N   UNL     1       5.356   4.883  17.836  0.00  0.00    +0.000 NA
ATOM      9  N   UNL     1       5.342   3.672  18.474  0.00  0.00    +0.000 NA
ATOM     10  C   UNL     1       4.253   3.600  19.216  0.00  0.00    +0.000 A 
ATOM     11  C   UNL     1       3.873   6.896  17.754  0.00  0.00    +0.000 C 
ENDROOT
BRANCH   1  14
ATOM     12  N   UNL     1      -0.850  10.274  18.286  0.00  0.00    +0.000 N 
ATOM     13  N   UNL     1       0.026   9.404  17.691  0.00  0.00    +0.000 NA
ATOM     14  C   UNL     1       1.148   9.468  18.422  0.00  0.00    +0.000 A 
ATOM     15  C   UNL     1       0.933  10.287  19.571  0.00  0.00    +0.000 A 
ATOM     16  C   UNL     1      -0.362  10.740  19.496  0.00  0.00    +0.000 A 
ATOM     17  C   UNL     1      -1.161  11.469  20.518  0.00  0.00    +0.000 C 
BRANCH  12  24
ATOM     18  C   UNL     1      -3.835  10.164  14.292  0.00  0.00    +0.000 C 
ATOM     19  C   UNL     1      -3.559  10.568  15.712  0.00  0.00    +0.000 A 
ATOM     20  C   UNL     1      -4.532  11.243  16.457  0.00  0.00    +0.000 A 
ATOM     21  C   UNL     1      -4.306  11.576  17.801  0.00  0.00    +0.000 A 
ATOM     22  C   UNL     1      -5.350  12.317  18.581  0.00  0.00    +0.000 C 
ATOM     23  C   UNL     1      -3.093  11.215  18.407  0.00  0.00    +0.000 A 
ATOM     24  C   UNL     1      -2.092  10.580  17.662  0.00  0.00    +0.000 A 
ATOM     25  C   UNL     1      -2.335  10.249  16.319  0.00  0.00    +0.000 A 
ENDBRANCH  12  24
ENDBRANCH   1  14
BRANCH  10  26
ATOM     26  C   UNL     1       3.880   2.464  20.099  0.00  0.00    +0.000 C 
ATOM     27  F   UNL     1       4.931   1.645  20.374  0.00  0.00    +0.000 F 
ATOM     28  F   UNL     1       3.399   2.882  21.299  0.00  0.00    +0.000 F 
ATOM     29  F   UNL     1       2.921   1.677  19.545  0.00  0.00    +0.000 F 
ENDBRANCH  10  26
TORSDOF 3
ENDMDL
MODEL 7
REMARK VINA RESULT:      -7.8      5.831      9.979
REMARK  Name = 
REMARK  6 active torsions:
REMARK  status: ('A' for Active; 'I' for Inactive)
REMARK    1  A    between atoms: C_1  and  C_2
REMARK    2  A    between atoms: C_4  and  C_5
REMARK    3  A    between atoms: C_7  and  N_8
REMARK    4  A    between atoms: C_10  and  C_11
REMARK    5  A    between atoms: C_20  and  C_21
REMARK    6  A    between atoms: C_27  and  C_28
REMARK                            x       y       z     vdW  Elec       q    Type
REMARK                         _______ _______ _______ _____ _____    ______ ____
ROOT
ATOM      1  C   UNL     1       1.433   8.146  19.986  0.00  0.00    +0.000 C 
ATOM      2  O   UNL     1       1.267   7.815  21.166  0.00  0.00    +0.000 OA
ATOM      3  N   UNL     1       2.392   7.438  19.207  0.00  0.00    +0.000 N 
ATOM      4  C   UNL     1       2.806   7.841  17.861  0.00  0.00    +0.000 C 
ATOM      5  C   UNL     1       3.705   6.856  17.080  0.00  0.00    +0.000 C 
ATOM      6  N   UNL     1       4.440   5.928  17.900  0.00  0.00    +0.000 N 
ATOM      7  C   UNL     1       4.259   5.817  19.247  0.00  0.00    +0.000 A 
ATOM      8  N   UNL     1       5.063   4.886  19.711  0.00  0.00    +0.000 NA
ATOM      9  N   UNL     1       5.754   4.358  18.654  0.00  0.00    +0.000 NA
ATOM     10  C   UNL     1       5.368   4.973  17.551  0.00  0.00    +0.000 A 
ATOM     11  C   UNL     1       3.322   6.653  20.027  0.00  0.00    +0.000 C 
ENDROOT
BRANCH   1  14
ATOM     12  N   UNL     1      -0.868  10.541  18.552  0.00  0.00    +0.000 N 
ATOM     13  N   UNL     1      -0.634   9.290  19.063  0.00  0.00    +0.000 NA
ATOM     14  C   UNL     1       0.646   9.301  19.465  0.00  0.00    +0.000 A 
ATOM     15  C   UNL     1       1.186  10.614  19.331  0.00  0.00    +0.000 A 
ATOM     16  C   UNL     1       0.188  11.401  18.805  0.00  0.00    +0.000 A 
ATOM     17  C   UNL     1       0.148  12.879  18.640  0.00  0.00    +0.000 C 
BRANCH  12  24
ATOM     18  C   UNL     1      -5.472  12.458  18.553  0.00  0.00    +0.000 C 
ATOM     19  C   UNL     1      -4.357  11.725  17.863  0.00  0.00    +0.000 A 
ATOM     20  C   UNL     1      -4.495  11.317  16.533  0.00  0.00    +0.000 A 
ATOM     21  C   UNL     1      -3.440  10.681  15.862  0.00  0.00    +0.000 A 
ATOM     22  C   UNL     1      -3.610  10.232  14.442  0.00  0.00    +0.000 C 
ATOM     23  C   UNL     1      -2.228  10.462  16.533  0.00  0.00    +0.000 A 
ATOM     24  C   UNL     1      -2.090  10.823  17.879  0.00  0.00    +0.000 A 
ATOM     25  C   UNL     1      -3.153  11.464  18.535  0.00  0.00    +0.000 A 
ENDBRANCH  12  24
ENDBRANCH   1  14
BRANCH  10  26
ATOM     26  C   UNL     1       5.848   4.669  16.177  0.00  0.00    +0.000 C 
ATOM     27  F   UNL     1       4.932   3.985  15.439  0.00  0.00    +0.000 F 
ATOM     28  F   UNL     1       6.140   5.795  15.474  0.00  0.00    +0.000 F 
ATOM     29  F   UNL     1       6.974   3.908  16.184  0.00  0.00    +0.000 F 
ENDBRANCH  10  26
TORSDOF 3
ENDMDL
MODEL 8
REMARK VINA RESULT:      -7.8      2.855      4.353
REMARK  Name = 
REMARK  6 active torsions:
REMARK  status: ('A' for Active; 'I' for Inactive)
REMARK    1  A    between atoms: C_1  and  C_2
REMARK    2  A    between atoms: C_4  and  C_5
REMARK    3  A    between atoms: C_7  and  N_8
REMARK    4  A    between atoms: C_10  and  C_11
REMARK    5  A    between atoms: C_20  and  C_21
REMARK    6  A    between atoms: C_27  and  C_28
REMARK                            x       y       z     vdW  Elec       q    Type
REMARK                         _______ _______ _______ _____ _____    ______ ____
ROOT
ATOM      1  C   UNL     1       1.931   9.816  18.068  0.00  0.00    +0.000 C 
ATOM      2  O   UNL     1       2.264  10.589  17.162  0.00  0.00    +0.000 OA
ATOM      3  N   UNL     1       1.104  10.310  19.117  0.00  0.00    +0.000 N 
ATOM      4  C   UNL     1       0.787   9.552  20.330  0.00  0.00    +0.000 C 
ATOM      5  C   UNL     1      -0.280  10.154  21.272  0.00  0.00    +0.000 C 
ATOM      6  N   UNL     1      -0.467  11.577  21.145  0.00  0.00    +0.000 N 
ATOM      7  C   UNL     1       0.134  12.324  20.176  0.00  0.00    +0.000 A 
ATOM      8  N   UNL     1      -0.235  13.578  20.312  0.00  0.00    +0.000 NA
ATOM      9  N   UNL     1      -1.111  13.649  21.361  0.00  0.00    +0.000 NA
ATOM     10  C   UNL     1      -1.271  12.437  21.859  0.00  0.00    +0.000 A 
ATOM     11  C   UNL     1       1.071  11.776  19.170  0.00  0.00    +0.000 C 
ENDROOT
BRANCH   1  14
ATOM     12  N   UNL     1       3.695   6.675  17.748  0.00  0.00    +0.000 N 
ATOM     13  N   UNL     1       3.728   8.042  17.832  0.00  0.00    +0.000 NA
ATOM     14  C   UNL     1       2.456   8.420  18.027  0.00  0.00    +0.000 A 
ATOM     15  C   UNL     1       1.629   7.271  18.202  0.00  0.00    +0.000 A 
ATOM     16  C   UNL     1       2.448   6.173  18.081  0.00  0.00    +0.000 A 
ATOM     17  C   UNL     1       2.146   4.743  18.361  0.00  0.00    +0.000 C 
BRANCH  12  24
ATOM     18  C   UNL     1       6.202   3.909  14.441  0.00  0.00    +0.000 C 
ATOM     19  C   UNL     1       6.096   4.569  15.785  0.00  0.00    +0.000 A 
ATOM     20  C   UNL     1       7.156   4.496  16.695  0.00  0.00    +0.000 A 
ATOM     21  C   UNL     1       7.090   5.154  17.931  0.00  0.00    +0.000 A 
ATOM     22  C   UNL     1       8.227   5.049  18.904  0.00  0.00    +0.000 C 
ATOM     23  C   UNL     1       5.951   5.905  18.254  0.00  0.00    +0.000 A 
ATOM     24  C   UNL     1       4.863   5.950  17.374  0.00  0.00    +0.000 A 
ATOM     25  C   UNL     1       4.945   5.290  16.137  0.00  0.00    +0.000 A 
ENDBRANCH  12  24
ENDBRANCH   1  14
BRANCH  10  26
ATOM     26  C   UNL     1      -2.173  12.074  22.983  0.00  0.00    +0.000 C 
ATOM     27  F   UNL     1      -1.860  10.873  23.541  0.00  0.00    +0.000 F 
ATOM     28  F   UNL     1      -2.130  12.985  23.990  0.00  0.00    +0.000 F 
ATOM     29  F   UNL     1      -3.470  11.983  22.590  0.00  0.00    +0.000 F 
ENDBRANCH  10  26
TORSDOF 3
ENDMDL
MODEL 9
REMARK VINA RESULT:      -7.8      5.666      9.830
REMARK  Name = 
REMARK  6 active torsions:
REMARK  status: ('A' for Active; 'I' for Inactive)
REMARK    1  A    between atoms: C_1  and  C_2
REMARK    2  A    between atoms: C_4  and  C_5
REMARK    3  A    between atoms: C_7  and  N_8
REMARK    4  A    between atoms: C_10  and  C_11
REMARK    5  A    between atoms: C_20  and  C_21
REMARK    6  A    between atoms: C_27  and  C_28
REMARK                            x       y       z     vdW  Elec       q    Type
REMARK                         _______ _______ _______ _____ _____    ______ ____
ROOT
ATOM      1  C   UNL     1       2.349   8.712  18.148  0.00  0.00    +0.000 C 
ATOM      2  O   UNL     1       3.260   9.069  17.394  0.00  0.00    +0.000 OA
ATOM      3  N   UNL     1       2.436   7.433  18.767  0.00  0.00    +0.000 N 
ATOM      4  C   UNL     1       1.349   6.823  19.536  0.00  0.00    +0.000 C 
ATOM      5  C   UNL     1       1.678   5.523  20.304  0.00  0.00    +0.000 C 
ATOM      6  N   UNL     1       2.809   4.790  19.797  0.00  0.00    +0.000 N 
ATOM      7  C   UNL     1       3.624   5.264  18.811  0.00  0.00    +0.000 A 
ATOM      8  N   UNL     1       4.565   4.378  18.572  0.00  0.00    +0.000 NA
ATOM      9  N   UNL     1       4.385   3.327  19.430  0.00  0.00    +0.000 NA
ATOM     10  C   UNL     1       3.334   3.579  20.188  0.00  0.00    +0.000 A 
ATOM     11  C   UNL     1       3.425   6.559  18.125  0.00  0.00    +0.000 C 
ENDROOT
BRANCH   1  14
ATOM     12  N   UNL     1      -0.725  10.620  18.153  0.00  0.00    +0.000 N 
ATOM     13  N   UNL     1      -0.053   9.467  17.840  0.00  0.00    +0.000 NA
ATOM     14  C   UNL     1       1.186   9.630  18.326  0.00  0.00    +0.000 A 
ATOM     15  C   UNL     1       1.259  10.844  19.071  0.00  0.00    +0.000 A 
ATOM     16  C   UNL     1       0.016  11.428  18.999  0.00  0.00    +0.000 A 
ATOM     17  C   UNL     1      -0.513  12.601  19.745  0.00  0.00    +0.000 C 
BRANCH  12  24
ATOM     18  C   UNL     1      -5.380  12.309  18.739  0.00  0.00    +0.000 C 
ATOM     19  C   UNL     1      -4.323  11.643  17.907  0.00  0.00    +0.000 A 
ATOM     20  C   UNL     1      -4.599  11.251  16.593  0.00  0.00    +0.000 A 
ATOM     21  C   UNL     1      -3.603  10.678  15.789  0.00  0.00    +0.000 A 
ATOM     22  C   UNL     1      -3.920  10.245  14.389  0.00  0.00    +0.000 C 
ATOM     23  C   UNL     1      -2.310  10.508  16.307  0.00  0.00    +0.000 A 
ATOM     24  C   UNL     1      -2.030  10.853  17.634  0.00  0.00    +0.000 A 
ATOM     25  C   UNL     1      -3.037  11.431  18.426  0.00  0.00    +0.000 A 
ENDBRANCH  12  24
ENDBRANCH   1  14
BRANCH  10  26
ATOM     26  C   UNL     1       2.824   2.707  21.278  0.00  0.00    +0.000 C 
ATOM     27  F   UNL     1       2.427   3.411  22.373  0.00  0.00    +0.000 F 
ATOM     28  F   UNL     1       1.749   1.972  20.888  0.00  0.00    +0.000 F 
ATOM     29  F   UNL     1       3.763   1.827  21.713  0.00  0.00    +0.000 F 
ENDBRANCH  10  26
TORSDOF 3
ENDMDL
