MODEL 1
REMARK VINA RESULT:      -8.9      0.000      0.000
REMARK  Name = 
REMARK  8 active torsions:
REMARK  status: ('A' for Active; 'I' for Inactive)
REMARK    1  A    between atoms: C_1  and  N_2
REMARK    2  A    between atoms: N_2  and  C_3
REMARK    3  A    between atoms: C_8  and  C_9
REMARK    4  A    between atoms: C_13  and  N_14
REMARK    5  A    between atoms: C_19  and  C_20
REMARK    6  A    between atoms: C_20  and  C_21
REMARK    7  A    between atoms: C_20  and  O_22
REMARK    8  A    between atoms: C_24  and  C_25
REMARK                            x       y       z     vdW  Elec       q    Type
REMARK                         _______ _______ _______ _____ _____    ______ ____
ROOT
ATOM      1  N   UNL     1       3.785   4.969  19.204  0.00  0.00    +0.000 N 
ATOM      2  C   UNL     1       5.179   5.447  19.375  0.00  0.00    +0.000 C 
ATOM      3  C   UNL     1       5.759   5.196  18.015  0.00  0.00    +0.000 A 
ATOM      4  C   UNL     1       5.061   4.117  17.467  0.00  0.00    +0.000 A 
ATOM      5  C   UNL     1       5.248   3.678  16.171  0.00  0.00    +0.000 A 
ATOM      6  C   UNL     1       6.178   4.361  15.376  0.00  0.00    +0.000 A 
ATOM      7  C   UNL     1       6.856   5.484  15.915  0.00  0.00    +0.000 A 
ATOM      8  C   UNL     1       6.655   5.925  17.242  0.00  0.00    +0.000 A 
ATOM      9  C   UNL     1       3.873   3.863  18.317  0.00  0.00    +0.000 C 
ATOM     10  O   UNL     1       3.058   2.990  18.104  0.00  0.00    +0.000 OA
ENDROOT
BRANCH   1  15
ATOM     11  C   UNL     1       1.923   8.132  19.564  0.00  0.00    +0.000 A 
ATOM     12  C   UNL     1       2.418   8.763  18.409  0.00  0.00    +0.000 A 
ATOM     13  C   UNL     1       2.984   8.027  17.371  0.00  0.00    +0.000 A 
ATOM     14  C   UNL     1       3.161   6.658  17.509  0.00  0.00    +0.000 A 
ATOM     15  C   UNL     1       2.934   6.061  18.755  0.00  0.00    +0.000 A 
ATOM     16  C   UNL     1       2.202   6.765  19.721  0.00  0.00    +0.000 A 
BRANCH  11  22
ATOM     17  C   UNL     1       0.150   9.812  20.296  0.00  0.00    +0.000 A 
ATOM     18  C   UNL     1      -0.416  10.475  21.387  0.00  0.00    +0.000 A 
ATOM     19  N   UNL     1      -0.011  10.337  22.671  0.00  0.00    +0.000 NA
ATOM     20  N   UNL     1       0.978   9.475  22.951  0.00  0.00    +0.000 NA
ATOM     21  C   UNL     1       1.541   8.779  21.940  0.00  0.00    +0.000 A 
ATOM     22  C   UNL     1       1.189   8.906  20.593  0.00  0.00    +0.000 A 
BRANCH  17  24
ATOM     23  C   UNL     1      -1.335  10.937  18.642  0.00  0.00    +0.000 C 
ATOM     24  N   UNL     1      -0.340   9.941  18.987  0.00  0.00    +0.000 N 
ATOM     25  H   UNL     1       0.394   9.836  18.288  0.00  0.00    +0.000 HD
ENDBRANCH  17  24
ENDBRANCH  11  22
ENDBRANCH   1  15
BRANCH   8  26
ATOM     26  C   UNL     1       7.320   7.197  17.701  0.00  0.00    +0.000 C 
ATOM     27  F   UNL     1       8.046   7.066  18.845  0.00  0.00    +0.000 F 
ATOM     28  F   UNL     1       8.182   7.688  16.770  0.00  0.00    +0.000 F 
ATOM     29  F   UNL     1       6.423   8.194  17.945  0.00  0.00    +0.000 F 
ENDBRANCH   8  26
BRANCH   6  30
ATOM     30  C   UNL     1       6.437   3.941  13.945  0.00  0.00    +0.000 C 
ATOM     31  C   UNL     1       5.136   3.760  13.174  0.00  0.00    +0.000 C 
BRANCH  30  32
ATOM     32  O   UNL     1       7.270   4.901  13.304  0.00  0.00    +0.000 OA
ATOM     33  H   UNL     1       6.830   5.765  13.350  0.00  0.00    +0.000 HD
ENDBRANCH  30  32
ENDBRANCH   6  30
TORSDOF 6
ENDMDL
MODEL 2
REMARK VINA RESULT:      -8.2      4.546      8.584
REMARK  Name = 
REMARK  8 active torsions:
REMARK  status: ('A' for Active; 'I' for Inactive)
REMARK    1  A    between atoms: C_1  and  N_2
REMARK    2  A    between atoms: N_2  and  C_3
REMARK    3  A    between atoms: C_8  and  C_9
REMARK    4  A    between atoms: C_13  and  N_14
REMARK    5  A    between atoms: C_19  and  C_20
REMARK    6  A    between atoms: C_20  and  C_21
REMARK    7  A    between atoms: C_20  and  O_22
REMARK    8  A    between atoms: C_24  and  C_25
REMARK                            x       y       z     vdW  Elec       q    Type
REMARK                         _______ _______ _______ _____ _____    ______ ____
ROOT
ATOM      1  N   UNL     1       0.413   8.620  21.090  0.00  0.00    +0.000 N 
ATOM      2  C   UNL     1      -0.848   8.770  20.323  0.00  0.00    +0.000 C 
ATOM      3  C   UNL     1      -0.873  10.245  20.058  0.00  0.00    +0.000 A 
ATOM      4  C   UNL     1      -0.184  10.860  21.106  0.00  0.00    +0.000 A 
ATOM      5  C   UNL     1       0.094  12.212  21.135  0.00  0.00    +0.000 A 
ATOM      6  C   UNL     1      -0.335  12.992  20.052  0.00  0.00    +0.000 A 
ATOM      7  C   UNL     1      -0.996  12.365  18.967  0.00  0.00    +0.000 A 
ATOM      8  C   UNL     1      -1.273  10.979  18.948  0.00  0.00    +0.000 A 
ATOM      9  C   UNL     1       0.520   9.802  21.871  0.00  0.00    +0.000 C 
ATOM     10  O   UNL     1       1.214  10.013  22.843  0.00  0.00    +0.000 OA
ENDROOT
BRANCH   1  15
ATOM     11  C   UNL     1       2.792   6.527  19.204  0.00  0.00    +0.000 A 
ATOM     12  C   UNL     1       2.615   7.140  17.951  0.00  0.00    +0.000 A 
ATOM     13  C   UNL     1       2.078   8.421  17.844  0.00  0.00    +0.000 A 
ATOM     14  C   UNL     1       1.612   9.074  18.976  0.00  0.00    +0.000 A 
ATOM     15  C   UNL     1       1.523   8.370  20.184  0.00  0.00    +0.000 A 
ATOM     16  C   UNL     1       2.225   7.165  20.319  0.00  0.00    +0.000 A 
BRANCH  11  22
ATOM     17  C   UNL     1       2.847   3.996  19.512  0.00  0.00    +0.000 A 
ATOM     18  C   UNL     1       3.673   2.875  19.622  0.00  0.00    +0.000 A 
ATOM     19  N   UNL     1       5.026   2.906  19.599  0.00  0.00    +0.000 NA
ATOM     20  N   UNL     1       5.646   4.082  19.415  0.00  0.00    +0.000 NA
ATOM     21  C   UNL     1       4.898   5.196  19.267  0.00  0.00    +0.000 A 
ATOM     22  C   UNL     1       3.501   5.231  19.318  0.00  0.00    +0.000 A 
BRANCH  17  24
ATOM     23  C   UNL     1       0.765   2.724  19.008  0.00  0.00    +0.000 C 
ATOM     24  N   UNL     1       1.447   3.911  19.484  0.00  0.00    +0.000 N 
ATOM     25  H   UNL     1       1.018   4.325  20.311  0.00  0.00    +0.000 HD
ENDBRANCH  17  24
ENDBRANCH  11  22
ENDBRANCH   1  15
BRANCH   8  26
ATOM     26  C   UNL     1      -1.869  10.367  17.706  0.00  0.00    +0.000 C 
ATOM     27  F   UNL     1      -2.985   9.622  17.932  0.00  0.00    +0.000 F 
ATOM     28  F   UNL     1      -2.233  11.311  16.795  0.00  0.00    +0.000 F 
ATOM     29  F   UNL     1      -0.997   9.542  17.062  0.00  0.00    +0.000 F 
ENDBRANCH   8  26
BRANCH   6  30
ATOM     30  C   UNL     1      -0.066  14.481  20.011  0.00  0.00    +0.000 C 
ATOM     31  C   UNL     1       1.339  14.779  19.506  0.00  0.00    +0.000 C 
BRANCH  30  32
ATOM     32  O   UNL     1      -1.039  15.124  19.194  0.00  0.00    +0.000 OA
ATOM     33  H   UNL     1      -1.850  15.233  19.715  0.00  0.00    +0.000 HD
ENDBRANCH  30  32
ENDBRANCH   6  30
TORSDOF 6
ENDMDL
MODEL 3
REMARK VINA RESULT:      -8.1      4.219      8.484
REMARK  Name = 
REMARK  8 active torsions:
REMARK  status: ('A' for Active; 'I' for Inactive)
REMARK    1  A    between atoms: C_1  and  N_2
REMARK    2  A    between atoms: N_2  and  C_3
REMARK    3  A    between atoms: C_8  and  C_9
REMARK    4  A    between atoms: C_13  and  N_14
REMARK    5  A    between atoms: C_19  and  C_20
REMARK    6  A    between atoms: C_20  and  C_21
REMARK    7  A    between atoms: C_20  and  O_22
REMARK    8  A    between atoms: C_24  and  C_25
REMARK                            x       y       z     vdW  Elec       q    Type
REMARK                         _______ _______ _______ _____ _____    ______ ____
ROOT
ATOM      1  N   UNL     1       0.716   8.304  21.214  0.00  0.00    +0.000 N 
ATOM      2  C   UNL     1      -0.560   8.624  20.528  0.00  0.00    +0.000 C 
ATOM      3  C   UNL     1      -0.380  10.078  20.208  0.00  0.00    +0.000 A 
ATOM      4  C   UNL     1       0.469  10.608  21.182  0.00  0.00    +0.000 A 
ATOM      5  C   UNL     1       0.949  11.902  21.140  0.00  0.00    +0.000 A 
ATOM      6  C   UNL     1       0.567  12.708  20.059  0.00  0.00    +0.000 A 
ATOM      7  C   UNL     1      -0.259  12.159  19.046  0.00  0.00    +0.000 A 
ATOM      8  C   UNL     1      -0.743  10.833  19.100  0.00  0.00    +0.000 A 
ATOM      9  C   UNL     1       1.058   9.477  21.939  0.00  0.00    +0.000 C 
ATOM     10  O   UNL     1       1.845   9.606  22.853  0.00  0.00    +0.000 OA
ENDROOT
BRANCH   1  15
ATOM     11  C   UNL     1       2.377   5.872  18.994  0.00  0.00    +0.000 A 
ATOM     12  C   UNL     1       2.396   6.671  17.837  0.00  0.00    +0.000 A 
ATOM     13  C   UNL     1       2.264   8.055  17.913  0.00  0.00    +0.000 A 
ATOM     14  C   UNL     1       2.007   8.660  19.135  0.00  0.00    +0.000 A 
ATOM     15  C   UNL     1       1.707   7.860  20.245  0.00  0.00    +0.000 A 
ATOM     16  C   UNL     1       2.019   6.495  20.200  0.00  0.00    +0.000 A 
BRANCH  11  22
ATOM     17  C   UNL     1       3.965   3.877  19.036  0.00  0.00    +0.000 A 
ATOM     18  C   UNL     1       4.061   2.489  18.913  0.00  0.00    +0.000 A 
ATOM     19  N   UNL     1       3.022   1.663  18.651  0.00  0.00    +0.000 NA
ATOM     20  N   UNL     1       1.790   2.182  18.537  0.00  0.00    +0.000 NA
ATOM     21  C   UNL     1       1.631   3.516  18.681  0.00  0.00    +0.000 A 
ATOM     22  C   UNL     1       2.669   4.422  18.916  0.00  0.00    +0.000 A 
BRANCH  17  24
ATOM     23  C   UNL     1       6.025   5.108  18.368  0.00  0.00    +0.000 C 
ATOM     24  N   UNL     1       5.060   4.690  19.365  0.00  0.00    +0.000 N 
ATOM     25  H   UNL     1       4.810   5.425  20.027  0.00  0.00    +0.000 HD
ENDBRANCH  17  24
ENDBRANCH  11  22
ENDBRANCH   1  15
BRANCH   8  26
ATOM     26  C   UNL     1      -1.514  10.285  17.925  0.00  0.00    +0.000 C 
ATOM     27  F   UNL     1      -2.654   9.625  18.266  0.00  0.00    +0.000 F 
ATOM     28  F   UNL     1      -1.898  11.267  17.063  0.00  0.00    +0.000 F 
ATOM     29  F   UNL     1      -0.782   9.404  17.188  0.00  0.00    +0.000 F 
ENDBRANCH   8  26
BRANCH   6  30
ATOM     30  C   UNL     1       1.054  14.136  19.942  0.00  0.00    +0.000 C 
ATOM     31  C   UNL     1       0.235  14.922  18.926  0.00  0.00    +0.000 C 
BRANCH  30  32
ATOM     32  O   UNL     1       1.009  14.767  21.217  0.00  0.00    +0.000 OA
ATOM     33  H   UNL     1       1.111  14.084  21.899  0.00  0.00    +0.000 HD
ENDBRANCH  30  32
ENDBRANCH   6  30
TORSDOF 6
ENDMDL
MODEL 4
REMARK VINA RESULT:      -7.9      4.392      8.539
REMARK  Name = 
REMARK  8 active torsions:
REMARK  status: ('A' for Active; 'I' for Inactive)
REMARK    1  A    between atoms: C_1  and  N_2
REMARK    2  A    between atoms: N_2  and  C_3
REMARK    3  A    between atoms: C_8  and  C_9
REMARK    4  A    between atoms: C_13  and  N_14
REMARK    5  A    between atoms: C_19  and  C_20
REMARK    6  A    between atoms: C_20  and  C_21
REMARK    7  A    between atoms: C_20  and  O_22
REMARK    8  A    between atoms: C_24  and  C_25
REMARK                            x       y       z     vdW  Elec       q    Type
REMARK                         _______ _______ _______ _____ _____    ______ ____
ROOT
ATOM      1  N   UNL     1       0.431   8.668  21.114  0.00  0.00    +0.000 N 
ATOM      2  C   UNL     1      -0.833   8.837  20.355  0.00  0.00    +0.000 C 
ATOM      3  C   UNL     1      -0.762  10.281  19.960  0.00  0.00    +0.000 A 
ATOM      4  C   UNL     1      -0.010  10.936  20.938  0.00  0.00    +0.000 A 
ATOM      5  C   UNL     1       0.361  12.263  20.842  0.00  0.00    +0.000 A 
ATOM      6  C   UNL     1      -0.036  12.973  19.700  0.00  0.00    +0.000 A 
ATOM      7  C   UNL     1      -0.762  12.300  18.686  0.00  0.00    +0.000 A 
ATOM      8  C   UNL     1      -1.134  10.941  18.795  0.00  0.00    +0.000 A 
ATOM      9  C   UNL     1       0.636   9.904  21.784  0.00  0.00    +0.000 C 
ATOM     10  O   UNL     1       1.364  10.150  22.723  0.00  0.00    +0.000 OA
ENDROOT
BRANCH   1  15
ATOM     11  C   UNL     1       2.429   6.267  19.153  0.00  0.00    +0.000 A 
ATOM     12  C   UNL     1       2.411   6.972  17.936  0.00  0.00    +0.000 A 
ATOM     13  C   UNL     1       2.130   8.335  17.896  0.00  0.00    +0.000 A 
ATOM     14  C   UNL     1       1.761   9.001  19.056  0.00  0.00    +0.000 A 
ATOM     15  C   UNL     1       1.502   8.261  20.216  0.00  0.00    +0.000 A 
ATOM     16  C   UNL     1       1.958   6.938  20.292  0.00  0.00    +0.000 A 
BRANCH  11  22
ATOM     17  C   UNL     1       4.229   4.464  19.266  0.00  0.00    +0.000 A 
ATOM     18  C   UNL     1       4.470   3.089  19.281  0.00  0.00    +0.000 A 
ATOM     19  N   UNL     1       3.514   2.135  19.196  0.00  0.00    +0.000 NA
ATOM     20  N   UNL     1       2.226   2.508  19.134  0.00  0.00    +0.000 NA
ATOM     21  C   UNL     1       1.930   3.826  19.151  0.00  0.00    +0.000 A 
ATOM     22  C   UNL     1       2.875   4.855  19.202  0.00  0.00    +0.000 A 
BRANCH  17  24
ATOM     23  C   UNL     1       6.551   5.240  18.810  0.00  0.00    +0.000 C 
ATOM     24  N   UNL     1       5.247   5.418  19.415  0.00  0.00    +0.000 N 
ATOM     25  H   UNL     1       4.894   6.373  19.354  0.00  0.00    +0.000 HD
ENDBRANCH  17  24
ENDBRANCH  11  22
ENDBRANCH   1  15
BRANCH   8  26
ATOM     26  C   UNL     1      -1.797  10.265  17.621  0.00  0.00    +0.000 C 
ATOM     27  F   UNL     1      -2.209  11.120  16.645  0.00  0.00    +0.000 F 
ATOM     28  F   UNL     1      -0.969   9.376  17.009  0.00  0.00    +0.000 F 
ATOM     29  F   UNL     1      -2.903   9.559  17.985  0.00  0.00    +0.000 F 
ENDBRANCH   8  26
BRANCH   6  30
ATOM     30  C   UNL     1       0.333  14.429  19.522  0.00  0.00    +0.000 C 
ATOM     31  C   UNL     1       1.783  14.586  19.084  0.00  0.00    +0.000 C 
BRANCH  30  32
ATOM     32  O   UNL     1      -0.543  15.037  18.578  0.00  0.00    +0.000 OA
ATOM     33  H   UNL     1      -0.009  15.389  17.849  0.00  0.00    +0.000 HD
ENDBRANCH  30  32
ENDBRANCH   6  30
TORSDOF 6
ENDMDL
MODEL 5
REMARK VINA RESULT:      -7.7      3.428      4.391
REMARK  Name = 
REMARK  8 active torsions:
REMARK  status: ('A' for Active; 'I' for Inactive)
REMARK    1  A    between atoms: C_1  and  N_2
REMARK    2  A    between atoms: N_2  and  C_3
REMARK    3  A    between atoms: C_8  and  C_9
REMARK    4  A    between atoms: C_13  and  N_14
REMARK    5  A    between atoms: C_19  and  C_20
REMARK    6  A    between atoms: C_20  and  C_21
REMARK    7  A    between atoms: C_20  and  O_22
REMARK    8  A    between atoms: C_24  and  C_25
REMARK                            x       y       z     vdW  Elec       q    Type
REMARK                         _______ _______ _______ _____ _____    ______ ____
ROOT
ATOM      1  N   UNL     1       1.999   7.175  18.044  0.00  0.00    +0.000 N 
ATOM      2  C   UNL     1       1.946   5.709  18.264  0.00  0.00    +0.000 C 
ATOM      3  C   UNL     1       3.383   5.388  18.544  0.00  0.00    +0.000 A 
ATOM      4  C   UNL     1       4.153   6.337  17.867  0.00  0.00    +0.000 A 
ATOM      5  C   UNL     1       5.526   6.421  17.990  0.00  0.00    +0.000 A 
ATOM      6  C   UNL     1       6.164   5.512  18.845  0.00  0.00    +0.000 A 
ATOM      7  C   UNL     1       5.381   4.577  19.567  0.00  0.00    +0.000 A 
ATOM      8  C   UNL     1       3.977   4.501  19.434  0.00  0.00    +0.000 A 
ATOM      9  C   UNL     1       3.245   7.413  17.404  0.00  0.00    +0.000 C 
ATOM     10  O   UNL     1       3.609   8.392  16.785  0.00  0.00    +0.000 OA
ENDROOT
BRANCH   1  15
ATOM     11  C   UNL     1       0.558   9.755  20.251  0.00  0.00    +0.000 A 
ATOM     12  C   UNL     1       0.159   8.897  21.291  0.00  0.00    +0.000 A 
ATOM     13  C   UNL     1       0.717   7.629  21.435  0.00  0.00    +0.000 A 
ATOM     14  C   UNL     1       1.609   7.152  20.485  0.00  0.00    +0.000 A 
ATOM     15  C   UNL     1       1.801   7.878  19.303  0.00  0.00    +0.000 A 
ATOM     16  C   UNL     1       1.385   9.215  19.252  0.00  0.00    +0.000 A 
BRANCH  11  22
ATOM     17  C   UNL     1      -1.066  11.557  19.464  0.00  0.00    +0.000 A 
ATOM     18  C   UNL     1      -1.367  12.919  19.503  0.00  0.00    +0.000 A 
ATOM     19  N   UNL     1      -0.631  13.857  20.144  0.00  0.00    +0.000 NA
ATOM     20  N   UNL     1       0.451  13.471  20.838  0.00  0.00    +0.000 NA
ATOM     21  C   UNL     1       0.772  12.160  20.866  0.00  0.00    +0.000 A 
ATOM     22  C   UNL     1       0.072  11.153  20.195  0.00  0.00    +0.000 A 
BRANCH  17  24
ATOM     23  C   UNL     1      -1.763  10.312  17.422  0.00  0.00    +0.000 C 
ATOM     24  N   UNL     1      -1.889  10.611  18.835  0.00  0.00    +0.000 N 
ATOM     25  H   UNL     1      -2.046   9.787  19.415  0.00  0.00    +0.000 HD
ENDBRANCH  17  24
ENDBRANCH  11  22
ENDBRANCH   1  15
BRANCH   8  26
ATOM     26  C   UNL     1       3.204   3.563  20.327  0.00  0.00    +0.000 C 
ATOM     27  F   UNL     1       2.198   2.897  19.698  0.00  0.00    +0.000 F 
ATOM     28  F   UNL     1       4.001   2.601  20.869  0.00  0.00    +0.000 F 
ATOM     29  F   UNL     1       2.623   4.205  21.377  0.00  0.00    +0.000 F 
ENDBRANCH   8  26
BRANCH   6  30
ATOM     30  C   UNL     1       7.665   5.543  19.034  0.00  0.00    +0.000 C 
ATOM     31  C   UNL     1       8.254   6.876  18.590  0.00  0.00    +0.000 C 
BRANCH  30  32
ATOM     32  O   UNL     1       7.985   5.284  20.397  0.00  0.00    +0.000 OA
ATOM     33  H   UNL     1       7.317   5.715  20.954  0.00  0.00    +0.000 HD
ENDBRANCH  30  32
ENDBRANCH   6  30
TORSDOF 6
ENDMDL
MODEL 6
REMARK VINA RESULT:      -7.6      6.315     10.853
REMARK  Name = 
REMARK  8 active torsions:
REMARK  status: ('A' for Active; 'I' for Inactive)
REMARK    1  A    between atoms: C_1  and  N_2
REMARK    2  A    between atoms: N_2  and  C_3
REMARK    3  A    between atoms: C_8  and  C_9
REMARK    4  A    between atoms: C_13  and  N_14
REMARK    5  A    between atoms: C_19  and  C_20
REMARK    6  A    between atoms: C_20  and  C_21
REMARK    7  A    between atoms: C_20  and  O_22
REMARK    8  A    between atoms: C_24  and  C_25
REMARK                            x       y       z     vdW  Elec       q    Type
REMARK                         _______ _______ _______ _____ _____    ______ ____
ROOT
ATOM      1  N   UNL     1      -1.366  12.647  20.877  0.00  0.00    +0.000 N 
ATOM      2  C   UNL     1      -2.082  13.350  21.969  0.00  0.00    +0.000 C 
ATOM      3  C   UNL     1      -3.514  13.066  21.631  0.00  0.00    +0.000 A 
ATOM      4  C   UNL     1      -3.581  12.902  20.245  0.00  0.00    +0.000 A 
ATOM      5  C   UNL     1      -4.731  12.512  19.586  0.00  0.00    +0.000 A 
ATOM      6  C   UNL     1      -5.875  12.265  20.357  0.00  0.00    +0.000 A 
ATOM      7  C   UNL     1      -5.799  12.388  21.767  0.00  0.00    +0.000 A 
ATOM      8  C   UNL     1      -4.616  12.786  22.430  0.00  0.00    +0.000 A 
ATOM      9  C   UNL     1      -2.195  12.790  19.732  0.00  0.00    +0.000 C 
ATOM     10  O   UNL     1      -1.912  12.633  18.562  0.00  0.00    +0.000 OA
ENDROOT
BRANCH   1  15
ATOM     11  C   UNL     1       0.528   9.482  20.850  0.00  0.00    +0.000 A 
ATOM     12  C   UNL     1       0.645   9.334  22.244  0.00  0.00    +0.000 A 
ATOM     13  C   UNL     1      -0.212  10.000  23.116  0.00  0.00    +0.000 A 
ATOM     14  C   UNL     1      -1.136  10.908  22.620  0.00  0.00    +0.000 A 
ATOM     15  C   UNL     1      -1.077  11.276  21.269  0.00  0.00    +0.000 A 
ATOM     16  C   UNL     1      -0.346  10.477  20.381  0.00  0.00    +0.000 A 
BRANCH  11  22
ATOM     17  C   UNL     1       1.672   9.043  18.614  0.00  0.00    +0.000 A 
ATOM     18  C   UNL     1       2.428   8.129  17.877  0.00  0.00    +0.000 A 
ATOM     19  N   UNL     1       2.816   6.911  18.320  0.00  0.00    +0.000 NA
ATOM     20  N   UNL     1       2.501   6.543  19.573  0.00  0.00    +0.000 NA
ATOM     21  C   UNL     1       1.800   7.401  20.345  0.00  0.00    +0.000 A 
ATOM     22  C   UNL     1       1.342   8.655  19.930  0.00  0.00    +0.000 A 
BRANCH  17  24
ATOM     23  C   UNL     1       2.314  11.391  18.088  0.00  0.00    +0.000 C 
ATOM     24  N   UNL     1       1.340  10.319  18.136  0.00  0.00    +0.000 N 
ATOM     25  H   UNL     1       0.734  10.280  17.316  0.00  0.00    +0.000 HD
ENDBRANCH  17  24
ENDBRANCH  11  22
ENDBRANCH   1  15
BRANCH   8  26
ATOM     26  C   UNL     1      -4.580  12.775  23.937  0.00  0.00    +0.000 C 
ATOM     27  F   UNL     1      -4.182  13.951  24.494  0.00  0.00    +0.000 F 
ATOM     28  F   UNL     1      -5.801  12.506  24.475  0.00  0.00    +0.000 F 
ATOM     29  F   UNL     1      -3.736  11.827  24.430  0.00  0.00    +0.000 F 
ENDBRANCH   8  26
BRANCH   6  30
ATOM     30  C   UNL     1      -7.172  11.833  19.708  0.00  0.00    +0.000 C 
ATOM     31  C   UNL     1      -7.550  12.752  18.553  0.00  0.00    +0.000 C 
BRANCH  30  32
ATOM     32  O   UNL     1      -7.062  10.486  19.260  0.00  0.00    +0.000 OA
ATOM     33  H   UNL     1      -7.494   9.912  19.913  0.00  0.00    +0.000 HD
ENDBRANCH  30  32
ENDBRANCH   6  30
TORSDOF 6
ENDMDL
MODEL 7
REMARK VINA RESULT:      -7.5      7.210     10.449
REMARK  Name = 
REMARK  8 active torsions:
REMARK  status: ('A' for Active; 'I' for Inactive)
REMARK    1  A    between atoms: C_1  and  N_2
REMARK    2  A    between atoms: N_2  and  C_3
REMARK    3  A    between atoms: C_8  and  C_9
REMARK    4  A    between atoms: C_13  and  N_14
REMARK    5  A    between atoms: C_19  and  C_20
REMARK    6  A    between atoms: C_20  and  C_21
REMARK    7  A    between atoms: C_20  and  O_22
REMARK    8  A    between atoms: C_24  and  C_25
REMARK                            x       y       z     vdW  Elec       q    Type
REMARK                         _______ _______ _______ _____ _____    ______ ____
ROOT
ATOM      1  N   UNL     1      -3.994  14.202  22.720  0.00  0.00    +0.000 N 
ATOM      2  C   UNL     1      -2.733  14.743  22.156  0.00  0.00    +0.000 C 
ATOM      3  C   UNL     1      -1.860  13.525  22.134  0.00  0.00    +0.000 A 
ATOM      4  C   UNL     1      -2.294  12.692  23.167  0.00  0.00    +0.000 A 
ATOM      5  C   UNL     1      -1.792  11.422  23.374  0.00  0.00    +0.000 A 
ATOM      6  C   UNL     1      -0.807  10.956  22.494  0.00  0.00    +0.000 A 
ATOM      7  C   UNL     1      -0.395  11.781  21.418  0.00  0.00    +0.000 A 
ATOM      8  C   UNL     1      -0.917  13.078  21.215  0.00  0.00    +0.000 A 
ATOM      9  C   UNL     1      -3.593  13.213  23.657  0.00  0.00    +0.000 C 
ATOM     10  O   UNL     1      -4.236  12.706  24.553  0.00  0.00    +0.000 OA
ENDROOT
BRANCH   1  15
ATOM     11  C   UNL     1      -4.820  12.294  19.674  0.00  0.00    +0.000 A 
ATOM     12  C   UNL     1      -5.995  11.689  20.156  0.00  0.00    +0.000 A 
ATOM     13  C   UNL     1      -6.683  12.215  21.246  0.00  0.00    +0.000 A 
ATOM     14  C   UNL     1      -6.159  13.296  21.941  0.00  0.00    +0.000 A 
ATOM     15  C   UNL     1      -4.860  13.730  21.649  0.00  0.00    +0.000 A 
ATOM     16  C   UNL     1      -4.260  13.321  20.450  0.00  0.00    +0.000 A 
BRANCH  11  22
ATOM     17  C   UNL     1      -4.868  11.665  17.203  0.00  0.00    +0.000 A 
ATOM     18  C   UNL     1      -4.115  11.179  16.133  0.00  0.00    +0.000 A 
ATOM     19  N   UNL     1      -2.814  10.813  16.205  0.00  0.00    +0.000 NA
ATOM     20  N   UNL     1      -2.162  10.957  17.370  0.00  0.00    +0.000 NA
ATOM     21  C   UNL     1      -2.830  11.455  18.432  0.00  0.00    +0.000 A 
ATOM     22  C   UNL     1      -4.181  11.816  18.426  0.00  0.00    +0.000 A 
BRANCH  17  24
ATOM     23  C   UNL     1      -6.536  13.470  16.798  0.00  0.00    +0.000 C 
ATOM     24  N   UNL     1      -6.199  12.087  17.069  0.00  0.00    +0.000 N 
ATOM     25  H   UNL     1      -6.766  11.418  16.550  0.00  0.00    +0.000 HD
ENDBRANCH  17  24
ENDBRANCH  11  22
ENDBRANCH   1  15
BRANCH   8  26
ATOM     26  C   UNL     1      -0.519  13.845  19.979  0.00  0.00    +0.000 C 
ATOM     27  F   UNL     1       0.359  14.859  20.211  0.00  0.00    +0.000 F 
ATOM     28  F   UNL     1       0.075  13.046  19.051  0.00  0.00    +0.000 F 
ATOM     29  F   UNL     1      -1.587  14.415  19.355  0.00  0.00    +0.000 F 
ENDBRANCH   8  26
BRANCH   6  30
ATOM     30  C   UNL     1      -0.210   9.574  22.654  0.00  0.00    +0.000 C 
ATOM     31  C   UNL     1       0.659   9.201  21.460  0.00  0.00    +0.000 C 
BRANCH  30  32
ATOM     32  O   UNL     1       0.545   9.512  23.860  0.00  0.00    +0.000 OA
ATOM     33  H   UNL     1       0.799  10.416  24.107  0.00  0.00    +0.000 HD
ENDBRANCH  30  32
ENDBRANCH   6  30
TORSDOF 6
ENDMDL
MODEL 8
REMARK VINA RESULT:      -7.5      5.173      9.982
REMARK  Name = 
REMARK  8 active torsions:
REMARK  status: ('A' for Active; 'I' for Inactive)
REMARK    1  A    between atoms: C_1  and  N_2
REMARK    2  A    between atoms: N_2  and  C_3
REMARK    3  A    between atoms: C_8  and  C_9
REMARK    4  A    between atoms: C_13  and  N_14
REMARK    5  A    between atoms: C_19  and  C_20
REMARK    6  A    between atoms: C_20  and  C_21
REMARK    7  A    between atoms: C_20  and  O_22
REMARK    8  A    between atoms: C_24  and  C_25
REMARK                            x       y       z     vdW  Elec       q    Type
REMARK                         _______ _______ _______ _____ _____    ______ ____
ROOT
ATOM      1  N   UNL     1      -0.313  11.600  19.040  0.00  0.00    +0.000 N 
ATOM      2  C   UNL     1      -0.277  12.646  20.091  0.00  0.00    +0.000 C 
ATOM      3  C   UNL     1      -1.721  12.740  20.480  0.00  0.00    +0.000 A 
ATOM      4  C   UNL     1      -2.471  12.383  19.357  0.00  0.00    +0.000 A 
ATOM      5  C   UNL     1      -3.845  12.245  19.379  0.00  0.00    +0.000 A 
ATOM      6  C   UNL     1      -4.505  12.467  20.595  0.00  0.00    +0.000 A 
ATOM      7  C   UNL     1      -3.744  12.787  21.747  0.00  0.00    +0.000 A 
ATOM      8  C   UNL     1      -2.338  12.925  21.712  0.00  0.00    +0.000 A 
ATOM      9  C   UNL     1      -1.545  11.792  18.360  0.00  0.00    +0.000 C 
ATOM     10  O   UNL     1      -1.890  11.376  17.274  0.00  0.00    +0.000 OA
ENDROOT
BRANCH   1  15
ATOM     11  C   UNL     1       1.477   8.446  19.712  0.00  0.00    +0.000 A 
ATOM     12  C   UNL     1       1.354   8.467  21.113  0.00  0.00    +0.000 A 
ATOM     13  C   UNL     1       0.380   9.239  21.741  0.00  0.00    +0.000 A 
ATOM     14  C   UNL     1      -0.424  10.085  20.991  0.00  0.00    +0.000 A 
ATOM     15  C   UNL     1      -0.129  10.285  19.636  0.00  0.00    +0.000 A 
ATOM     16  C   UNL     1       0.721   9.380  18.986  0.00  0.00    +0.000 A 
BRANCH  11  22
ATOM     17  C   UNL     1       2.723   6.227  19.549  0.00  0.00    +0.000 A 
ATOM     18  C   UNL     1       3.646   5.486  18.809  0.00  0.00    +0.000 A 
ATOM     19  N   UNL     1       4.277   5.927  17.695  0.00  0.00    +0.000 NA
ATOM     20  N   UNL     1       3.982   7.148  17.221  0.00  0.00    +0.000 NA
ATOM     21  C   UNL     1       3.070   7.897  17.877  0.00  0.00    +0.000 A 
ATOM     22  C   UNL     1       2.414   7.510  19.049  0.00  0.00    +0.000 A 
BRANCH  17  24
ATOM     23  C   UNL     1       1.280   4.483  20.589  0.00  0.00    +0.000 C 
ATOM     24  N   UNL     1       2.049   5.709  20.665  0.00  0.00    +0.000 N 
ATOM     25  H   UNL     1       2.596   5.796  21.522  0.00  0.00    +0.000 HD
ENDBRANCH  17  24
ENDBRANCH  11  22
ENDBRANCH   1  15
BRANCH   8  26
ATOM     26  C   UNL     1      -1.589  13.145  23.002  0.00  0.00    +0.000 C 
ATOM     27  F   UNL     1      -2.365  13.593  24.027  0.00  0.00    +0.000 F 
ATOM     28  F   UNL     1      -1.003  12.002  23.454  0.00  0.00    +0.000 F 
ATOM     29  F   UNL     1      -0.585  14.055  22.871  0.00  0.00    +0.000 F 
ENDBRANCH   8  26
BRANCH   6  30
ATOM     30  C   UNL     1      -6.009  12.333  20.700  0.00  0.00    +0.000 C 
ATOM     31  C   UNL     1      -6.549  11.323  19.696  0.00  0.00    +0.000 C 
BRANCH  30  32
ATOM     32  O   UNL     1      -6.369  11.961  22.026  0.00  0.00    +0.000 OA
ATOM     33  H   UNL     1      -5.653  12.232  22.623  0.00  0.00    +0.000 HD
ENDBRANCH  30  32
ENDBRANCH   6  30
TORSDOF 6
ENDMDL
MODEL 9
REMARK VINA RESULT:      -7.5      4.294      8.767
REMARK  Name = 
REMARK  8 active torsions:
REMARK  status: ('A' for Active; 'I' for Inactive)
REMARK    1  A    between atoms: C_1  and  N_2
REMARK    2  A    between atoms: N_2  and  C_3
REMARK    3  A    between atoms: C_8  and  C_9
REMARK    4  A    between atoms: C_13  and  N_14
REMARK    5  A    between atoms: C_19  and  C_20
REMARK    6  A    between atoms: C_20  and  C_21
REMARK    7  A    between atoms: C_20  and  O_22
REMARK    8  A    between atoms: C_24  and  C_25
REMARK                            x       y       z     vdW  Elec       q    Type
REMARK                         _______ _______ _______ _____ _____    ______ ____
ROOT
ATOM      1  N   UNL     1       0.580   8.568  21.001  0.00  0.00    +0.000 N 
ATOM      2  C   UNL     1      -0.713   8.850  20.332  0.00  0.00    +0.000 C 
ATOM      3  C   UNL     1      -0.673  10.343  20.202  0.00  0.00    +0.000 A 
ATOM      4  C   UNL     1       0.110  10.823  21.254  0.00  0.00    +0.000 A 
ATOM      5  C   UNL     1       0.463  12.152  21.387  0.00  0.00    +0.000 A 
ATOM      6  C   UNL     1       0.016  13.049  20.408  0.00  0.00    +0.000 A 
ATOM      7  C   UNL     1      -0.742  12.558  19.315  0.00  0.00    +0.000 A 
ATOM      8  C   UNL     1      -1.096  11.196  19.190  0.00  0.00    +0.000 A 
ATOM      9  C   UNL     1       0.798   9.666  21.876  0.00  0.00    +0.000 C 
ATOM     10  O   UNL     1       1.559   9.751  22.817  0.00  0.00    +0.000 OA
ENDROOT
BRANCH   1  15
ATOM     11  C   UNL     1       2.438   6.637  18.467  0.00  0.00    +0.000 A 
ATOM     12  C   UNL     1       2.439   7.619  17.461  0.00  0.00    +0.000 A 
ATOM     13  C   UNL     1       2.223   8.961  17.761  0.00  0.00    +0.000 A 
ATOM     14  C   UNL     1       1.899   9.338  19.057  0.00  0.00    +0.000 A 
ATOM     15  C   UNL     1       1.620   8.348  20.007  0.00  0.00    +0.000 A 
ATOM     16  C   UNL     1       2.014   7.028  19.747  0.00  0.00    +0.000 A 
BRANCH  11  22
ATOM     17  C   UNL     1       4.153   4.797  18.048  0.00  0.00    +0.000 A 
ATOM     18  C   UNL     1       4.328   3.449  17.729  0.00  0.00    +0.000 A 
ATOM     19  N   UNL     1       3.324   2.575  17.485  0.00  0.00    +0.000 NA
ATOM     20  N   UNL     1       2.054   2.997  17.591  0.00  0.00    +0.000 NA
ATOM     21  C   UNL     1       1.823   4.283  17.931  0.00  0.00    +0.000 A 
ATOM     22  C   UNL     1       2.818   5.238  18.160  0.00  0.00    +0.000 A 
BRANCH  17  24
ATOM     23  C   UNL     1       6.283   5.257  19.255  0.00  0.00    +0.000 C 
ATOM     24  N   UNL     1       5.222   5.654  18.350  0.00  0.00    +0.000 N 
ATOM     25  H   UNL     1       5.551   6.164  17.532  0.00  0.00    +0.000 HD
ENDBRANCH  17  24
ENDBRANCH  11  22
ENDBRANCH   1  15
BRANCH   8  26
ATOM     26  C   UNL     1      -1.797  10.732  17.938  0.00  0.00    +0.000 C 
ATOM     27  F   UNL     1      -1.090   9.830  17.205  0.00  0.00    +0.000 F 
ATOM     28  F   UNL     1      -2.988  10.133  18.212  0.00  0.00    +0.000 F 
ATOM     29  F   UNL     1      -2.080  11.758  17.089  0.00  0.00    +0.000 F 
ENDBRANCH   8  26
BRANCH   6  30
ATOM     30  C   UNL     1       0.363  14.520  20.482  0.00  0.00    +0.000 C 
ATOM     31  C   UNL     1      -0.882  15.377  20.673  0.00  0.00    +0.000 C 
BRANCH  30  32
ATOM     32  O   UNL     1       1.291  14.743  21.538  0.00  0.00    +0.000 OA
ATOM     33  H   UNL     1       1.599  15.662  21.484  0.00  0.00    +0.000 HD
ENDBRANCH  30  32
ENDBRANCH   6  30
TORSDOF 6
ENDMDL
