MODEL 1
REMARK VINA RESULT:      -8.4      0.000      0.000
REMARK  Name = 
REMARK  4 active torsions:
REMARK  status: ('A' for Active; 'I' for Inactive)
REMARK    1  A    between atoms: C_1  and  C_2
REMARK    2  A    between atoms: C_2  and  C_3
REMARK    3  A    between atoms: C_10  and  S_11
REMARK    4  A    between atoms: S_11  and  N_14
REMARK                            x       y       z     vdW  Elec       q    Type
REMARK                         _______ _______ _______ _____ _____    ______ ____
ROOT
ATOM      1  S   UNL     1       6.601   6.139  16.849  0.00  0.00    +0.000 S 
ATOM      2  O   UNL     1       6.711   7.584  16.874  0.00  0.00    +0.000 OA
ATOM      3  O   UNL     1       7.692   5.302  17.284  0.00  0.00    +0.000 OA
ENDROOT
BRANCH   1  13
ATOM      4  C   UNL     1       4.040   2.408  20.676  0.00  0.00    +0.000 C 
ATOM      5  C   UNL     1       3.244   2.823  19.444  0.00  0.00    +0.000 C 
ATOM      6  C   UNL     1       3.203   1.719  18.388  0.00  0.00    +0.000 C 
ATOM      7  C   UNL     1       1.794   3.196  19.848  0.00  0.00    +0.000 C 
ATOM      8  O   UNL     1       0.965   2.470  20.376  0.00  0.00    +0.000 OA
ATOM      9  N   UNL     1       1.593   4.525  19.496  0.00  0.00    +0.000 N 
ATOM     10  C   UNL     1       2.730   5.082  18.934  0.00  0.00    +0.000 A 
ATOM     11  C   UNL     1       2.885   6.365  18.458  0.00  0.00    +0.000 A 
ATOM     12  C   UNL     1       4.125   6.705  17.908  0.00  0.00    +0.000 A 
ATOM     13  C   UNL     1       5.175   5.758  17.849  0.00  0.00    +0.000 A 
ATOM     14  C   UNL     1       4.995   4.456  18.334  0.00  0.00    +0.000 A 
ATOM     15  C   UNL     1       3.755   4.133  18.880  0.00  0.00    +0.000 A 
ATOM     16  H   UNL     1       0.713   4.996  19.646  0.00  0.00    +0.000 HD
ENDBRANCH   1  13
BRANCH   1  17
ATOM     17  N   UNL     1       6.257   5.709  15.242  0.00  0.00    +0.000 NA
ATOM     18  C   UNL     1       5.034   4.902  14.897  0.00  0.00    +0.000 C 
ATOM     19  C   UNL     1       5.449   4.120  13.669  0.00  0.00    +0.000 A 
ATOM     20  C   UNL     1       4.698   3.409  12.739  0.00  0.00    +0.000 A 
ATOM     21  C   UNL     1       5.376   2.768  11.693  0.00  0.00    +0.000 A 
ATOM     22  F   UNL     1       4.673   2.095  10.771  0.00  0.00    +0.000 F 
ATOM     23  C   UNL     1       6.771   2.816  11.592  0.00  0.00    +0.000 A 
ATOM     24  F   UNL     1       7.400   2.189  10.587  0.00  0.00    +0.000 F 
ATOM     25  C   UNL     1       7.523   3.516  12.525  0.00  0.00    +0.000 A 
ATOM     26  C   UNL     1       6.842   4.169  13.540  0.00  0.00    +0.000 A 
ATOM     27  C   UNL     1       7.426   4.986  14.643  0.00  0.00    +0.000 C 
ENDBRANCH   1  17
TORSDOF 2
ENDMDL
MODEL 2
REMARK VINA RESULT:      -8.4      3.589      5.201
REMARK  Name = 
REMARK  4 active torsions:
REMARK  status: ('A' for Active; 'I' for Inactive)
REMARK    1  A    between atoms: C_1  and  C_2
REMARK    2  A    between atoms: C_2  and  C_3
REMARK    3  A    between atoms: C_10  and  S_11
REMARK    4  A    between atoms: S_11  and  N_14
REMARK                            x       y       z     vdW  Elec       q    Type
REMARK                         _______ _______ _______ _____ _____    ______ ____
ROOT
ATOM      1  S   UNL     1       2.738   4.591  19.293  0.00  0.00    +0.000 S 
ATOM      2  O   UNL     1       3.073   4.223  20.655  0.00  0.00    +0.000 OA
ATOM      3  O   UNL     1       1.634   3.967  18.605  0.00  0.00    +0.000 OA
ENDROOT
BRANCH   1  13
ATOM      4  C   UNL     1       1.651   9.386  22.601  0.00  0.00    +0.000 C 
ATOM      5  C   UNL     1       0.736   9.118  21.411  0.00  0.00    +0.000 C 
ATOM      6  C   UNL     1      -0.616   8.553  21.842  0.00  0.00    +0.000 C 
ATOM      7  C   UNL     1       0.510  10.426  20.610  0.00  0.00    +0.000 C 
ATOM      8  O   UNL     1       0.001  11.461  21.014  0.00  0.00    +0.000 OA
ATOM      9  N   UNL     1       0.992  10.215  19.324  0.00  0.00    +0.000 N 
ATOM     10  C   UNL     1       1.528   8.945  19.182  0.00  0.00    +0.000 A 
ATOM     11  C   UNL     1       2.078   8.393  18.046  0.00  0.00    +0.000 A 
ATOM     12  C   UNL     1       2.541   7.075  18.129  0.00  0.00    +0.000 A 
ATOM     13  C   UNL     1       2.444   6.348  19.339  0.00  0.00    +0.000 A 
ATOM     14  C   UNL     1       1.876   6.928  20.480  0.00  0.00    +0.000 A 
ATOM     15  C   UNL     1       1.421   8.241  20.384  0.00  0.00    +0.000 A 
ATOM     16  H   UNL     1       0.942  10.923  18.606  0.00  0.00    +0.000 HD
ENDBRANCH   1  13
BRANCH   1  17
ATOM     17  N   UNL     1       4.128   4.304  18.360  0.00  0.00    +0.000 NA
ATOM     18  C   UNL     1       5.145   5.389  18.126  0.00  0.00    +0.000 C 
ATOM     19  C   UNL     1       5.723   5.058  16.766  0.00  0.00    +0.000 A 
ATOM     20  C   UNL     1       6.864   5.519  16.119  0.00  0.00    +0.000 A 
ATOM     21  C   UNL     1       7.141   5.027  14.836  0.00  0.00    +0.000 A 
ATOM     22  F   UNL     1       8.247   5.440  14.200  0.00  0.00    +0.000 F 
ATOM     23  C   UNL     1       6.288   4.115  14.206  0.00  0.00    +0.000 A 
ATOM     24  F   UNL     1       6.568   3.662  12.975  0.00  0.00    +0.000 F 
ATOM     25  C   UNL     1       5.143   3.661  14.845  0.00  0.00    +0.000 A 
ATOM     26  C   UNL     1       4.891   4.133  16.124  0.00  0.00    +0.000 A 
ATOM     27  C   UNL     1       3.741   3.785  17.008  0.00  0.00    +0.000 C 
ENDBRANCH   1  17
TORSDOF 2
ENDMDL
MODEL 3
REMARK VINA RESULT:      -8.3      1.236      1.764
REMARK  Name = 
REMARK  4 active torsions:
REMARK  status: ('A' for Active; 'I' for Inactive)
REMARK    1  A    between atoms: C_1  and  C_2
REMARK    2  A    between atoms: C_2  and  C_3
REMARK    3  A    between atoms: C_10  and  S_11
REMARK    4  A    between atoms: S_11  and  N_14
REMARK                            x       y       z     vdW  Elec       q    Type
REMARK                         _______ _______ _______ _____ _____    ______ ____
ROOT
ATOM      1  S   UNL     1       7.069   5.633  18.142  0.00  0.00    +0.000 S 
ATOM      2  O   UNL     1       7.263   7.065  18.031  0.00  0.00    +0.000 OA
ATOM      3  O   UNL     1       7.786   4.859  19.125  0.00  0.00    +0.000 OA
ENDROOT
BRANCH   1  13
ATOM      4  C   UNL     1       2.807   2.604  20.932  0.00  0.00    +0.000 C 
ATOM      5  C   UNL     1       2.684   2.781  19.422  0.00  0.00    +0.000 C 
ATOM      6  C   UNL     1       3.050   1.507  18.663  0.00  0.00    +0.000 C 
ATOM      7  C   UNL     1       1.238   3.198  19.052  0.00  0.00    +0.000 C 
ATOM      8  O   UNL     1       0.212   2.566  19.254  0.00  0.00    +0.000 OA
ATOM      9  N   UNL     1       1.309   4.440  18.433  0.00  0.00    +0.000 N 
ATOM     10  C   UNL     1       2.612   4.905  18.369  0.00  0.00    +0.000 A 
ATOM     11  C   UNL     1       3.052   6.086  17.812  0.00  0.00    +0.000 A 
ATOM     12  C   UNL     1       4.427   6.341  17.842  0.00  0.00    +0.000 A 
ATOM     13  C   UNL     1       5.323   5.415  18.427  0.00  0.00    +0.000 A 
ATOM     14  C   UNL     1       4.855   4.217  18.983  0.00  0.00    +0.000 A 
ATOM     15  C   UNL     1       3.483   3.978  18.947  0.00  0.00    +0.000 A 
ATOM     16  H   UNL     1       0.490   4.917  18.084  0.00  0.00    +0.000 HD
ENDBRANCH   1  13
BRANCH   1  17
ATOM     17  N   UNL     1       7.449   4.975  16.622  0.00  0.00    +0.000 NA
ATOM     18  C   UNL     1       7.860   5.857  15.474  0.00  0.00    +0.000 C 
ATOM     19  C   UNL     1       7.375   5.109  14.249  0.00  0.00    +0.000 A 
ATOM     20  C   UNL     1       7.673   5.269  12.901  0.00  0.00    +0.000 A 
ATOM     21  C   UNL     1       7.051   4.415  11.980  0.00  0.00    +0.000 A 
ATOM     22  F   UNL     1       7.339   4.534  10.676  0.00  0.00    +0.000 F 
ATOM     23  C   UNL     1       6.134   3.441  12.394  0.00  0.00    +0.000 A 
ATOM     24  F   UNL     1       5.544   2.640  11.496  0.00  0.00    +0.000 F 
ATOM     25  C   UNL     1       5.826   3.288  13.738  0.00  0.00    +0.000 A 
ATOM     26  C   UNL     1       6.467   4.119  14.644  0.00  0.00    +0.000 A 
ATOM     27  C   UNL     1       6.311   4.135  16.127  0.00  0.00    +0.000 C 
ENDBRANCH   1  17
TORSDOF 2
ENDMDL
MODEL 4
REMARK VINA RESULT:      -8.2      4.768      8.084
REMARK  Name = 
REMARK  4 active torsions:
REMARK  status: ('A' for Active; 'I' for Inactive)
REMARK    1  A    between atoms: C_1  and  C_2
REMARK    2  A    between atoms: C_2  and  C_3
REMARK    3  A    between atoms: C_10  and  S_11
REMARK    4  A    between atoms: S_11  and  N_14
REMARK                            x       y       z     vdW  Elec       q    Type
REMARK                         _______ _______ _______ _____ _____    ______ ____
ROOT
ATOM      1  S   UNL     1       2.074   4.937  20.431  0.00  0.00    +0.000 S 
ATOM      2  O   UNL     1       0.783   4.628  19.849  0.00  0.00    +0.000 OA
ATOM      3  O   UNL     1       2.451   4.420  21.724  0.00  0.00    +0.000 OA
ENDROOT
BRANCH   1  13
ATOM      4  C   UNL     1       7.681   5.138  18.522  0.00  0.00    +0.000 C 
ATOM      5  C   UNL     1       6.572   5.386  17.504  0.00  0.00    +0.000 C 
ATOM      6  C   UNL     1       6.433   6.867  17.156  0.00  0.00    +0.000 C 
ATOM      7  C   UNL     1       6.850   4.582  16.209  0.00  0.00    +0.000 C 
ATOM      8  O   UNL     1       7.815   4.685  15.468  0.00  0.00    +0.000 OA
ATOM      9  N   UNL     1       5.786   3.706  16.027  0.00  0.00    +0.000 N 
ATOM     10  C   UNL     1       4.857   3.813  17.049  0.00  0.00    +0.000 A 
ATOM     11  C   UNL     1       3.679   3.112  17.184  0.00  0.00    +0.000 A 
ATOM     12  C   UNL     1       2.878   3.402  18.294  0.00  0.00    +0.000 A 
ATOM     13  C   UNL     1       3.275   4.380  19.237  0.00  0.00    +0.000 A 
ATOM     14  C   UNL     1       4.475   5.084  19.078  0.00  0.00    +0.000 A 
ATOM     15  C   UNL     1       5.262   4.784  17.969  0.00  0.00    +0.000 A 
ATOM     16  H   UNL     1       5.730   3.081  15.237  0.00  0.00    +0.000 HD
ENDBRANCH   1  13
BRANCH   1  17
ATOM     17  N   UNL     1       2.165   6.631  20.530  0.00  0.00    +0.000 NA
ATOM     18  C   UNL     1       1.176   7.416  21.349  0.00  0.00    +0.000 C 
ATOM     19  C   UNL     1       1.080   8.744  20.628  0.00  0.00    +0.000 A 
ATOM     20  C   UNL     1       0.545   9.964  21.023  0.00  0.00    +0.000 A 
ATOM     21  C   UNL     1       0.594  11.033  20.117  0.00  0.00    +0.000 A 
ATOM     22  F   UNL     1       0.105  12.227  20.484  0.00  0.00    +0.000 F 
ATOM     23  C   UNL     1       1.143  10.880  18.839  0.00  0.00    +0.000 A 
ATOM     24  F   UNL     1       1.173  11.913  17.985  0.00  0.00    +0.000 F 
ATOM     25  C   UNL     1       1.667   9.659  18.438  0.00  0.00    +0.000 A 
ATOM     26  C   UNL     1       1.639   8.616  19.350  0.00  0.00    +0.000 A 
ATOM     27  C   UNL     1       2.148   7.227  19.155  0.00  0.00    +0.000 C 
ENDBRANCH   1  17
TORSDOF 2
ENDMDL
MODEL 5
REMARK VINA RESULT:      -7.9      3.681      4.838
REMARK  Name = 
REMARK  4 active torsions:
REMARK  status: ('A' for Active; 'I' for Inactive)
REMARK    1  A    between atoms: C_1  and  C_2
REMARK    2  A    between atoms: C_2  and  C_3
REMARK    3  A    between atoms: C_10  and  S_11
REMARK    4  A    between atoms: S_11  and  N_14
REMARK                            x       y       z     vdW  Elec       q    Type
REMARK                         _______ _______ _______ _____ _____    ______ ____
ROOT
ATOM      1  S   UNL     1       3.479   5.596  18.784  0.00  0.00    +0.000 S 
ATOM      2  O   UNL     1       4.696   5.607  19.571  0.00  0.00    +0.000 OA
ATOM      3  O   UNL     1       2.463   4.595  19.000  0.00  0.00    +0.000 OA
ENDROOT
BRANCH   1  13
ATOM      4  C   UNL     1       1.291   9.538  22.630  0.00  0.00    +0.000 C 
ATOM      5  C   UNL     1       0.440   9.178  21.417  0.00  0.00    +0.000 C 
ATOM      6  C   UNL     1      -0.706   8.234  21.779  0.00  0.00    +0.000 C 
ATOM      7  C   UNL     1      -0.142  10.463  20.774  0.00  0.00    +0.000 C 
ATOM      8  O   UNL     1      -0.888  11.277  21.296  0.00  0.00    +0.000 OA
ATOM      9  N   UNL     1       0.338  10.531  19.472  0.00  0.00    +0.000 N 
ATOM     10  C   UNL     1       1.180   9.469  19.182  0.00  0.00    +0.000 A 
ATOM     11  C   UNL     1       1.820   9.211  17.990  0.00  0.00    +0.000 A 
ATOM     12  C   UNL     1       2.610   8.058  17.918  0.00  0.00    +0.000 A 
ATOM     13  C   UNL     1       2.742   7.199  19.034  0.00  0.00    +0.000 A 
ATOM     14  C   UNL     1       2.078   7.479  20.236  0.00  0.00    +0.000 A 
ATOM     15  C   UNL     1       1.296   8.630  20.294  0.00  0.00    +0.000 A 
ATOM     16  H   UNL     1       0.086  11.277  18.841  0.00  0.00    +0.000 HD
ENDBRANCH   1  13
BRANCH   1  17
ATOM     17  N   UNL     1       3.955   5.474  17.158  0.00  0.00    +0.000 NA
ATOM     18  C   UNL     1       3.997   4.142  16.458  0.00  0.00    +0.000 C 
ATOM     19  C   UNL     1       5.103   4.303  15.436  0.00  0.00    +0.000 A 
ATOM     20  C   UNL     1       5.446   3.535  14.330  0.00  0.00    +0.000 A 
ATOM     21  C   UNL     1       6.548   3.937  13.562  0.00  0.00    +0.000 A 
ATOM     22  F   UNL     1       6.886   3.226  12.476  0.00  0.00    +0.000 F 
ATOM     23  C   UNL     1       7.304   5.063  13.906  0.00  0.00    +0.000 A 
ATOM     24  F   UNL     1       8.359   5.426  13.163  0.00  0.00    +0.000 F 
ATOM     25  C   UNL     1       6.970   5.825  15.017  0.00  0.00    +0.000 A 
ATOM     26  C   UNL     1       5.863   5.436  15.755  0.00  0.00    +0.000 A 
ATOM     27  C   UNL     1       5.306   6.095  16.971  0.00  0.00    +0.000 C 
ENDBRANCH   1  17
TORSDOF 2
ENDMDL
MODEL 6
REMARK VINA RESULT:      -7.9      0.681      1.586
REMARK  Name = 
REMARK  4 active torsions:
REMARK  status: ('A' for Active; 'I' for Inactive)
REMARK    1  A    between atoms: C_1  and  C_2
REMARK    2  A    between atoms: C_2  and  C_3
REMARK    3  A    between atoms: C_10  and  S_11
REMARK    4  A    between atoms: S_11  and  N_14
REMARK                            x       y       z     vdW  Elec       q    Type
REMARK                         _______ _______ _______ _____ _____    ______ ____
ROOT
ATOM      1  S   UNL     1       5.662   6.489  16.297  0.00  0.00    +0.000 S 
ATOM      2  O   UNL     1       4.844   7.317  15.433  0.00  0.00    +0.000 OA
ATOM      3  O   UNL     1       6.884   6.995  16.873  0.00  0.00    +0.000 OA
ENDROOT
BRANCH   1  13
ATOM      4  C   UNL     1       4.330   2.396  20.370  0.00  0.00    +0.000 C 
ATOM      5  C   UNL     1       3.211   2.881  19.455  0.00  0.00    +0.000 C 
ATOM      6  C   UNL     1       2.877   1.862  18.366  0.00  0.00    +0.000 C 
ATOM      7  C   UNL     1       1.936   3.177  20.285  0.00  0.00    +0.000 C 
ATOM      8  O   UNL     1       1.298   2.388  20.965  0.00  0.00    +0.000 OA
ATOM      9  N   UNL     1       1.633   4.523  20.116  0.00  0.00    +0.000 N 
ATOM     10  C   UNL     1       2.558   5.156  19.302  0.00  0.00    +0.000 A 
ATOM     11  C   UNL     1       2.561   6.477  18.911  0.00  0.00    +0.000 A 
ATOM     12  C   UNL     1       3.590   6.895  18.060  0.00  0.00    +0.000 A 
ATOM     13  C   UNL     1       4.585   5.988  17.626  0.00  0.00    +0.000 A 
ATOM     14  C   UNL     1       4.560   4.648  18.033  0.00  0.00    +0.000 A 
ATOM     15  C   UNL     1       3.531   4.246  18.880  0.00  0.00    +0.000 A 
ATOM     16  H   UNL     1       0.830   4.954  20.549  0.00  0.00    +0.000 HD
ENDBRANCH   1  13
BRANCH   1  17
ATOM     17  N   UNL     1       6.075   5.110  15.395  0.00  0.00    +0.000 NA
ATOM     18  C   UNL     1       7.261   5.113  14.469  0.00  0.00    +0.000 C 
ATOM     19  C   UNL     1       6.872   4.138  13.377  0.00  0.00    +0.000 A 
ATOM     20  C   UNL     1       7.630   3.519  12.389  0.00  0.00    +0.000 A 
ATOM     21  C   UNL     1       6.977   2.656  11.498  0.00  0.00    +0.000 A 
ATOM     22  F   UNL     1       7.690   2.030  10.551  0.00  0.00    +0.000 F 
ATOM     23  C   UNL     1       5.598   2.437  11.576  0.00  0.00    +0.000 A 
ATOM     24  F   UNL     1       4.991   1.613  10.708  0.00  0.00    +0.000 F 
ATOM     25  C   UNL     1       4.837   3.062  12.553  0.00  0.00    +0.000 A 
ATOM     26  C   UNL     1       5.495   3.892  13.448  0.00  0.00    +0.000 A 
ATOM     27  C   UNL     1       4.900   4.658  14.580  0.00  0.00    +0.000 C 
ENDBRANCH   1  17
TORSDOF 2
ENDMDL
MODEL 7
REMARK VINA RESULT:      -7.8      6.188      8.884
REMARK  Name = 
REMARK  4 active torsions:
REMARK  status: ('A' for Active; 'I' for Inactive)
REMARK    1  A    between atoms: C_1  and  C_2
REMARK    2  A    between atoms: C_2  and  C_3
REMARK    3  A    between atoms: C_10  and  S_11
REMARK    4  A    between atoms: S_11  and  N_14
REMARK                            x       y       z     vdW  Elec       q    Type
REMARK                         _______ _______ _______ _____ _____    ______ ____
ROOT
ATOM      1  S   UNL     1       0.623   8.836  21.481  0.00  0.00    +0.000 S 
ATOM      2  O   UNL     1       1.254   9.420  22.648  0.00  0.00    +0.000 OA
ATOM      3  O   UNL     1      -0.593   8.068  21.600  0.00  0.00    +0.000 OA
ENDROOT
BRANCH   1  13
ATOM      4  C   UNL     1       2.413  14.100  19.431  0.00  0.00    +0.000 C 
ATOM      5  C   UNL     1       0.971  13.976  19.914  0.00  0.00    +0.000 C 
ATOM      6  C   UNL     1       0.769  14.614  21.287  0.00  0.00    +0.000 C 
ATOM      7  C   UNL     1       0.010  14.641  18.895  0.00  0.00    +0.000 C 
ATOM      8  O   UNL     1      -0.005  15.812  18.550  0.00  0.00    +0.000 OA
ATOM      9  N   UNL     1      -0.855  13.655  18.435  0.00  0.00    +0.000 N 
ATOM     10  C   UNL     1      -0.571  12.422  19.000  0.00  0.00    +0.000 A 
ATOM     11  C   UNL     1      -1.231  11.233  18.785  0.00  0.00    +0.000 A 
ATOM     12  C   UNL     1      -0.781  10.109  19.487  0.00  0.00    +0.000 A 
ATOM     13  C   UNL     1       0.313  10.202  20.380  0.00  0.00    +0.000 A 
ATOM     14  C   UNL     1       0.966  11.424  20.587  0.00  0.00    +0.000 A 
ATOM     15  C   UNL     1       0.508  12.534  19.881  0.00  0.00    +0.000 A 
ATOM     16  H   UNL     1      -1.588  13.848  17.769  0.00  0.00    +0.000 HD
ENDBRANCH   1  13
BRANCH   1  17
ATOM     17  N   UNL     1       1.780   7.822  20.763  0.00  0.00    +0.000 NA
ATOM     18  C   UNL     1       2.128   7.949  19.304  0.00  0.00    +0.000 C 
ATOM     19  C   UNL     1       2.517   6.543  18.899  0.00  0.00    +0.000 A 
ATOM     20  C   UNL     1       3.174   6.064  17.772  0.00  0.00    +0.000 A 
ATOM     21  C   UNL     1       3.389   4.682  17.669  0.00  0.00    +0.000 A 
ATOM     22  F   UNL     1       4.041   4.197  16.602  0.00  0.00    +0.000 F 
ATOM     23  C   UNL     1       2.937   3.799  18.656  0.00  0.00    +0.000 A 
ATOM     24  F   UNL     1       3.146   2.480  18.534  0.00  0.00    +0.000 F 
ATOM     25  C   UNL     1       2.270   4.274  19.776  0.00  0.00    +0.000 A 
ATOM     26  C   UNL     1       2.086   5.644  19.882  0.00  0.00    +0.000 A 
ATOM     27  C   UNL     1       1.415   6.386  20.989  0.00  0.00    +0.000 C 
ENDBRANCH   1  17
TORSDOF 2
ENDMDL
MODEL 8
REMARK VINA RESULT:      -7.7      6.746      8.859
REMARK  Name = 
REMARK  4 active torsions:
REMARK  status: ('A' for Active; 'I' for Inactive)
REMARK    1  A    between atoms: C_1  and  C_2
REMARK    2  A    between atoms: C_2  and  C_3
REMARK    3  A    between atoms: C_10  and  S_11
REMARK    4  A    between atoms: S_11  and  N_14
REMARK                            x       y       z     vdW  Elec       q    Type
REMARK                         _______ _______ _______ _____ _____    ______ ____
ROOT
ATOM      1  S   UNL     1       0.938  10.565  20.148  0.00  0.00    +0.000 S 
ATOM      2  O   UNL     1       1.700  11.379  19.221  0.00  0.00    +0.000 OA
ATOM      3  O   UNL     1       1.205  10.604  21.565  0.00  0.00    +0.000 OA
ENDROOT
BRANCH   1  13
ATOM      4  C   UNL     1      -4.162   9.445  17.345  0.00  0.00    +0.000 C 
ATOM      5  C   UNL     1      -3.621  10.870  17.299  0.00  0.00    +0.000 C 
ATOM      6  C   UNL     1      -2.987  11.200  15.949  0.00  0.00    +0.000 C 
ATOM      7  C   UNL     1      -4.760  11.881  17.589  0.00  0.00    +0.000 C 
ATOM      8  O   UNL     1      -5.784  12.044  16.943  0.00  0.00    +0.000 OA
ATOM      9  N   UNL     1      -4.408  12.589  18.731  0.00  0.00    +0.000 N 
ATOM     10  C   UNL     1      -3.196  12.158  19.245  0.00  0.00    +0.000 A 
ATOM     11  C   UNL     1      -2.538  12.643  20.355  0.00  0.00    +0.000 A 
ATOM     12  C   UNL     1      -1.305  12.066  20.677  0.00  0.00    +0.000 A 
ATOM     13  C   UNL     1      -0.764  11.024  19.888  0.00  0.00    +0.000 A 
ATOM     14  C   UNL     1      -1.447  10.549  18.761  0.00  0.00    +0.000 A 
ATOM     15  C   UNL     1      -2.674  11.131  18.453  0.00  0.00    +0.000 A 
ATOM     16  H   UNL     1      -4.989  13.320  19.114  0.00  0.00    +0.000 HD
ENDBRANCH   1  13
BRANCH   1  17
ATOM     17  N   UNL     1       1.140   8.953  19.651  0.00  0.00    +0.000 NA
ATOM     18  C   UNL     1       1.633   7.900  20.608  0.00  0.00    +0.000 C 
ATOM     19  C   UNL     1       2.372   6.921  19.721  0.00  0.00    +0.000 A 
ATOM     20  C   UNL     1       2.821   5.627  19.961  0.00  0.00    +0.000 A 
ATOM     21  C   UNL     1       3.495   4.959  18.929  0.00  0.00    +0.000 A 
ATOM     22  F   UNL     1       3.918   3.702  19.128  0.00  0.00    +0.000 F 
ATOM     23  C   UNL     1       3.738   5.578  17.698  0.00  0.00    +0.000 A 
ATOM     24  F   UNL     1       4.392   4.924  16.727  0.00  0.00    +0.000 F 
ATOM     25  C   UNL     1       3.301   6.873  17.460  0.00  0.00    +0.000 A 
ATOM     26  C   UNL     1       2.611   7.516  18.476  0.00  0.00    +0.000 A 
ATOM     27  C   UNL     1       2.039   8.893  18.453  0.00  0.00    +0.000 C 
ENDBRANCH   1  17
TORSDOF 2
ENDMDL
MODEL 9
REMARK VINA RESULT:      -7.6      4.731      8.073
REMARK  Name = 
REMARK  4 active torsions:
REMARK  status: ('A' for Active; 'I' for Inactive)
REMARK    1  A    between atoms: C_1  and  C_2
REMARK    2  A    between atoms: C_2  and  C_3
REMARK    3  A    between atoms: C_10  and  S_11
REMARK    4  A    between atoms: S_11  and  N_14
REMARK                            x       y       z     vdW  Elec       q    Type
REMARK                         _______ _______ _______ _____ _____    ______ ____
ROOT
ATOM      1  S   UNL     1       1.965   4.869  20.353  0.00  0.00    +0.000 S 
ATOM      2  O   UNL     1       0.892   3.904  20.222  0.00  0.00    +0.000 OA
ATOM      3  O   UNL     1       2.591   5.117  21.628  0.00  0.00    +0.000 OA
ENDROOT
BRANCH   1  13
ATOM      4  C   UNL     1       7.598   5.303  18.563  0.00  0.00    +0.000 C 
ATOM      5  C   UNL     1       6.502   5.449  17.512  0.00  0.00    +0.000 C 
ATOM      6  C   UNL     1       6.292   6.905  17.100  0.00  0.00    +0.000 C 
ATOM      7  C   UNL     1       6.855   4.610  16.257  0.00  0.00    +0.000 C 
ATOM      8  O   UNL     1       7.831   4.737  15.534  0.00  0.00    +0.000 OA
ATOM      9  N   UNL     1       5.846   3.670  16.087  0.00  0.00    +0.000 N 
ATOM     10  C   UNL     1       4.887   3.766  17.083  0.00  0.00    +0.000 A 
ATOM     11  C   UNL     1       3.745   3.007  17.220  0.00  0.00    +0.000 A 
ATOM     12  C   UNL     1       2.903   3.297  18.299  0.00  0.00    +0.000 A 
ATOM     13  C   UNL     1       3.223   4.331  19.210  0.00  0.00    +0.000 A 
ATOM     14  C   UNL     1       4.387   5.094  19.049  0.00  0.00    +0.000 A 
ATOM     15  C   UNL     1       5.216   4.794  17.971  0.00  0.00    +0.000 A 
ATOM     16  H   UNL     1       5.843   3.012  15.322  0.00  0.00    +0.000 HD
ENDBRANCH   1  13
BRANCH   1  17
ATOM     17  N   UNL     1       1.347   6.355  19.809  0.00  0.00    +0.000 NA
ATOM     18  C   UNL     1       2.040   7.134  18.723  0.00  0.00    +0.000 C 
ATOM     19  C   UNL     1       1.714   8.577  19.048  0.00  0.00    +0.000 A 
ATOM     20  C   UNL     1       1.840   9.737  18.291  0.00  0.00    +0.000 A 
ATOM     21  C   UNL     1       1.458  10.952  18.875  0.00  0.00    +0.000 A 
ATOM     22  F   UNL     1       1.548  12.082  18.158  0.00  0.00    +0.000 F 
ATOM     23  C   UNL     1       0.985  11.011  20.191  0.00  0.00    +0.000 A 
ATOM     24  F   UNL     1       0.633  12.186  20.734  0.00  0.00    +0.000 F 
ATOM     25  C   UNL     1       0.870   9.857  20.952  0.00  0.00    +0.000 A 
ATOM     26  C   UNL     1       1.225   8.656  20.357  0.00  0.00    +0.000 A 
ATOM     27  C   UNL     1       1.177   7.294  20.964  0.00  0.00    +0.000 C 
ENDBRANCH   1  17
TORSDOF 2
ENDMDL
