MODEL 1
REMARK VINA RESULT:      -8.7      0.000      0.000
REMARK  Name = 
REMARK  8 active torsions:
REMARK  status: ('A' for Active; 'I' for Inactive)
REMARK    1  A    between atoms: C_1  and  C_2
REMARK    2  A    between atoms: C_2  and  N_3
REMARK    3  A    between atoms: C_2  and  C_19
REMARK    4  A    between atoms: N_3  and  C_4
REMARK    5  A    between atoms: N_14  and  C_15
REMARK    6  A    between atoms: C_15  and  C_16
REMARK    7  A    between atoms: N_21  and  C_22
REMARK    8  A    between atoms: C_22  and  C_23
REMARK                            x       y       z     vdW  Elec       q    Type
REMARK                         _______ _______ _______ _____ _____    ______ ____
ROOT
ATOM      1  N   UNL     1       3.986   6.245  17.396  0.00  0.00    +0.000 N 
ATOM      2  H   UNL     1       3.545   5.360  17.143  0.00  0.00    +0.000 HD
ENDROOT
BRANCH   1   3
ATOM      3  C   UNL     1       3.061   7.096  17.994  0.00  0.00    +0.000 A 
ATOM      4  C   UNL     1       2.675   8.267  17.327  0.00  0.00    +0.000 A 
ATOM      5  C   UNL     1       1.845   9.221  17.934  0.00  0.00    +0.000 A 
ATOM      6  C   UNL     1       1.436   9.068  19.262  0.00  0.00    +0.000 A 
ATOM      7  C   UNL     1       1.800   7.893  19.924  0.00  0.00    +0.000 A 
ATOM      8  C   UNL     1       2.598   6.930  19.296  0.00  0.00    +0.000 A 
ATOM      9  C   UNL     1       1.285   7.635  21.306  0.00  0.00    +0.000 C 
ATOM     10  C   UNL     1       1.349   8.913  22.099  0.00  0.00    +0.000 C 
ATOM     11  C   UNL     1       0.684  10.069  21.380  0.00  0.00    +0.000 C 
ATOM     12  O   UNL     1       0.236  11.004  22.049  0.00  0.00    +0.000 OA
ATOM     13  N   UNL     1       0.713  10.070  19.981  0.00  0.00    +0.000 N 
BRANCH  13  14
ATOM     14  C   UNL     1       0.176  11.245  19.298  0.00  0.00    +0.000 C 
BRANCH  14  15
ATOM     15  C   UNL     1      -1.282  11.182  18.917  0.00  0.00    +0.000 C 
ATOM     16  C   UNL     1      -1.743  10.237  17.831  0.00  0.00    +0.000 C 
ATOM     17  C   UNL     1      -1.909  11.719  17.651  0.00  0.00    +0.000 C 
ENDBRANCH  14  15
ENDBRANCH  13  14
ENDBRANCH   1   3
BRANCH   1  19
ATOM     18  C   UNL     1       6.427   6.912  17.458  0.00  0.00    +0.000 C 
ATOM     19  C   UNL     1       5.321   5.999  17.996  0.00  0.00    +0.000 C 
BRANCH  19  20
ATOM     20  C   UNL     1       5.703   4.518  17.730  0.00  0.00    +0.000 C 
ATOM     21  O   UNL     1       6.218   4.167  16.667  0.00  0.00    +0.000 OA
ATOM     22  N   UNL     1       5.505   3.580  18.713  0.00  0.00    +0.000 N 
ATOM     23  H   UNL     1       5.707   2.637  18.406  0.00  0.00    +0.000 HD
BRANCH  22  24
ATOM     24  C   UNL     1       4.665   3.734  19.882  0.00  0.00    +0.000 C 
BRANCH  24  25
ATOM     25  C   UNL     1       3.234   3.397  19.631  0.00  0.00    +0.000 A 
ATOM     26  C   UNL     1       2.867   2.643  18.507  0.00  0.00    +0.000 A 
ATOM     27  C   UNL     1       1.546   2.227  18.344  0.00  0.00    +0.000 A 
ATOM     28  C   UNL     1       0.583   2.574  19.288  0.00  0.00    +0.000 A 
ATOM     29  C   UNL     1       0.937   3.348  20.396  0.00  0.00    +0.000 A 
ATOM     30  C   UNL     1       2.258   3.754  20.556  0.00  0.00    +0.000 A 
ATOM     31  F   UNL     1       2.588   4.474  21.636  0.00  0.00    +0.000 F 
ENDBRANCH  24  25
ENDBRANCH  22  24
ENDBRANCH  19  20
ENDBRANCH   1  19
TORSDOF 7
ENDMDL
MODEL 2
REMARK VINA RESULT:      -8.4      2.850      7.321
REMARK  Name = 
REMARK  8 active torsions:
REMARK  status: ('A' for Active; 'I' for Inactive)
REMARK    1  A    between atoms: C_1  and  C_2
REMARK    2  A    between atoms: C_2  and  N_3
REMARK    3  A    between atoms: C_2  and  C_19
REMARK    4  A    between atoms: N_3  and  C_4
REMARK    5  A    between atoms: N_14  and  C_15
REMARK    6  A    between atoms: C_15  and  C_16
REMARK    7  A    between atoms: N_21  and  C_22
REMARK    8  A    between atoms: C_22  and  C_23
REMARK                            x       y       z     vdW  Elec       q    Type
REMARK                         _______ _______ _______ _____ _____    ______ ____
ROOT
ATOM      1  N   UNL     1       3.141   2.455  20.055  0.00  0.00    +0.000 N 
ATOM      2  H   UNL     1       2.709   1.597  19.711  0.00  0.00    +0.000 HD
ENDROOT
BRANCH   1   3
ATOM      3  C   UNL     1       3.692   3.177  19.000  0.00  0.00    +0.000 A 
ATOM      4  C   UNL     1       3.318   2.863  17.685  0.00  0.00    +0.000 A 
ATOM      5  C   UNL     1       3.932   3.470  16.580  0.00  0.00    +0.000 A 
ATOM      6  C   UNL     1       4.998   4.358  16.755  0.00  0.00    +0.000 A 
ATOM      7  C   UNL     1       5.360   4.690  18.063  0.00  0.00    +0.000 A 
ATOM      8  C   UNL     1       4.715   4.107  19.160  0.00  0.00    +0.000 A 
ATOM      9  C   UNL     1       6.416   5.725  18.295  0.00  0.00    +0.000 C 
ATOM     10  C   UNL     1       7.535   5.514  17.310  0.00  0.00    +0.000 C 
ATOM     11  C   UNL     1       7.034   5.428  15.882  0.00  0.00    +0.000 C 
ATOM     12  O   UNL     1       7.802   5.733  14.966  0.00  0.00    +0.000 OA
ATOM     13  N   UNL     1       5.758   4.896  15.671  0.00  0.00    +0.000 N 
BRANCH  13  14
ATOM     14  C   UNL     1       5.330   4.705  14.286  0.00  0.00    +0.000 C 
BRANCH  14  15
ATOM     15  C   UNL     1       6.025   3.605  13.523  0.00  0.00    +0.000 C 
ATOM     16  C   UNL     1       6.810   3.926  12.271  0.00  0.00    +0.000 C 
ATOM     17  C   UNL     1       5.608   3.028  12.189  0.00  0.00    +0.000 C 
ENDBRANCH  14  15
ENDBRANCH  13  14
ENDBRANCH   1   3
BRANCH   1  19
ATOM     18  C   UNL     1       1.731   2.136  22.133  0.00  0.00    +0.000 C 
ATOM     19  C   UNL     1       2.268   3.098  21.068  0.00  0.00    +0.000 C 
BRANCH  19  20
ATOM     20  C   UNL     1       1.076   3.760  20.326  0.00  0.00    +0.000 C 
ATOM     21  O   UNL     1       0.224   3.085  19.746  0.00  0.00    +0.000 OA
ATOM     22  N   UNL     1       0.937   5.125  20.350  0.00  0.00    +0.000 N 
ATOM     23  H   UNL     1       0.179   5.456  19.766  0.00  0.00    +0.000 HD
BRANCH  22  24
ATOM     24  C   UNL     1       1.962   6.081  20.712  0.00  0.00    +0.000 C 
BRANCH  24  25
ATOM     25  C   UNL     1       2.011   7.268  19.809  0.00  0.00    +0.000 A 
ATOM     26  C   UNL     1       2.677   7.197  18.577  0.00  0.00    +0.000 A 
ATOM     27  C   UNL     1       2.613   8.268  17.686  0.00  0.00    +0.000 A 
ATOM     28  C   UNL     1       1.902   9.417  18.023  0.00  0.00    +0.000 A 
ATOM     29  C   UNL     1       1.259   9.504  19.260  0.00  0.00    +0.000 A 
ATOM     30  C   UNL     1       1.322   8.430  20.143  0.00  0.00    +0.000 A 
ATOM     31  F   UNL     1       0.679   8.516  21.314  0.00  0.00    +0.000 F 
ENDBRANCH  24  25
ENDBRANCH  22  24
ENDBRANCH  19  20
ENDBRANCH   1  19
TORSDOF 7
ENDMDL
MODEL 3
REMARK VINA RESULT:      -8.3      2.000      3.747
REMARK  Name = 
REMARK  8 active torsions:
REMARK  status: ('A' for Active; 'I' for Inactive)
REMARK    1  A    between atoms: C_1  and  C_2
REMARK    2  A    between atoms: C_2  and  N_3
REMARK    3  A    between atoms: C_2  and  C_19
REMARK    4  A    between atoms: N_3  and  C_4
REMARK    5  A    between atoms: N_14  and  C_15
REMARK    6  A    between atoms: C_15  and  C_16
REMARK    7  A    between atoms: N_21  and  C_22
REMARK    8  A    between atoms: C_22  and  C_23
REMARK                            x       y       z     vdW  Elec       q    Type
REMARK                         _______ _______ _______ _____ _____    ______ ____
ROOT
ATOM      1  N   UNL     1       3.422   5.558  18.617  0.00  0.00    +0.000 N 
ATOM      2  H   UNL     1       4.391   5.828  18.443  0.00  0.00    +0.000 HD
ENDROOT
BRANCH   1   3
ATOM      3  C   UNL     1       2.649   6.681  18.900  0.00  0.00    +0.000 A 
ATOM      4  C   UNL     1       2.601   7.731  17.972  0.00  0.00    +0.000 A 
ATOM      5  C   UNL     1       1.942   8.936  18.258  0.00  0.00    +0.000 A 
ATOM      6  C   UNL     1       1.374   9.157  19.516  0.00  0.00    +0.000 A 
ATOM      7  C   UNL     1       1.401   8.106  20.436  0.00  0.00    +0.000 A 
ATOM      8  C   UNL     1       2.029   6.894  20.127  0.00  0.00    +0.000 A 
ATOM      9  C   UNL     1       0.701   8.259  21.751  0.00  0.00    +0.000 C 
ATOM     10  C   UNL     1       0.962   9.642  22.286  0.00  0.00    +0.000 C 
ATOM     11  C   UNL     1       0.644  10.720  21.271  0.00  0.00    +0.000 C 
ATOM     12  O   UNL     1       0.345  11.847  21.676  0.00  0.00    +0.000 OA
ATOM     13  N   UNL     1       0.818  10.411  19.917  0.00  0.00    +0.000 N 
BRANCH  13  14
ATOM     14  C   UNL     1       0.626  11.492  18.951  0.00  0.00    +0.000 C 
BRANCH  14  15
ATOM     15  C   UNL     1      -0.708  11.521  18.247  0.00  0.00    +0.000 C 
ATOM     16  C   UNL     1      -1.976  11.204  19.007  0.00  0.00    +0.000 C 
ATOM     17  C   UNL     1      -1.552  10.328  17.862  0.00  0.00    +0.000 C 
ENDBRANCH  14  15
ENDBRANCH  13  14
ENDBRANCH   1   3
BRANCH   1  19
ATOM     18  C   UNL     1       1.505   4.169  17.721  0.00  0.00    +0.000 C 
ATOM     19  C   UNL     1       2.988   4.542  17.627  0.00  0.00    +0.000 C 
BRANCH  19  20
ATOM     20  C   UNL     1       3.852   3.269  17.832  0.00  0.00    +0.000 C 
ATOM     21  O   UNL     1       3.555   2.418  18.671  0.00  0.00    +0.000 OA
ATOM     22  N   UNL     1       4.950   3.059  17.034  0.00  0.00    +0.000 N 
ATOM     23  H   UNL     1       5.489   2.248  17.308  0.00  0.00    +0.000 HD
BRANCH  22  24
ATOM     24  C   UNL     1       5.615   4.054  16.218  0.00  0.00    +0.000 C 
BRANCH  24  25
ATOM     25  C   UNL     1       6.345   5.082  17.016  0.00  0.00    +0.000 A 
ATOM     26  C   UNL     1       7.288   4.696  17.979  0.00  0.00    +0.000 A 
ATOM     27  C   UNL     1       8.055   5.660  18.633  0.00  0.00    +0.000 A 
ATOM     28  C   UNL     1       7.875   7.010  18.343  0.00  0.00    +0.000 A 
ATOM     29  C   UNL     1       6.919   7.403  17.403  0.00  0.00    +0.000 A 
ATOM     30  C   UNL     1       6.161   6.435  16.750  0.00  0.00    +0.000 A 
ATOM     31  F   UNL     1       5.266   6.824  15.833  0.00  0.00    +0.000 F 
ENDBRANCH  24  25
ENDBRANCH  22  24
ENDBRANCH  19  20
ENDBRANCH   1  19
TORSDOF 7
ENDMDL
MODEL 4
REMARK VINA RESULT:      -8.3      0.883      1.363
REMARK  Name = 
REMARK  8 active torsions:
REMARK  status: ('A' for Active; 'I' for Inactive)
REMARK    1  A    between atoms: C_1  and  C_2
REMARK    2  A    between atoms: C_2  and  N_3
REMARK    3  A    between atoms: C_2  and  C_19
REMARK    4  A    between atoms: N_3  and  C_4
REMARK    5  A    between atoms: N_14  and  C_15
REMARK    6  A    between atoms: C_15  and  C_16
REMARK    7  A    between atoms: N_21  and  C_22
REMARK    8  A    between atoms: C_22  and  C_23
REMARK                            x       y       z     vdW  Elec       q    Type
REMARK                         _______ _______ _______ _____ _____    ______ ____
ROOT
ATOM      1  N   UNL     1       3.819   6.176  17.480  0.00  0.00    +0.000 N 
ATOM      2  H   UNL     1       3.358   5.268  17.405  0.00  0.00    +0.000 HD
ENDROOT
BRANCH   1   3
ATOM      3  C   UNL     1       2.963   7.109  18.058  0.00  0.00    +0.000 A 
ATOM      4  C   UNL     1       2.747   8.335  17.411  0.00  0.00    +0.000 A 
ATOM      5  C   UNL     1       1.997   9.359  18.006  0.00  0.00    +0.000 A 
ATOM      6  C   UNL     1       1.501   9.217  19.305  0.00  0.00    +0.000 A 
ATOM      7  C   UNL     1       1.695   7.991  19.946  0.00  0.00    +0.000 A 
ATOM      8  C   UNL     1       2.414   6.961  19.327  0.00  0.00    +0.000 A 
ATOM      9  C   UNL     1       1.080   7.755  21.290  0.00  0.00    +0.000 C 
ATOM     10  C   UNL     1       1.242   8.996  22.127  0.00  0.00    +0.000 C 
ATOM     11  C   UNL     1       0.750  10.239  21.414  0.00  0.00    +0.000 C 
ATOM     12  O   UNL     1       0.374  11.200  22.091  0.00  0.00    +0.000 OA
ATOM     13  N   UNL     1       0.857  10.274  20.020  0.00  0.00    +0.000 N 
BRANCH  13  14
ATOM     14  C   UNL     1       0.492  11.521  19.350  0.00  0.00    +0.000 C 
BRANCH  14  15
ATOM     15  C   UNL     1       1.564  12.581  19.293  0.00  0.00    +0.000 C 
ATOM     16  C   UNL     1       1.212  13.997  18.899  0.00  0.00    +0.000 C 
ATOM     17  C   UNL     1       2.158  13.199  18.047  0.00  0.00    +0.000 C 
ENDBRANCH  14  15
ENDBRANCH  13  14
ENDBRANCH   1   3
BRANCH   1  19
ATOM     18  C   UNL     1       6.221   6.949  17.285  0.00  0.00    +0.000 C 
ATOM     19  C   UNL     1       5.216   6.003  17.949  0.00  0.00    +0.000 C 
BRANCH  19  20
ATOM     20  C   UNL     1       5.637   4.534  17.678  0.00  0.00    +0.000 C 
ATOM     21  O   UNL     1       6.139   4.195  16.606  0.00  0.00    +0.000 OA
ATOM     22  N   UNL     1       5.490   3.593  18.668  0.00  0.00    +0.000 N 
ATOM     23  H   UNL     1       5.713   2.656  18.358  0.00  0.00    +0.000 HD
BRANCH  22  24
ATOM     24  C   UNL     1       4.671   3.725  19.855  0.00  0.00    +0.000 C 
BRANCH  24  25
ATOM     25  C   UNL     1       3.231   3.417  19.618  0.00  0.00    +0.000 A 
ATOM     26  C   UNL     1       2.843   2.626  18.527  0.00  0.00    +0.000 A 
ATOM     27  C   UNL     1       1.511   2.240  18.381  0.00  0.00    +0.000 A 
ATOM     28  C   UNL     1       0.558   2.653  19.310  0.00  0.00    +0.000 A 
ATOM     29  C   UNL     1       0.934   3.463  20.384  0.00  0.00    +0.000 A 
ATOM     30  C   UNL     1       2.266   3.839  20.526  0.00  0.00    +0.000 A 
ATOM     31  F   UNL     1       2.616   4.595  21.576  0.00  0.00    +0.000 F 
ENDBRANCH  24  25
ENDBRANCH  22  24
ENDBRANCH  19  20
ENDBRANCH   1  19
TORSDOF 7
ENDMDL
MODEL 5
REMARK VINA RESULT:      -8.3      1.185      1.413
REMARK  Name = 
REMARK  8 active torsions:
REMARK  status: ('A' for Active; 'I' for Inactive)
REMARK    1  A    between atoms: C_1  and  C_2
REMARK    2  A    between atoms: C_2  and  N_3
REMARK    3  A    between atoms: C_2  and  C_19
REMARK    4  A    between atoms: N_3  and  C_4
REMARK    5  A    between atoms: N_14  and  C_15
REMARK    6  A    between atoms: C_15  and  C_16
REMARK    7  A    between atoms: N_21  and  C_22
REMARK    8  A    between atoms: C_22  and  C_23
REMARK                            x       y       z     vdW  Elec       q    Type
REMARK                         _______ _______ _______ _____ _____    ______ ____
ROOT
ATOM      1  N   UNL     1       3.875   5.818  17.829  0.00  0.00    +0.000 N 
ATOM      2  H   UNL     1       3.708   4.936  18.317  0.00  0.00    +0.000 HD
ENDROOT
BRANCH   1   3
ATOM      3  C   UNL     1       3.012   6.804  18.301  0.00  0.00    +0.000 A 
ATOM      4  C   UNL     1       2.788   7.948  17.522  0.00  0.00    +0.000 A 
ATOM      5  C   UNL     1       2.031   9.027  18.001  0.00  0.00    +0.000 A 
ATOM      6  C   UNL     1       1.536   9.027  19.309  0.00  0.00    +0.000 A 
ATOM      7  C   UNL     1       1.739   7.881  20.081  0.00  0.00    +0.000 A 
ATOM      8  C   UNL     1       2.465   6.794  19.580  0.00  0.00    +0.000 A 
ATOM      9  C   UNL     1       1.126   7.792  21.443  0.00  0.00    +0.000 C 
ATOM     10  C   UNL     1       1.280   9.119  22.138  0.00  0.00    +0.000 C 
ATOM     11  C   UNL     1       0.779  10.272  21.292  0.00  0.00    +0.000 C 
ATOM     12  O   UNL     1       0.396  11.299  21.857  0.00  0.00    +0.000 OA
ATOM     13  N   UNL     1       0.885  10.153  19.902  0.00  0.00    +0.000 N 
BRANCH  13  14
ATOM     14  C   UNL     1       0.511  11.315  19.098  0.00  0.00    +0.000 C 
BRANCH  14  15
ATOM     15  C   UNL     1      -0.962  11.487  18.826  0.00  0.00    +0.000 C 
ATOM     16  C   UNL     1      -1.817  10.289  18.480  0.00  0.00    +0.000 C 
ATOM     17  C   UNL     1      -1.649  11.399  17.482  0.00  0.00    +0.000 C 
ENDBRANCH  14  15
ENDBRANCH  13  14
ENDBRANCH   1   3
BRANCH   1  19
ATOM     18  C   UNL     1       5.846   5.971  16.249  0.00  0.00    +0.000 C 
ATOM     19  C   UNL     1       5.332   6.058  17.690  0.00  0.00    +0.000 C 
BRANCH  19  20
ATOM     20  C   UNL     1       6.078   5.017  18.565  0.00  0.00    +0.000 C 
ATOM     21  O   UNL     1       7.219   5.224  18.981  0.00  0.00    +0.000 OA
ATOM     22  N   UNL     1       5.443   3.854  18.925  0.00  0.00    +0.000 N 
ATOM     23  H   UNL     1       6.047   3.210  19.420  0.00  0.00    +0.000 HD
BRANCH  22  24
ATOM     24  C   UNL     1       4.250   3.308  18.311  0.00  0.00    +0.000 C 
BRANCH  24  25
ATOM     25  C   UNL     1       3.139   3.076  19.279  0.00  0.00    +0.000 A 
ATOM     26  C   UNL     1       3.416   2.734  20.611  0.00  0.00    +0.000 A 
ATOM     27  C   UNL     1       2.380   2.640  21.539  0.00  0.00    +0.000 A 
ATOM     28  C   UNL     1       1.064   2.868  21.142  0.00  0.00    +0.000 A 
ATOM     29  C   UNL     1       0.779   3.182  19.812  0.00  0.00    +0.000 A 
ATOM     30  C   UNL     1       1.819   3.280  18.892  0.00  0.00    +0.000 A 
ATOM     31  F   UNL     1       1.534   3.608  17.625  0.00  0.00    +0.000 F 
ENDBRANCH  24  25
ENDBRANCH  22  24
ENDBRANCH  19  20
ENDBRANCH   1  19
TORSDOF 7
ENDMDL
MODEL 6
REMARK VINA RESULT:      -8.3      1.092      1.390
REMARK  Name = 
REMARK  8 active torsions:
REMARK  status: ('A' for Active; 'I' for Inactive)
REMARK    1  A    between atoms: C_1  and  C_2
REMARK    2  A    between atoms: C_2  and  N_3
REMARK    3  A    between atoms: C_2  and  C_19
REMARK    4  A    between atoms: N_3  and  C_4
REMARK    5  A    between atoms: N_14  and  C_15
REMARK    6  A    between atoms: C_15  and  C_16
REMARK    7  A    between atoms: N_21  and  C_22
REMARK    8  A    between atoms: C_22  and  C_23
REMARK                            x       y       z     vdW  Elec       q    Type
REMARK                         _______ _______ _______ _____ _____    ______ ____
ROOT
ATOM      1  N   UNL     1       4.461   6.812  17.337  0.00  0.00    +0.000 N 
ATOM      2  H   UNL     1       4.233   6.470  16.402  0.00  0.00    +0.000 HD
ENDROOT
BRANCH   1   3
ATOM      3  C   UNL     1       3.360   7.451  17.900  0.00  0.00    +0.000 A 
ATOM      4  C   UNL     1       2.797   8.555  17.242  0.00  0.00    +0.000 A 
ATOM      5  C   UNL     1       1.770   9.313  17.824  0.00  0.00    +0.000 A 
ATOM      6  C   UNL     1       1.325   9.035  19.119  0.00  0.00    +0.000 A 
ATOM      7  C   UNL     1       1.868   7.925  19.771  0.00  0.00    +0.000 A 
ATOM      8  C   UNL     1       2.866   7.152  19.166  0.00  0.00    +0.000 A 
ATOM      9  C   UNL     1       1.335   7.523  21.110  0.00  0.00    +0.000 C 
ATOM     10  C   UNL     1       1.113   8.759  21.941  0.00  0.00    +0.000 C 
ATOM     11  C   UNL     1       0.282   9.798  21.214  0.00  0.00    +0.000 C 
ATOM     12  O   UNL     1      -0.370  10.606  21.880  0.00  0.00    +0.000 OA
ATOM     13  N   UNL     1       0.388   9.857  19.820  0.00  0.00    +0.000 N 
BRANCH  13  14
ATOM     14  C   UNL     1      -0.323  10.937  19.138  0.00  0.00    +0.000 C 
BRANCH  14  15
ATOM     15  C   UNL     1      -1.693  10.597  18.609  0.00  0.00    +0.000 C 
ATOM     16  C   UNL     1      -1.847   9.979  17.238  0.00  0.00    +0.000 C 
ATOM     17  C   UNL     1      -2.448  11.327  17.521  0.00  0.00    +0.000 C 
ENDBRANCH  14  15
ENDBRANCH  13  14
ENDBRANCH   1   3
BRANCH   1  19
ATOM     18  C   UNL     1       6.705   6.153  18.304  0.00  0.00    +0.000 C 
ATOM     19  C   UNL     1       5.234   5.788  18.082  0.00  0.00    +0.000 C 
BRANCH  19  20
ATOM     20  C   UNL     1       5.150   4.453  17.295  0.00  0.00    +0.000 C 
ATOM     21  O   UNL     1       5.201   4.427  16.064  0.00  0.00    +0.000 OA
ATOM     22  N   UNL     1       5.059   3.267  17.980  0.00  0.00    +0.000 N 
ATOM     23  H   UNL     1       4.923   2.468  17.373  0.00  0.00    +0.000 HD
BRANCH  22  24
ATOM     24  C   UNL     1       4.697   3.111  19.373  0.00  0.00    +0.000 C 
BRANCH  24  25
ATOM     25  C   UNL     1       3.222   3.069  19.600  0.00  0.00    +0.000 A 
ATOM     26  C   UNL     1       2.625   3.901  20.557  0.00  0.00    +0.000 A 
ATOM     27  C   UNL     1       1.236   3.945  20.677  0.00  0.00    +0.000 A 
ATOM     28  C   UNL     1       0.439   3.149  19.857  0.00  0.00    +0.000 A 
ATOM     29  C   UNL     1       1.029   2.299  18.920  0.00  0.00    +0.000 A 
ATOM     30  C   UNL     1       2.415   2.264  18.802  0.00  0.00    +0.000 A 
ATOM     31  F   UNL     1       2.966   1.463  17.881  0.00  0.00    +0.000 F 
ENDBRANCH  24  25
ENDBRANCH  22  24
ENDBRANCH  19  20
ENDBRANCH   1  19
TORSDOF 7
ENDMDL
MODEL 7
REMARK VINA RESULT:      -8.0      2.083      3.931
REMARK  Name = 
REMARK  8 active torsions:
REMARK  status: ('A' for Active; 'I' for Inactive)
REMARK    1  A    between atoms: C_1  and  C_2
REMARK    2  A    between atoms: C_2  and  N_3
REMARK    3  A    between atoms: C_2  and  C_19
REMARK    4  A    between atoms: N_3  and  C_4
REMARK    5  A    between atoms: N_14  and  C_15
REMARK    6  A    between atoms: C_15  and  C_16
REMARK    7  A    between atoms: N_21  and  C_22
REMARK    8  A    between atoms: C_22  and  C_23
REMARK                            x       y       z     vdW  Elec       q    Type
REMARK                         _______ _______ _______ _____ _____    ______ ____
ROOT
ATOM      1  N   UNL     1       3.126   6.224  19.683  0.00  0.00    +0.000 N 
ATOM      2  H   UNL     1       4.060   6.581  19.893  0.00  0.00    +0.000 HD
ENDROOT
BRANCH   1   3
ATOM      3  C   UNL     1       2.195   7.259  19.701  0.00  0.00    +0.000 A 
ATOM      4  C   UNL     1       2.115   8.128  18.603  0.00  0.00    +0.000 A 
ATOM      5  C   UNL     1       1.287   9.259  18.620  0.00  0.00    +0.000 A 
ATOM      6  C   UNL     1       0.568   9.600  19.769  0.00  0.00    +0.000 A 
ATOM      7  C   UNL     1       0.628   8.726  20.858  0.00  0.00    +0.000 A 
ATOM      8  C   UNL     1       1.429   7.579  20.817  0.00  0.00    +0.000 A 
ATOM      9  C   UNL     1      -0.218   8.991  22.064  0.00  0.00    +0.000 C 
ATOM     10  C   UNL     1      -0.187  10.466  22.369  0.00  0.00    +0.000 C 
ATOM     11  C   UNL     1      -0.528  11.311  21.159  0.00  0.00    +0.000 C 
ATOM     12  O   UNL     1      -1.003  12.435  21.336  0.00  0.00    +0.000 OA
ATOM     13  N   UNL     1      -0.177  10.814  19.899  0.00  0.00    +0.000 N 
BRANCH  13  14
ATOM     14  C   UNL     1      -0.399  11.686  18.747  0.00  0.00    +0.000 C 
BRANCH  14  15
ATOM     15  C   UNL     1      -1.707  11.501  18.019  0.00  0.00    +0.000 C 
ATOM     16  C   UNL     1      -2.484  10.213  18.166  0.00  0.00    +0.000 C 
ATOM     17  C   UNL     1      -1.956  10.616  16.819  0.00  0.00    +0.000 C 
ENDBRANCH  14  15
ENDBRANCH  13  14
ENDBRANCH   1   3
BRANCH   1  19
ATOM     18  C   UNL     1       1.819   4.782  18.063  0.00  0.00    +0.000 C 
ATOM     19  C   UNL     1       3.190   5.252  18.563  0.00  0.00    +0.000 C 
BRANCH  19  20
ATOM     20  C   UNL     1       4.012   4.024  19.037  0.00  0.00    +0.000 C 
ATOM     21  O   UNL     1       3.750   3.440  20.089  0.00  0.00    +0.000 OA
ATOM     22  N   UNL     1       5.029   3.545  18.248  0.00  0.00    +0.000 N 
ATOM     23  H   UNL     1       5.554   2.800  18.689  0.00  0.00    +0.000 HD
BRANCH  22  24
ATOM     24  C   UNL     1       5.666   4.250  17.155  0.00  0.00    +0.000 C 
BRANCH  24  25
ATOM     25  C   UNL     1       6.440   5.447  17.594  0.00  0.00    +0.000 A 
ATOM     26  C   UNL     1       7.404   5.339  18.606  0.00  0.00    +0.000 A 
ATOM     27  C   UNL     1       8.210   6.432  18.925  0.00  0.00    +0.000 A 
ATOM     28  C   UNL     1       8.047   7.640  18.251  0.00  0.00    +0.000 A 
ATOM     29  C   UNL     1       7.070   7.762  17.260  0.00  0.00    +0.000 A 
ATOM     30  C   UNL     1       6.274   6.665  16.943  0.00  0.00    +0.000 A 
ATOM     31  F   UNL     1       5.359   6.789  15.973  0.00  0.00    +0.000 F 
ENDBRANCH  24  25
ENDBRANCH  22  24
ENDBRANCH  19  20
ENDBRANCH   1  19
TORSDOF 7
ENDMDL
MODEL 8
REMARK VINA RESULT:      -8.0      2.846      7.412
REMARK  Name = 
REMARK  8 active torsions:
REMARK  status: ('A' for Active; 'I' for Inactive)
REMARK    1  A    between atoms: C_1  and  C_2
REMARK    2  A    between atoms: C_2  and  N_3
REMARK    3  A    between atoms: C_2  and  C_19
REMARK    4  A    between atoms: N_3  and  C_4
REMARK    5  A    between atoms: N_14  and  C_15
REMARK    6  A    between atoms: C_15  and  C_16
REMARK    7  A    between atoms: N_21  and  C_22
REMARK    8  A    between atoms: C_22  and  C_23
REMARK                            x       y       z     vdW  Elec       q    Type
REMARK                         _______ _______ _______ _____ _____    ______ ____
ROOT
ATOM      1  N   UNL     1       3.263   2.528  20.124  0.00  0.00    +0.000 N 
ATOM      2  H   UNL     1       2.878   1.639  19.802  0.00  0.00    +0.000 HD
ENDROOT
BRANCH   1   3
ATOM      3  C   UNL     1       3.798   3.241  19.055  0.00  0.00    +0.000 A 
ATOM      4  C   UNL     1       3.382   2.935  17.751  0.00  0.00    +0.000 A 
ATOM      5  C   UNL     1       3.977   3.532  16.630  0.00  0.00    +0.000 A 
ATOM      6  C   UNL     1       5.064   4.398  16.776  0.00  0.00    +0.000 A 
ATOM      7  C   UNL     1       5.469   4.721  18.073  0.00  0.00    +0.000 A 
ATOM      8  C   UNL     1       4.843   4.149  19.187  0.00  0.00    +0.000 A 
ATOM      9  C   UNL     1       6.551   5.736  18.277  0.00  0.00    +0.000 C 
ATOM     10  C   UNL     1       7.638   5.503  17.260  0.00  0.00    +0.000 C 
ATOM     11  C   UNL     1       7.097   5.429  15.847  0.00  0.00    +0.000 C 
ATOM     12  O   UNL     1       7.845   5.720  14.910  0.00  0.00    +0.000 OA
ATOM     13  N   UNL     1       5.805   4.922  15.671  0.00  0.00    +0.000 N 
BRANCH  13  14
ATOM     14  C   UNL     1       5.335   4.742  14.298  0.00  0.00    +0.000 C 
BRANCH  14  15
ATOM     15  C   UNL     1       5.961   3.607  13.527  0.00  0.00    +0.000 C 
ATOM     16  C   UNL     1       6.784   3.890  12.291  0.00  0.00    +0.000 C 
ATOM     17  C   UNL     1       5.524   3.081  12.179  0.00  0.00    +0.000 C 
ENDBRANCH  14  15
ENDBRANCH  13  14
ENDBRANCH   1   3
BRANCH   1  19
ATOM     18  C   UNL     1       1.816   2.205  22.176  0.00  0.00    +0.000 C 
ATOM     19  C   UNL     1       2.341   3.161  21.100  0.00  0.00    +0.000 C 
BRANCH  19  20
ATOM     20  C   UNL     1       1.143   3.757  20.314  0.00  0.00    +0.000 C 
ATOM     21  O   UNL     1       0.295   3.036  19.787  0.00  0.00    +0.000 OA
ATOM     22  N   UNL     1       0.994   5.120  20.237  0.00  0.00    +0.000 N 
ATOM     23  H   UNL     1       0.233   5.401  19.632  0.00  0.00    +0.000 HD
BRANCH  22  24
ATOM     24  C   UNL     1       2.013   6.108  20.526  0.00  0.00    +0.000 C 
BRANCH  24  25
ATOM     25  C   UNL     1       1.781   7.414  19.844  0.00  0.00    +0.000 A 
ATOM     26  C   UNL     1       1.182   8.479  20.531  0.00  0.00    +0.000 A 
ATOM     27  C   UNL     1       1.081   9.733  19.928  0.00  0.00    +0.000 A 
ATOM     28  C   UNL     1       1.559   9.926  18.634  0.00  0.00    +0.000 A 
ATOM     29  C   UNL     1       2.133   8.862  17.934  0.00  0.00    +0.000 A 
ATOM     30  C   UNL     1       2.236   7.615  18.544  0.00  0.00    +0.000 A 
ATOM     31  F   UNL     1       2.811   6.611  17.871  0.00  0.00    +0.000 F 
ENDBRANCH  24  25
ENDBRANCH  22  24
ENDBRANCH  19  20
ENDBRANCH   1  19
TORSDOF 7
ENDMDL
MODEL 9
REMARK VINA RESULT:      -8.0      1.476      2.007
REMARK  Name = 
REMARK  8 active torsions:
REMARK  status: ('A' for Active; 'I' for Inactive)
REMARK    1  A    between atoms: C_1  and  C_2
REMARK    2  A    between atoms: C_2  and  N_3
REMARK    3  A    between atoms: C_2  and  C_19
REMARK    4  A    between atoms: N_3  and  C_4
REMARK    5  A    between atoms: N_14  and  C_15
REMARK    6  A    between atoms: C_15  and  C_16
REMARK    7  A    between atoms: N_21  and  C_22
REMARK    8  A    between atoms: C_22  and  C_23
REMARK                            x       y       z     vdW  Elec       q    Type
REMARK                         _______ _______ _______ _____ _____    ______ ____
ROOT
ATOM      1  N   UNL     1       3.890   5.732  17.793  0.00  0.00    +0.000 N 
ATOM      2  H   UNL     1       3.722   4.867  18.307  0.00  0.00    +0.000 HD
ENDROOT
BRANCH   1   3
ATOM      3  C   UNL     1       3.052   6.743  18.256  0.00  0.00    +0.000 A 
ATOM      4  C   UNL     1       2.909   7.915  17.499  0.00  0.00    +0.000 A 
ATOM      5  C   UNL     1       2.180   9.014  17.976  0.00  0.00    +0.000 A 
ATOM      6  C   UNL     1       1.632   9.003  19.262  0.00  0.00    +0.000 A 
ATOM      7  C   UNL     1       1.754   7.830  20.011  0.00  0.00    +0.000 A 
ATOM      8  C   UNL     1       2.452   6.725  19.511  0.00  0.00    +0.000 A 
ATOM      9  C   UNL     1       1.081   7.734  21.345  0.00  0.00    +0.000 C 
ATOM     10  C   UNL     1       1.263   9.036  22.080  0.00  0.00    +0.000 C 
ATOM     11  C   UNL     1       0.848  10.230  21.245  0.00  0.00    +0.000 C 
ATOM     12  O   UNL     1       0.486  11.259  21.822  0.00  0.00    +0.000 OA
ATOM     13  N   UNL     1       1.005  10.141  19.858  0.00  0.00    +0.000 N 
BRANCH  13  14
ATOM     14  C   UNL     1       0.716  11.338  19.071  0.00  0.00    +0.000 C 
BRANCH  14  15
ATOM     15  C   UNL     1       1.890  12.238  18.776  0.00  0.00    +0.000 C 
ATOM     16  C   UNL     1       2.206  13.399  19.691  0.00  0.00    +0.000 C 
ATOM     17  C   UNL     1       1.832  13.657  18.259  0.00  0.00    +0.000 C 
ENDBRANCH  14  15
ENDBRANCH  13  14
ENDBRANCH   1   3
BRANCH   1  19
ATOM     18  C   UNL     1       5.830   5.809  16.168  0.00  0.00    +0.000 C 
ATOM     19  C   UNL     1       5.348   5.948  17.616  0.00  0.00    +0.000 C 
BRANCH  19  20
ATOM     20  C   UNL     1       6.098   4.922  18.507  0.00  0.00    +0.000 C 
ATOM     21  O   UNL     1       7.243   5.135  18.910  0.00  0.00    +0.000 OA
ATOM     22  N   UNL     1       5.462   3.769  18.896  0.00  0.00    +0.000 N 
ATOM     23  H   UNL     1       6.068   3.134  19.400  0.00  0.00    +0.000 HD
BRANCH  22  24
ATOM     24  C   UNL     1       4.263   3.215  18.304  0.00  0.00    +0.000 C 
BRANCH  24  25
ATOM     25  C   UNL     1       3.153   3.024  19.282  0.00  0.00    +0.000 A 
ATOM     26  C   UNL     1       3.431   2.747  20.628  0.00  0.00    +0.000 A 
ATOM     27  C   UNL     1       2.394   2.693  21.560  0.00  0.00    +0.000 A 
ATOM     28  C   UNL     1       1.078   2.896  21.153  0.00  0.00    +0.000 A 
ATOM     29  C   UNL     1       0.792   3.145  19.809  0.00  0.00    +0.000 A 
ATOM     30  C   UNL     1       1.831   3.204  18.886  0.00  0.00    +0.000 A 
ATOM     31  F   UNL     1       1.545   3.470  17.605  0.00  0.00    +0.000 F 
ENDBRANCH  24  25
ENDBRANCH  22  24
ENDBRANCH  19  20
ENDBRANCH   1  19
TORSDOF 7
ENDMDL
