MODEL 1
REMARK VINA RESULT:      -8.9      0.000      0.000
REMARK  Name = 
REMARK  8 active torsions:
REMARK  status: ('A' for Active; 'I' for Inactive)
REMARK    1  A    between atoms: C_1  and  C_2
REMARK    2  A    between atoms: C_2  and  N_3
REMARK    3  A    between atoms: C_7  and  C_8
REMARK    4  A    between atoms: C_8  and  C_9
REMARK    5  A    between atoms: C_8  and  C_10
REMARK    6  A    between atoms: C_14  and  N_15
REMARK    7  A    between atoms: C_20  and  C_21
REMARK    8  A    between atoms: C_23  and  C_24
REMARK                            x       y       z     vdW  Elec       q    Type
REMARK                         _______ _______ _______ _____ _____    ______ ____
ROOT
ATOM      1  C   UNL     1       1.658   8.145  20.069  0.00  0.00    +0.000 A 
ATOM      2  C   UNL     1       2.136   8.797  18.923  0.00  0.00    +0.000 A 
ATOM      3  C   UNL     1       2.534   8.077  17.796  0.00  0.00    +0.000 A 
ATOM      4  C   UNL     1       2.651   6.697  17.856  0.00  0.00    +0.000 A 
ATOM      5  C   UNL     1       2.558   6.094  19.105  0.00  0.00    +0.000 A 
ATOM      6  C   UNL     1       1.885   6.768  20.156  0.00  0.00    +0.000 A 
ENDROOT
BRANCH   5   7
ATOM      7  N   UNL     1       3.665   5.239  19.392  0.00  0.00    +0.000 N 
ATOM      8  C   UNL     1       5.004   5.808  19.373  0.00  0.00    +0.000 C 
ATOM      9  C   UNL     1       5.526   5.395  18.034  0.00  0.00    +0.000 A 
ATOM     10  C   UNL     1       4.782   4.297  17.612  0.00  0.00    +0.000 A 
ATOM     11  C   UNL     1       4.857   3.786  16.323  0.00  0.00    +0.000 A 
ATOM     12  C   UNL     1       5.750   4.402  15.449  0.00  0.00    +0.000 A 
ATOM     13  C   UNL     1       5.820   3.969  14.014  0.00  0.00    +0.000 C 
ATOM     14  C   UNL     1       6.554   5.475  15.897  0.00  0.00    +0.000 A 
ATOM     15  C   UNL     1       6.454   5.988  17.213  0.00  0.00    +0.000 A 
ATOM     16  C   UNL     1       3.692   4.083  18.553  0.00  0.00    +0.000 C 
ATOM     17  O   UNL     1       2.859   3.204  18.464  0.00  0.00    +0.000 OA
BRANCH  15  18
ATOM     18  C   UNL     1       7.287   7.174  17.620  0.00  0.00    +0.000 C 
ATOM     19  F   UNL     1       8.192   7.551  16.674  0.00  0.00    +0.000 F 
ATOM     20  F   UNL     1       6.536   8.280  17.870  0.00  0.00    +0.000 F 
ATOM     21  F   UNL     1       8.009   6.942  18.750  0.00  0.00    +0.000 F 
ENDBRANCH  15  18
ENDBRANCH   5   7
BRANCH   1  22
ATOM     22  C   UNL     1       0.997   8.976  21.158  0.00  0.00    +0.000 C 
ATOM     23  C   UNL     1      -0.269   8.314  21.730  0.00  0.00    +0.000 C 
BRANCH  22  28
ATOM     24  N   UNL     1      -0.227  10.882  19.889  0.00  0.00    +0.000 N 
ATOM     25  C   UNL     1       0.036  12.214  19.730  0.00  0.00    +0.000 A 
ATOM     26  N   UNL     1       1.038  12.564  20.494  0.00  0.00    +0.000 NA
ATOM     27  N   UNL     1       1.460  11.441  21.152  0.00  0.00    +0.000 NA
ATOM     28  C   UNL     1       0.719  10.412  20.773  0.00  0.00    +0.000 A 
BRANCH  24  30
ATOM     29  C   UNL     1      -1.028  10.118  17.681  0.00  0.00    +0.000 C 
ATOM     30  C   UNL     1      -1.286  10.201  19.178  0.00  0.00    +0.000 C 
ENDBRANCH  24  30
ENDBRANCH  22  28
ENDBRANCH   1  22
TORSDOF 5
ENDMDL
MODEL 2
REMARK VINA RESULT:      -8.8      3.614      8.055
REMARK  Name = 
REMARK  8 active torsions:
REMARK  status: ('A' for Active; 'I' for Inactive)
REMARK    1  A    between atoms: C_1  and  C_2
REMARK    2  A    between atoms: C_2  and  N_3
REMARK    3  A    between atoms: C_7  and  C_8
REMARK    4  A    between atoms: C_8  and  C_9
REMARK    5  A    between atoms: C_8  and  C_10
REMARK    6  A    between atoms: C_14  and  N_15
REMARK    7  A    between atoms: C_20  and  C_21
REMARK    8  A    between atoms: C_23  and  C_24
REMARK                            x       y       z     vdW  Elec       q    Type
REMARK                         _______ _______ _______ _____ _____    ______ ____
ROOT
ATOM      1  C   UNL     1       3.056   4.628  18.707  0.00  0.00    +0.000 A 
ATOM      2  C   UNL     1       2.821   4.197  20.021  0.00  0.00    +0.000 A 
ATOM      3  C   UNL     1       1.914   4.863  20.846  0.00  0.00    +0.000 A 
ATOM      4  C   UNL     1       1.375   6.078  20.452  0.00  0.00    +0.000 A 
ATOM      5  C   UNL     1       1.914   6.690  19.328  0.00  0.00    +0.000 A 
ATOM      6  C   UNL     1       2.597   5.903  18.365  0.00  0.00    +0.000 A 
ENDROOT
BRANCH   5   7
ATOM      7  N   UNL     1       2.316   8.039  19.569  0.00  0.00    +0.000 N 
ATOM      8  C   UNL     1       1.881   8.683  20.800  0.00  0.00    +0.000 C 
ATOM      9  C   UNL     1       0.721   9.514  20.352  0.00  0.00    +0.000 A 
ATOM     10  C   UNL     1       0.851   9.716  18.981  0.00  0.00    +0.000 A 
ATOM     11  C   UNL     1      -0.157  10.267  18.202  0.00  0.00    +0.000 A 
ATOM     12  C   UNL     1      -1.324  10.654  18.856  0.00  0.00    +0.000 A 
ATOM     13  C   UNL     1      -2.493  11.170  18.070  0.00  0.00    +0.000 C 
ATOM     14  C   UNL     1      -1.430  10.509  20.259  0.00  0.00    +0.000 A 
ATOM     15  C   UNL     1      -0.395   9.935  21.034  0.00  0.00    +0.000 A 
ATOM     16  C   UNL     1       1.964   8.913  18.495  0.00  0.00    +0.000 C 
ATOM     17  O   UNL     1       2.334   8.864  17.340  0.00  0.00    +0.000 OA
BRANCH  15  18
ATOM     18  C   UNL     1      -0.585   9.745  22.515  0.00  0.00    +0.000 C 
ATOM     19  F   UNL     1      -1.019   8.498  22.851  0.00  0.00    +0.000 F 
ATOM     20  F   UNL     1       0.563   9.934  23.219  0.00  0.00    +0.000 F 
ATOM     21  F   UNL     1      -1.498  10.607  23.039  0.00  0.00    +0.000 F 
ENDBRANCH  15  18
ENDBRANCH   5   7
BRANCH   1  22
ATOM     22  C   UNL     1       3.845   3.721  17.774  0.00  0.00    +0.000 C 
ATOM     23  C   UNL     1       3.776   2.239  18.179  0.00  0.00    +0.000 C 
BRANCH  22  28
ATOM     24  N   UNL     1       5.905   4.406  16.349  0.00  0.00    +0.000 N 
ATOM     25  C   UNL     1       7.232   4.558  16.643  0.00  0.00    +0.000 A 
ATOM     26  N   UNL     1       7.418   4.452  17.932  0.00  0.00    +0.000 NA
ATOM     27  N   UNL     1       6.198   4.202  18.500  0.00  0.00    +0.000 NA
ATOM     28  C   UNL     1       5.280   4.145  17.548  0.00  0.00    +0.000 A 
BRANCH  24  30
ATOM     29  C   UNL     1       6.350   3.907  13.971  0.00  0.00    +0.000 C 
ATOM     30  C   UNL     1       5.386   4.477  15.001  0.00  0.00    +0.000 C 
ENDBRANCH  24  30
ENDBRANCH  22  28
ENDBRANCH   1  22
TORSDOF 5
ENDMDL
MODEL 3
REMARK VINA RESULT:      -8.6      3.584      7.894
REMARK  Name = 
REMARK  8 active torsions:
REMARK  status: ('A' for Active; 'I' for Inactive)
REMARK    1  A    between atoms: C_1  and  C_2
REMARK    2  A    between atoms: C_2  and  N_3
REMARK    3  A    between atoms: C_7  and  C_8
REMARK    4  A    between atoms: C_8  and  C_9
REMARK    5  A    between atoms: C_8  and  C_10
REMARK    6  A    between atoms: C_14  and  N_15
REMARK    7  A    between atoms: C_20  and  C_21
REMARK    8  A    between atoms: C_23  and  C_24
REMARK                            x       y       z     vdW  Elec       q    Type
REMARK                         _______ _______ _______ _____ _____    ______ ____
ROOT
ATOM      1  C   UNL     1       2.904   4.291  18.502  0.00  0.00    +0.000 A 
ATOM      2  C   UNL     1       2.764   3.835  19.821  0.00  0.00    +0.000 A 
ATOM      3  C   UNL     1       1.962   4.515  20.738  0.00  0.00    +0.000 A 
ATOM      4  C   UNL     1       1.446   5.763  20.422  0.00  0.00    +0.000 A 
ATOM      5  C   UNL     1       1.912   6.382  19.269  0.00  0.00    +0.000 A 
ATOM      6  C   UNL     1       2.474   5.593  18.232  0.00  0.00    +0.000 A 
ENDROOT
BRANCH   5   7
ATOM      7  N   UNL     1       2.393   7.706  19.506  0.00  0.00    +0.000 N 
ATOM      8  C   UNL     1       1.963   8.394  20.714  0.00  0.00    +0.000 C 
ATOM      9  C   UNL     1       0.873   9.291  20.219  0.00  0.00    +0.000 A 
ATOM     10  C   UNL     1       1.059   9.465  18.851  0.00  0.00    +0.000 A 
ATOM     11  C   UNL     1       0.113  10.068  18.033  0.00  0.00    +0.000 A 
ATOM     12  C   UNL     1      -1.046  10.539  18.645  0.00  0.00    +0.000 A 
ATOM     13  C   UNL     1      -2.155  11.117  17.816  0.00  0.00    +0.000 C 
ATOM     14  C   UNL     1      -1.205  10.421  20.045  0.00  0.00    +0.000 A 
ATOM     15  C   UNL     1      -0.233   9.793  20.860  0.00  0.00    +0.000 A 
ATOM     16  C   UNL     1       2.132   8.584  18.410  0.00  0.00    +0.000 C 
ATOM     17  O   UNL     1       2.533   8.495  17.268  0.00  0.00    +0.000 OA
BRANCH  15  18
ATOM     18  C   UNL     1      -0.481   9.637  22.336  0.00  0.00    +0.000 C 
ATOM     19  F   UNL     1      -1.389  10.524  22.830  0.00  0.00    +0.000 F 
ATOM     20  F   UNL     1      -0.960   8.405  22.660  0.00  0.00    +0.000 F 
ATOM     21  F   UNL     1       0.647   9.812  23.077  0.00  0.00    +0.000 F 
ENDBRANCH  15  18
ENDBRANCH   5   7
BRANCH   1  22
ATOM     22  C   UNL     1       3.568   3.378  17.482  0.00  0.00    +0.000 C 
ATOM     23  C   UNL     1       3.772   1.945  18.005  0.00  0.00    +0.000 C 
BRANCH  22  28
ATOM     24  N   UNL     1       5.864   4.588  17.550  0.00  0.00    +0.000 N 
ATOM     25  C   UNL     1       6.708   5.040  16.573  0.00  0.00    +0.000 A 
ATOM     26  N   UNL     1       6.288   4.641  15.401  0.00  0.00    +0.000 NA
ATOM     27  N   UNL     1       5.133   3.933  15.603  0.00  0.00    +0.000 NA
ATOM     28  C   UNL     1       4.854   3.919  16.896  0.00  0.00    +0.000 A 
BRANCH  24  30
ATOM     29  C   UNL     1       7.352   5.641  19.217  0.00  0.00    +0.000 C 
ATOM     30  C   UNL     1       6.070   4.865  18.954  0.00  0.00    +0.000 C 
ENDBRANCH  24  30
ENDBRANCH  22  28
ENDBRANCH   1  22
TORSDOF 5
ENDMDL
MODEL 4
REMARK VINA RESULT:      -8.5      0.829      1.396
REMARK  Name = 
REMARK  8 active torsions:
REMARK  status: ('A' for Active; 'I' for Inactive)
REMARK    1  A    between atoms: C_1  and  C_2
REMARK    2  A    between atoms: C_2  and  N_3
REMARK    3  A    between atoms: C_7  and  C_8
REMARK    4  A    between atoms: C_8  and  C_9
REMARK    5  A    between atoms: C_8  and  C_10
REMARK    6  A    between atoms: C_14  and  N_15
REMARK    7  A    between atoms: C_20  and  C_21
REMARK    8  A    between atoms: C_23  and  C_24
REMARK                            x       y       z     vdW  Elec       q    Type
REMARK                         _______ _______ _______ _____ _____    ______ ____
ROOT
ATOM      1  C   UNL     1       1.823   8.272  19.636  0.00  0.00    +0.000 A 
ATOM      2  C   UNL     1       2.223   8.698  18.362  0.00  0.00    +0.000 A 
ATOM      3  C   UNL     1       2.539   7.779  17.360  0.00  0.00    +0.000 A 
ATOM      4  C   UNL     1       2.654   6.431  17.661  0.00  0.00    +0.000 A 
ATOM      5  C   UNL     1       2.644   6.065  19.002  0.00  0.00    +0.000 A 
ATOM      6  C   UNL     1       2.049   6.930  19.956  0.00  0.00    +0.000 A 
ENDROOT
BRANCH   5   7
ATOM      7  N   UNL     1       3.764   5.257  19.364  0.00  0.00    +0.000 N 
ATOM      8  C   UNL     1       5.087   5.864  19.363  0.00  0.00    +0.000 C 
ATOM      9  C   UNL     1       5.665   5.405  18.061  0.00  0.00    +0.000 A 
ATOM     10  C   UNL     1       4.967   4.268  17.667  0.00  0.00    +0.000 A 
ATOM     11  C   UNL     1       5.099   3.701  16.406  0.00  0.00    +0.000 A 
ATOM     12  C   UNL     1       6.004   4.302  15.534  0.00  0.00    +0.000 A 
ATOM     13  C   UNL     1       6.134   3.806  14.124  0.00  0.00    +0.000 C 
ATOM     14  C   UNL     1       6.761   5.418  15.958  0.00  0.00    +0.000 A 
ATOM     15  C   UNL     1       6.603   5.987  17.244  0.00  0.00    +0.000 A 
ATOM     16  C   UNL     1       3.851   4.065  18.582  0.00  0.00    +0.000 C 
ATOM     17  O   UNL     1       3.047   3.159  18.506  0.00  0.00    +0.000 OA
BRANCH  15  18
ATOM     18  C   UNL     1       7.389   7.214  17.622  0.00  0.00    +0.000 C 
ATOM     19  F   UNL     1       8.275   7.608  16.665  0.00  0.00    +0.000 F 
ATOM     20  F   UNL     1       6.594   8.295  17.851  0.00  0.00    +0.000 F 
ATOM     21  F   UNL     1       8.122   7.037  18.754  0.00  0.00    +0.000 F 
ENDBRANCH  15  18
ENDBRANCH   5   7
BRANCH   1  22
ATOM     22  C   UNL     1       1.242   9.297  20.598  0.00  0.00    +0.000 C 
ATOM     23  C   UNL     1       0.583   8.654  21.832  0.00  0.00    +0.000 C 
BRANCH  22  28
ATOM     24  N   UNL     1       0.574  11.618  19.646  0.00  0.00    +0.000 N 
ATOM     25  C   UNL     1      -0.624  12.162  19.274  0.00  0.00    +0.000 A 
ATOM     26  N   UNL     1      -1.557  11.247  19.303  0.00  0.00    +0.000 NA
ATOM     27  N   UNL     1      -0.973  10.083  19.723  0.00  0.00    +0.000 NA
ATOM     28  C   UNL     1       0.310  10.303  19.960  0.00  0.00    +0.000 A 
BRANCH  24  30
ATOM     29  C   UNL     1       2.372  12.685  18.329  0.00  0.00    +0.000 C 
ATOM     30  C   UNL     1       1.799  12.384  19.706  0.00  0.00    +0.000 C 
ENDBRANCH  24  30
ENDBRANCH  22  28
ENDBRANCH   1  22
TORSDOF 5
ENDMDL
MODEL 5
REMARK VINA RESULT:      -8.4      4.002      8.278
REMARK  Name = 
REMARK  8 active torsions:
REMARK  status: ('A' for Active; 'I' for Inactive)
REMARK    1  A    between atoms: C_1  and  C_2
REMARK    2  A    between atoms: C_2  and  N_3
REMARK    3  A    between atoms: C_7  and  C_8
REMARK    4  A    between atoms: C_8  and  C_9
REMARK    5  A    between atoms: C_8  and  C_10
REMARK    6  A    between atoms: C_14  and  N_15
REMARK    7  A    between atoms: C_20  and  C_21
REMARK    8  A    between atoms: C_23  and  C_24
REMARK                            x       y       z     vdW  Elec       q    Type
REMARK                         _______ _______ _______ _____ _____    ______ ____
ROOT
ATOM      1  C   UNL     1       2.654   6.686  19.307  0.00  0.00    +0.000 A 
ATOM      2  C   UNL     1       2.487   7.123  17.985  0.00  0.00    +0.000 A 
ATOM      3  C   UNL     1       2.146   8.445  17.701  0.00  0.00    +0.000 A 
ATOM      4  C   UNL     1       1.771   9.304  18.723  0.00  0.00    +0.000 A 
ATOM      5  C   UNL     1       1.558   8.756  19.982  0.00  0.00    +0.000 A 
ATOM      6  C   UNL     1       2.170   7.521  20.318  0.00  0.00    +0.000 A 
ENDROOT
BRANCH   5   7
ATOM      7  N   UNL     1       0.283   9.098  20.527  0.00  0.00    +0.000 N 
ATOM      8  C   UNL     1      -0.867   9.125  19.636  0.00  0.00    +0.000 C 
ATOM      9  C   UNL     1      -1.030  10.583  19.343  0.00  0.00    +0.000 A 
ATOM     10  C   UNL     1      -0.400  11.291  20.362  0.00  0.00    +0.000 A 
ATOM     11  C   UNL     1      -0.177  12.660  20.301  0.00  0.00    +0.000 A 
ATOM     12  C   UNL     1      -0.645  13.329  19.173  0.00  0.00    +0.000 A 
ATOM     13  C   UNL     1      -0.359  14.791  18.991  0.00  0.00    +0.000 C 
ATOM     14  C   UNL     1      -1.343  12.620  18.169  0.00  0.00    +0.000 A 
ATOM     15  C   UNL     1      -1.551  11.222  18.245  0.00  0.00    +0.000 A 
ATOM     16  C   UNL     1       0.304  10.347  21.219  0.00  0.00    +0.000 C 
ATOM     17  O   UNL     1       0.957  10.650  22.197  0.00  0.00    +0.000 OA
BRANCH  15  18
ATOM     18  C   UNL     1      -2.245  10.506  17.117  0.00  0.00    +0.000 C 
ATOM     19  F   UNL     1      -3.401   9.891  17.494  0.00  0.00    +0.000 F 
ATOM     20  F   UNL     1      -2.589  11.341  16.099  0.00  0.00    +0.000 F 
ATOM     21  F   UNL     1      -1.473   9.532  16.563  0.00  0.00    +0.000 F 
ENDBRANCH  15  18
ENDBRANCH   5   7
BRANCH   1  22
ATOM     22  C   UNL     1       3.279   5.319  19.550  0.00  0.00    +0.000 C 
ATOM     23  C   UNL     1       4.792   5.295  19.274  0.00  0.00    +0.000 C 
BRANCH  22  28
ATOM     24  N   UNL     1       1.610   3.343  19.330  0.00  0.00    +0.000 N 
ATOM     25  C   UNL     1       1.449   2.359  18.393  0.00  0.00    +0.000 A 
ATOM     26  N   UNL     1       2.229   2.586  17.370  0.00  0.00    +0.000 NA
ATOM     27  N   UNL     1       2.936   3.726  17.643  0.00  0.00    +0.000 NA
ATOM     28  C   UNL     1       2.589   4.177  18.838  0.00  0.00    +0.000 A 
BRANCH  24  30
ATOM     29  C   UNL     1       1.631   2.703  21.716  0.00  0.00    +0.000 C 
ATOM     30  C   UNL     1       0.875   3.368  20.575  0.00  0.00    +0.000 C 
ENDBRANCH  24  30
ENDBRANCH  22  28
ENDBRANCH   1  22
TORSDOF 5
ENDMDL
MODEL 6
REMARK VINA RESULT:      -8.4      0.943      1.697
REMARK  Name = 
REMARK  8 active torsions:
REMARK  status: ('A' for Active; 'I' for Inactive)
REMARK    1  A    between atoms: C_1  and  C_2
REMARK    2  A    between atoms: C_2  and  N_3
REMARK    3  A    between atoms: C_7  and  C_8
REMARK    4  A    between atoms: C_8  and  C_9
REMARK    5  A    between atoms: C_8  and  C_10
REMARK    6  A    between atoms: C_14  and  N_15
REMARK    7  A    between atoms: C_20  and  C_21
REMARK    8  A    between atoms: C_23  and  C_24
REMARK                            x       y       z     vdW  Elec       q    Type
REMARK                         _______ _______ _______ _____ _____    ______ ____
ROOT
ATOM      1  C   UNL     1       1.634   8.270  19.738  0.00  0.00    +0.000 A 
ATOM      2  C   UNL     1       2.185   8.888  18.606  0.00  0.00    +0.000 A 
ATOM      3  C   UNL     1       2.666   8.134  17.535  0.00  0.00    +0.000 A 
ATOM      4  C   UNL     1       2.792   6.758  17.652  0.00  0.00    +0.000 A 
ATOM      5  C   UNL     1       2.617   6.198  18.911  0.00  0.00    +0.000 A 
ATOM      6  C   UNL     1       1.867   6.900  19.889  0.00  0.00    +0.000 A 
ENDROOT
BRANCH   5   7
ATOM      7  N   UNL     1       3.709   5.365  19.304  0.00  0.00    +0.000 N 
ATOM      8  C   UNL     1       5.046   5.940  19.330  0.00  0.00    +0.000 C 
ATOM      9  C   UNL     1       5.642   5.460  18.045  0.00  0.00    +0.000 A 
ATOM     10  C   UNL     1       4.927   4.338  17.641  0.00  0.00    +0.000 A 
ATOM     11  C   UNL     1       5.075   3.760  16.387  0.00  0.00    +0.000 A 
ATOM     12  C   UNL     1       6.013   4.334  15.532  0.00  0.00    +0.000 A 
ATOM     13  C   UNL     1       6.163   3.826  14.128  0.00  0.00    +0.000 C 
ATOM     14  C   UNL     1       6.787   5.435  15.967  0.00  0.00    +0.000 A 
ATOM     15  C   UNL     1       6.612   6.015  17.246  0.00  0.00    +0.000 A 
ATOM     16  C   UNL     1       3.786   4.167  18.531  0.00  0.00    +0.000 C 
ATOM     17  O   UNL     1       2.962   3.280  18.442  0.00  0.00    +0.000 OA
BRANCH  15  18
ATOM     18  C   UNL     1       7.418   7.226  17.635  0.00  0.00    +0.000 C 
ATOM     19  F   UNL     1       8.162   7.043  18.762  0.00  0.00    +0.000 F 
ATOM     20  F   UNL     1       8.301   7.599  16.670  0.00  0.00    +0.000 F 
ATOM     21  F   UNL     1       6.640   8.315  17.879  0.00  0.00    +0.000 F 
ENDBRANCH  15  18
ENDBRANCH   5   7
BRANCH   1  22
ATOM     22  C   UNL     1       0.891   9.130  20.749  0.00  0.00    +0.000 C 
ATOM     23  C   UNL     1       0.177   8.301  21.831  0.00  0.00    +0.000 C 
BRANCH  22  28
ATOM     24  N   UNL     1      -0.596  11.258  20.737  0.00  0.00    +0.000 N 
ATOM     25  C   UNL     1      -1.532  11.736  19.862  0.00  0.00    +0.000 A 
ATOM     26  N   UNL     1      -1.542  11.005  18.778  0.00  0.00    +0.000 NA
ATOM     27  N   UNL     1      -0.615  10.012  18.948  0.00  0.00    +0.000 NA
ATOM     28  C   UNL     1      -0.056  10.140  20.141  0.00  0.00    +0.000 A 
BRANCH  24  30
ATOM     29  C   UNL     1      -1.386  11.473  23.068  0.00  0.00    +0.000 C 
ATOM     30  C   UNL     1      -0.347  11.863  22.027  0.00  0.00    +0.000 C 
ENDBRANCH  24  30
ENDBRANCH  22  28
ENDBRANCH   1  22
TORSDOF 5
ENDMDL
MODEL 7
REMARK VINA RESULT:      -8.0      6.138      8.715
REMARK  Name = 
REMARK  8 active torsions:
REMARK  status: ('A' for Active; 'I' for Inactive)
REMARK    1  A    between atoms: C_1  and  C_2
REMARK    2  A    between atoms: C_2  and  N_3
REMARK    3  A    between atoms: C_7  and  C_8
REMARK    4  A    between atoms: C_8  and  C_9
REMARK    5  A    between atoms: C_8  and  C_10
REMARK    6  A    between atoms: C_14  and  N_15
REMARK    7  A    between atoms: C_20  and  C_21
REMARK    8  A    between atoms: C_23  and  C_24
REMARK                            x       y       z     vdW  Elec       q    Type
REMARK                         _______ _______ _______ _____ _____    ______ ____
ROOT
ATOM      1  C   UNL     1      -4.315  10.997  17.997  0.00  0.00    +0.000 A 
ATOM      2  C   UNL     1      -4.228  11.225  16.617  0.00  0.00    +0.000 A 
ATOM      3  C   UNL     1      -3.185  10.689  15.861  0.00  0.00    +0.000 A 
ATOM      4  C   UNL     1      -2.107  10.085  16.491  0.00  0.00    +0.000 A 
ATOM      5  C   UNL     1      -2.010  10.213  17.871  0.00  0.00    +0.000 A 
ATOM      6  C   UNL     1      -3.177  10.488  18.630  0.00  0.00    +0.000 A 
ENDROOT
BRANCH   5   7
ATOM      7  N   UNL     1      -0.742  10.717  18.294  0.00  0.00    +0.000 N 
ATOM      8  C   UNL     1      -0.036  10.016  19.356  0.00  0.00    +0.000 C 
ATOM      9  C   UNL     1      -0.338  10.846  20.564  0.00  0.00    +0.000 A 
ATOM     10  C   UNL     1      -0.700  12.115  20.123  0.00  0.00    +0.000 A 
ATOM     11  C   UNL     1      -1.245  13.078  20.963  0.00  0.00    +0.000 A 
ATOM     12  C   UNL     1      -1.391  12.737  22.305  0.00  0.00    +0.000 A 
ATOM     13  C   UNL     1      -2.057  13.687  23.256  0.00  0.00    +0.000 C 
ATOM     14  C   UNL     1      -0.961  11.471  22.765  0.00  0.00    +0.000 A 
ATOM     15  C   UNL     1      -0.419  10.500  21.890  0.00  0.00    +0.000 A 
ATOM     16  C   UNL     1      -0.802  12.093  18.670  0.00  0.00    +0.000 C 
ATOM     17  O   UNL     1      -1.105  13.045  17.980  0.00  0.00    +0.000 OA
BRANCH  15  18
ATOM     18  C   UNL     1      -0.037   9.144  22.420  0.00  0.00    +0.000 C 
ATOM     19  F   UNL     1      -0.101   9.054  23.778  0.00  0.00    +0.000 F 
ATOM     20  F   UNL     1      -0.840   8.152  21.950  0.00  0.00    +0.000 F 
ATOM     21  F   UNL     1       1.235   8.791  22.087  0.00  0.00    +0.000 F 
ENDBRANCH  15  18
ENDBRANCH   5   7
BRANCH   1  22
ATOM     22  C   UNL     1      -5.599  11.377  18.719  0.00  0.00    +0.000 C 
ATOM     23  C   UNL     1      -6.699  11.873  17.764  0.00  0.00    +0.000 C 
BRANCH  22  28
ATOM     24  N   UNL     1      -6.202  12.489  20.987  0.00  0.00    +0.000 N 
ATOM     25  C   UNL     1      -5.747  13.611  21.624  0.00  0.00    +0.000 A 
ATOM     26  N   UNL     1      -4.722  14.104  20.981  0.00  0.00    +0.000 NA
ATOM     27  N   UNL     1      -4.507  13.310  19.887  0.00  0.00    +0.000 NA
ATOM     28  C   UNL     1      -5.414  12.346  19.866  0.00  0.00    +0.000 A 
BRANCH  24  30
ATOM     29  C   UNL     1      -7.763  12.120  22.865  0.00  0.00    +0.000 C 
ATOM     30  C   UNL     1      -7.327  11.717  21.464  0.00  0.00    +0.000 C 
ENDBRANCH  24  30
ENDBRANCH  22  28
ENDBRANCH   1  22
TORSDOF 5
ENDMDL
MODEL 8
REMARK VINA RESULT:      -8.0      3.664      8.219
REMARK  Name = 
REMARK  8 active torsions:
REMARK  status: ('A' for Active; 'I' for Inactive)
REMARK    1  A    between atoms: C_1  and  C_2
REMARK    2  A    between atoms: C_2  and  N_3
REMARK    3  A    between atoms: C_7  and  C_8
REMARK    4  A    between atoms: C_8  and  C_9
REMARK    5  A    between atoms: C_8  and  C_10
REMARK    6  A    between atoms: C_14  and  N_15
REMARK    7  A    between atoms: C_20  and  C_21
REMARK    8  A    between atoms: C_23  and  C_24
REMARK                            x       y       z     vdW  Elec       q    Type
REMARK                         _______ _______ _______ _____ _____    ______ ____
ROOT
ATOM      1  C   UNL     1       2.558   6.711  18.983  0.00  0.00    +0.000 A 
ATOM      2  C   UNL     1       2.461   7.339  17.733  0.00  0.00    +0.000 A 
ATOM      3  C   UNL     1       2.218   8.710  17.632  0.00  0.00    +0.000 A 
ATOM      4  C   UNL     1       1.873   9.442  18.757  0.00  0.00    +0.000 A 
ATOM      5  C   UNL     1       1.586   8.741  19.921  0.00  0.00    +0.000 A 
ATOM      6  C   UNL     1       2.103   7.431  20.092  0.00  0.00    +0.000 A 
ENDROOT
BRANCH   5   7
ATOM      7  N   UNL     1       0.321   9.093  20.484  0.00  0.00    +0.000 N 
ATOM      8  C   UNL     1      -0.841   9.131  19.609  0.00  0.00    +0.000 C 
ATOM      9  C   UNL     1      -0.995  10.590  19.319  0.00  0.00    +0.000 A 
ATOM     10  C   UNL     1      -0.345  11.292  20.329  0.00  0.00    +0.000 A 
ATOM     11  C   UNL     1      -0.111  12.659  20.266  0.00  0.00    +0.000 A 
ATOM     12  C   UNL     1      -0.589  13.333  19.144  0.00  0.00    +0.000 A 
ATOM     13  C   UNL     1      -0.293  14.792  18.958  0.00  0.00    +0.000 C 
ATOM     14  C   UNL     1      -1.307  12.630  18.149  0.00  0.00    +0.000 A 
ATOM     15  C   UNL     1      -1.526  11.234  18.228  0.00  0.00    +0.000 A 
ATOM     16  C   UNL     1       0.363  10.342  21.176  0.00  0.00    +0.000 C 
ATOM     17  O   UNL     1       1.032  10.639  22.145  0.00  0.00    +0.000 OA
BRANCH  15  18
ATOM     18  C   UNL     1      -2.241  10.524  17.110  0.00  0.00    +0.000 C 
ATOM     19  F   UNL     1      -2.585  11.345  16.078  0.00  0.00    +0.000 F 
ATOM     20  F   UNL     1      -1.492   9.534  16.554  0.00  0.00    +0.000 F 
ATOM     21  F   UNL     1      -3.399   9.939  17.518  0.00  0.00    +0.000 F 
ENDBRANCH  15  18
ENDBRANCH   5   7
BRANCH   1  22
ATOM     22  C   UNL     1       3.081   5.284  19.042  0.00  0.00    +0.000 C 
ATOM     23  C   UNL     1       2.650   4.541  20.319  0.00  0.00    +0.000 C 
BRANCH  22  28
ATOM     24  N   UNL     1       5.229   4.798  17.667  0.00  0.00    +0.000 N 
ATOM     25  C   UNL     1       6.539   4.624  18.017  0.00  0.00    +0.000 A 
ATOM     26  N   UNL     1       6.702   4.894  19.285  0.00  0.00    +0.000 NA
ATOM     27  N   UNL     1       5.475   5.231  19.790  0.00  0.00    +0.000 NA
ATOM     28  C   UNL     1       4.572   5.149  18.826  0.00  0.00    +0.000 A 
BRANCH  24  30
ATOM     29  C   UNL     1       5.399   5.494  15.303  0.00  0.00    +0.000 C 
ATOM     30  C   UNL     1       4.739   4.579  16.324  0.00  0.00    +0.000 C 
ENDBRANCH  24  30
ENDBRANCH  22  28
ENDBRANCH   1  22
TORSDOF 5
ENDMDL
MODEL 9
REMARK VINA RESULT:      -8.0      3.837      8.273
REMARK  Name = 
REMARK  8 active torsions:
REMARK  status: ('A' for Active; 'I' for Inactive)
REMARK    1  A    between atoms: C_1  and  C_2
REMARK    2  A    between atoms: C_2  and  N_3
REMARK    3  A    between atoms: C_7  and  C_8
REMARK    4  A    between atoms: C_8  and  C_9
REMARK    5  A    between atoms: C_8  and  C_10
REMARK    6  A    between atoms: C_14  and  N_15
REMARK    7  A    between atoms: C_20  and  C_21
REMARK    8  A    between atoms: C_23  and  C_24
REMARK                            x       y       z     vdW  Elec       q    Type
REMARK                         _______ _______ _______ _____ _____    ______ ____
ROOT
ATOM      1  C   UNL     1       2.211   6.718  19.394  0.00  0.00    +0.000 A 
ATOM      2  C   UNL     1       2.231   7.282  18.110  0.00  0.00    +0.000 A 
ATOM      3  C   UNL     1       2.081   8.657  17.924  0.00  0.00    +0.000 A 
ATOM      4  C   UNL     1       1.711   9.468  18.986  0.00  0.00    +0.000 A 
ATOM      5  C   UNL     1       1.308   8.848  20.162  0.00  0.00    +0.000 A 
ATOM      6  C   UNL     1       1.731   7.522  20.432  0.00  0.00    +0.000 A 
ENDROOT
BRANCH   5   7
ATOM      7  N   UNL     1       0.035   9.304  20.621  0.00  0.00    +0.000 N 
ATOM      8  C   UNL     1      -1.065   9.362  19.670  0.00  0.00    +0.000 C 
ATOM      9  C   UNL     1      -1.110  10.811  19.297  0.00  0.00    +0.000 A 
ATOM     10  C   UNL     1      -0.483  11.527  20.312  0.00  0.00    +0.000 A 
ATOM     11  C   UNL     1      -0.161  12.872  20.197  0.00  0.00    +0.000 A 
ATOM     12  C   UNL     1      -0.525  13.511  19.014  0.00  0.00    +0.000 A 
ATOM     13  C   UNL     1      -0.128  14.938  18.775  0.00  0.00    +0.000 C 
ATOM     14  C   UNL     1      -1.220  12.799  18.009  0.00  0.00    +0.000 A 
ATOM     15  C   UNL     1      -1.530  11.424  18.143  0.00  0.00    +0.000 A 
ATOM     16  C   UNL     1       0.110  10.584  21.251  0.00  0.00    +0.000 C 
ATOM     17  O   UNL     1       0.733  10.893  22.246  0.00  0.00    +0.000 OA
BRANCH  15  18
ATOM     18  C   UNL     1      -2.215  10.698  17.017  0.00  0.00    +0.000 C 
ATOM     19  F   UNL     1      -1.534   9.600  16.585  0.00  0.00    +0.000 F 
ATOM     20  F   UNL     1      -3.453  10.250  17.359  0.00  0.00    +0.000 F 
ATOM     21  F   UNL     1      -2.388  11.482  15.918  0.00  0.00    +0.000 F 
ENDBRANCH  15  18
ENDBRANCH   5   7
BRANCH   1  22
ATOM     22  C   UNL     1       2.639   5.268  19.559  0.00  0.00    +0.000 C 
ATOM     23  C   UNL     1       2.423   4.739  20.988  0.00  0.00    +0.000 C 
BRANCH  22  28
ATOM     24  N   UNL     1       4.433   4.119  18.075  0.00  0.00    +0.000 N 
ATOM     25  C   UNL     1       5.795   4.036  18.156  0.00  0.00    +0.000 A 
ATOM     26  N   UNL     1       6.233   4.813  19.112  0.00  0.00    +0.000 NA
ATOM     27  N   UNL     1       5.140   5.402  19.688  0.00  0.00    +0.000 NA
ATOM     28  C   UNL     1       4.044   4.968  19.087  0.00  0.00    +0.000 A 
BRANCH  24  30
ATOM     29  C   UNL     1       2.927   2.192  17.724  0.00  0.00    +0.000 C 
ATOM     30  C   UNL     1       3.658   3.375  17.106  0.00  0.00    +0.000 C 
ENDBRANCH  24  30
ENDBRANCH  22  28
ENDBRANCH   1  22
TORSDOF 5
ENDMDL
