MODEL 1
REMARK VINA RESULT:      -8.8      0.000      0.000
REMARK  Name = 
REMARK  3 active torsions:
REMARK  status: ('A' for Active; 'I' for Inactive)
REMARK    1  A    between atoms: C_2  and  C_16
REMARK    2  A    between atoms: N_3  and  C_4
REMARK    3  A    between atoms: C_4  and  C_5
REMARK                            x       y       z     vdW  Elec       q    Type
REMARK                         _______ _______ _______ _____ _____    ______ ____
ROOT
ATOM      1  O   UNL     1       1.980   5.508  18.248  0.00  0.00    +0.000 OA
ATOM      2  C   UNL     1       2.763   6.441  18.345  0.00  0.00    +0.000 C 
ATOM      3  N   UNL     1       4.132   6.313  18.345  0.00  0.00    +0.000 N 
ATOM      4  H   UNL     1       4.689   7.163  18.321  0.00  0.00    +0.000 HD
ENDROOT
BRANCH   2   5
ATOM      5  C   UNL     1       2.271   7.892  18.455  0.00  0.00    +0.000 A 
ATOM      6  N   UNL     1       2.478   8.639  17.404  0.00  0.00    +0.000 NA
ATOM      7  N   UNL     1       2.063   9.936  17.446  0.00  0.00    +0.000 N 
ATOM      8  C   UNL     1       1.455  10.559  18.509  0.00  0.00    +0.000 A 
ATOM      9  O   UNL     1       1.126  11.738  18.476  0.00  0.00    +0.000 OA
ATOM     10  C   UNL     1       1.216   9.724  19.698  0.00  0.00    +0.000 A 
ATOM     11  C   UNL     1       0.582  10.277  20.820  0.00  0.00    +0.000 A 
ATOM     12  C   UNL     1       0.334   9.484  21.938  0.00  0.00    +0.000 A 
ATOM     13  C   UNL     1       0.732   8.149  21.939  0.00  0.00    +0.000 A 
ATOM     14  C   UNL     1       1.381   7.605  20.825  0.00  0.00    +0.000 A 
ATOM     15  C   UNL     1       1.618   8.388  19.689  0.00  0.00    +0.000 A 
ATOM     16  H   UNL     1       2.217  10.494  16.611  0.00  0.00    +0.000 HD
ENDBRANCH   2   5
BRANCH   3  17
ATOM     17  C   UNL     1       4.786   5.032  18.221  0.00  0.00    +0.000 C 
BRANCH  17  18
ATOM     18  C   UNL     1       5.529   4.965  16.920  0.00  0.00    +0.000 A 
ATOM     19  C   UNL     1       5.096   4.264  15.856  0.00  0.00    +0.000 A 
ATOM     20  C   UNL     1       5.829   4.283  14.591  0.00  0.00    +0.000 A 
ATOM     21  C   UNL     1       5.404   3.547  13.481  0.00  0.00    +0.000 A 
ATOM     22  C   UNL     1       6.123   3.606  12.285  0.00  0.00    +0.000 A 
ATOM     23  C   UNL     1       7.268   4.400  12.191  0.00  0.00    +0.000 A 
ATOM     24  C   UNL     1       7.701   5.136  13.295  0.00  0.00    +0.000 A 
ATOM     25  C   UNL     1       6.981   5.073  14.487  0.00  0.00    +0.000 A 
ATOM     26  N   UNL     1       7.408   5.804  15.601  0.00  0.00    +0.000 N 
ATOM     27  C   UNL     1       6.766   5.793  16.809  0.00  0.00    +0.000 A 
ATOM     28  O   UNL     1       7.193   6.445  17.759  0.00  0.00    +0.000 OA
ATOM     29  H   UNL     1       8.239   6.377  15.546  0.00  0.00    +0.000 HD
ENDBRANCH  17  18
ENDBRANCH   3  17
TORSDOF 3
ENDMDL
MODEL 2
REMARK VINA RESULT:      -8.8      3.236      8.155
REMARK  Name = 
REMARK  3 active torsions:
REMARK  status: ('A' for Active; 'I' for Inactive)
REMARK    1  A    between atoms: C_2  and  C_16
REMARK    2  A    between atoms: N_3  and  C_4
REMARK    3  A    between atoms: C_4  and  C_5
REMARK                            x       y       z     vdW  Elec       q    Type
REMARK                         _______ _______ _______ _____ _____    ______ ____
ROOT
ATOM      1  O   UNL     1       4.333   6.397  16.688  0.00  0.00    +0.000 OA
ATOM      2  C   UNL     1       3.821   6.203  17.780  0.00  0.00    +0.000 C 
ATOM      3  N   UNL     1       2.955   7.071  18.401  0.00  0.00    +0.000 N 
ATOM      4  H   UNL     1       2.503   6.761  19.257  0.00  0.00    +0.000 HD
ENDROOT
BRANCH   2   5
ATOM      5  C   UNL     1       4.090   4.915  18.573  0.00  0.00    +0.000 A 
ATOM      6  N   UNL     1       5.273   4.389  18.410  0.00  0.00    +0.000 NA
ATOM      7  N   UNL     1       5.567   3.244  19.088  0.00  0.00    +0.000 N 
ATOM      8  C   UNL     1       4.721   2.560  19.927  0.00  0.00    +0.000 A 
ATOM      9  O   UNL     1       5.053   1.523  20.489  0.00  0.00    +0.000 OA
ATOM     10  C   UNL     1       3.385   3.146  20.118  0.00  0.00    +0.000 A 
ATOM     11  C   UNL     1       2.466   2.521  20.974  0.00  0.00    +0.000 A 
ATOM     12  C   UNL     1       1.209   3.086  21.175  0.00  0.00    +0.000 A 
ATOM     13  C   UNL     1       0.866   4.261  20.510  0.00  0.00    +0.000 A 
ATOM     14  C   UNL     1       1.777   4.873  19.642  0.00  0.00    +0.000 A 
ATOM     15  C   UNL     1       3.051   4.324  19.449  0.00  0.00    +0.000 A 
ATOM     16  H   UNL     1       6.500   2.862  18.961  0.00  0.00    +0.000 HD
ENDBRANCH   2   5
BRANCH   3  17
ATOM     17  C   UNL     1       2.556   8.323  17.801  0.00  0.00    +0.000 C 
BRANCH  17  18
ATOM     18  C   UNL     1       1.776   9.134  18.792  0.00  0.00    +0.000 A 
ATOM     19  C   UNL     1       1.252   8.621  19.921  0.00  0.00    +0.000 A 
ATOM     20  C   UNL     1       0.552   9.473  20.883  0.00  0.00    +0.000 A 
ATOM     21  C   UNL     1      -0.013   8.953  22.051  0.00  0.00    +0.000 A 
ATOM     22  C   UNL     1      -0.658   9.803  22.953  0.00  0.00    +0.000 A 
ATOM     23  C   UNL     1      -0.741  11.173  22.694  0.00  0.00    +0.000 A 
ATOM     24  C   UNL     1      -0.181  11.698  21.528  0.00  0.00    +0.000 A 
ATOM     25  C   UNL     1       0.460  10.847  20.629  0.00  0.00    +0.000 A 
ATOM     26  N   UNL     1       1.021  11.363  19.457  0.00  0.00    +0.000 N 
ATOM     27  C   UNL     1       1.662  10.598  18.519  0.00  0.00    +0.000 A 
ATOM     28  O   UNL     1       2.125  11.102  17.500  0.00  0.00    +0.000 OA
ATOM     29  H   UNL     1       0.962  12.352  19.256  0.00  0.00    +0.000 HD
ENDBRANCH  17  18
ENDBRANCH   3  17
TORSDOF 3
ENDMDL
MODEL 3
REMARK VINA RESULT:      -8.5      3.420      8.348
REMARK  Name = 
REMARK  3 active torsions:
REMARK  status: ('A' for Active; 'I' for Inactive)
REMARK    1  A    between atoms: C_2  and  C_16
REMARK    2  A    between atoms: N_3  and  C_4
REMARK    3  A    between atoms: C_4  and  C_5
REMARK                            x       y       z     vdW  Elec       q    Type
REMARK                         _______ _______ _______ _____ _____    ______ ____
ROOT
ATOM      1  O   UNL     1       1.725   7.648  21.269  0.00  0.00    +0.000 OA
ATOM      2  C   UNL     1       1.840   7.771  20.058  0.00  0.00    +0.000 C 
ATOM      3  N   UNL     1       1.473   8.890  19.350  0.00  0.00    +0.000 N 
ATOM      4  H   UNL     1       1.713   8.929  18.363  0.00  0.00    +0.000 HD
ENDROOT
BRANCH   2   5
ATOM      5  C   UNL     1       2.450   6.657  19.195  0.00  0.00    +0.000 A 
ATOM      6  N   UNL     1       3.251   7.055  18.243  0.00  0.00    +0.000 NA
ATOM      7  N   UNL     1       3.821   6.110  17.445  0.00  0.00    +0.000 N 
ATOM      8  C   UNL     1       3.620   4.753  17.525  0.00  0.00    +0.000 A 
ATOM      9  O   UNL     1       4.156   3.964  16.756  0.00  0.00    +0.000 OA
ATOM     10  C   UNL     1       2.720   4.294  18.596  0.00  0.00    +0.000 A 
ATOM     11  C   UNL     1       2.476   2.923  18.760  0.00  0.00    +0.000 A 
ATOM     12  C   UNL     1       1.642   2.484  19.787  0.00  0.00    +0.000 A 
ATOM     13  C   UNL     1       1.044   3.414  20.635  0.00  0.00    +0.000 A 
ATOM     14  C   UNL     1       1.274   4.782  20.458  0.00  0.00    +0.000 A 
ATOM     15  C   UNL     1       2.125   5.232  19.441  0.00  0.00    +0.000 A 
ATOM     16  H   UNL     1       4.454   6.440  16.722  0.00  0.00    +0.000 HD
ENDBRANCH   2   5
BRANCH   3  17
ATOM     17  C   UNL     1       0.907  10.056  19.988  0.00  0.00    +0.000 C 
BRANCH  17  18
ATOM     18  C   UNL     1      -0.334  10.480  19.261  0.00  0.00    +0.000 A 
ATOM     19  C   UNL     1      -0.691   9.993  18.058  0.00  0.00    +0.000 A 
ATOM     20  C   UNL     1      -1.944  10.397  17.422  0.00  0.00    +0.000 A 
ATOM     21  C   UNL     1      -2.322   9.915  16.165  0.00  0.00    +0.000 A 
ATOM     22  C   UNL     1      -3.536  10.312  15.600  0.00  0.00    +0.000 A 
ATOM     23  C   UNL     1      -4.378  11.190  16.285  0.00  0.00    +0.000 A 
ATOM     24  C   UNL     1      -4.007  11.678  17.539  0.00  0.00    +0.000 A 
ATOM     25  C   UNL     1      -2.793  11.281  18.099  0.00  0.00    +0.000 A 
ATOM     26  N   UNL     1      -2.410  11.767  19.353  0.00  0.00    +0.000 N 
ATOM     27  C   UNL     1      -1.235  11.434  19.972  0.00  0.00    +0.000 A 
ATOM     28  O   UNL     1      -0.943  11.902  21.070  0.00  0.00    +0.000 OA
ATOM     29  H   UNL     1      -3.009  12.409  19.856  0.00  0.00    +0.000 HD
ENDBRANCH  17  18
ENDBRANCH   3  17
TORSDOF 3
ENDMDL
MODEL 4
REMARK VINA RESULT:      -8.3      4.138      5.878
REMARK  Name = 
REMARK  3 active torsions:
REMARK  status: ('A' for Active; 'I' for Inactive)
REMARK    1  A    between atoms: C_2  and  C_16
REMARK    2  A    between atoms: N_3  and  C_4
REMARK    3  A    between atoms: C_4  and  C_5
REMARK                            x       y       z     vdW  Elec       q    Type
REMARK                         _______ _______ _______ _____ _____    ______ ____
ROOT
ATOM      1  O   UNL     1       2.134  11.446  18.233  0.00  0.00    +0.000 OA
ATOM      2  C   UNL     1       1.180  10.762  18.573  0.00  0.00    +0.000 C 
ATOM      3  N   UNL     1       1.181   9.388  18.615  0.00  0.00    +0.000 N 
ATOM      4  H   UNL     1       0.371   8.924  19.017  0.00  0.00    +0.000 HD
ENDROOT
BRANCH   2   5
ATOM      5  C   UNL     1      -0.143  11.400  19.022  0.00  0.00    +0.000 A 
ATOM      6  N   UNL     1      -0.056  12.237  20.020  0.00  0.00    +0.000 NA
ATOM      7  N   UNL     1      -1.199  12.833  20.461  0.00  0.00    +0.000 N 
ATOM      8  C   UNL     1      -2.464  12.623  19.969  0.00  0.00    +0.000 A 
ATOM      9  O   UNL     1      -3.449  13.185  20.433  0.00  0.00    +0.000 OA
ATOM     10  C   UNL     1      -2.573  11.681  18.843  0.00  0.00    +0.000 A 
ATOM     11  C   UNL     1      -3.826  11.426  18.268  0.00  0.00    +0.000 A 
ATOM     12  C   UNL     1      -3.929  10.552  17.188  0.00  0.00    +0.000 A 
ATOM     13  C   UNL     1      -2.786   9.927  16.695  0.00  0.00    +0.000 A 
ATOM     14  C   UNL     1      -1.540  10.169  17.282  0.00  0.00    +0.000 A 
ATOM     15  C   UNL     1      -1.423  11.060  18.356  0.00  0.00    +0.000 A 
ATOM     16  H   UNL     1      -1.106  13.495  21.227  0.00  0.00    +0.000 HD
ENDBRANCH   2   5
BRANCH   3  17
ATOM     17  C   UNL     1       2.342   8.606  18.258  0.00  0.00    +0.000 C 
BRANCH  17  18
ATOM     18  C   UNL     1       2.171   7.196  18.738  0.00  0.00    +0.000 A 
ATOM     19  C   UNL     1       2.285   6.122  17.936  0.00  0.00    +0.000 A 
ATOM     20  C   UNL     1       2.170   4.765  18.470  0.00  0.00    +0.000 A 
ATOM     21  C   UNL     1       2.266   3.639  17.648  0.00  0.00    +0.000 A 
ATOM     22  C   UNL     1       2.168   2.359  18.200  0.00  0.00    +0.000 A 
ATOM     23  C   UNL     1       1.974   2.199  19.574  0.00  0.00    +0.000 A 
ATOM     24  C   UNL     1       1.874   3.319  20.401  0.00  0.00    +0.000 A 
ATOM     25  C   UNL     1       1.970   4.594  19.845  0.00  0.00    +0.000 A 
ATOM     26  N   UNL     1       1.867   5.722  20.665  0.00  0.00    +0.000 N 
ATOM     27  C   UNL     1       1.944   7.008  20.202  0.00  0.00    +0.000 A 
ATOM     28  O   UNL     1       1.833   7.964  20.966  0.00  0.00    +0.000 OA
ATOM     29  H   UNL     1       1.720   5.618  21.660  0.00  0.00    +0.000 HD
ENDBRANCH  17  18
ENDBRANCH   3  17
TORSDOF 3
ENDMDL
MODEL 5
REMARK VINA RESULT:      -8.3      3.157      5.112
REMARK  Name = 
REMARK  3 active torsions:
REMARK  status: ('A' for Active; 'I' for Inactive)
REMARK    1  A    between atoms: C_2  and  C_16
REMARK    2  A    between atoms: N_3  and  C_4
REMARK    3  A    between atoms: C_4  and  C_5
REMARK                            x       y       z     vdW  Elec       q    Type
REMARK                         _______ _______ _______ _____ _____    ______ ____
ROOT
ATOM      1  O   UNL     1       2.495  11.180  17.951  0.00  0.00    +0.000 OA
ATOM      2  C   UNL     1       1.634  10.441  18.406  0.00  0.00    +0.000 C 
ATOM      3  N   UNL     1       1.622   9.074  18.259  0.00  0.00    +0.000 N 
ATOM      4  H   UNL     1       0.919   8.548  18.771  0.00  0.00    +0.000 HD
ENDROOT
BRANCH   2   5
ATOM      5  C   UNL     1       0.463  10.991  19.233  0.00  0.00    +0.000 A 
ATOM      6  N   UNL     1      -0.304  11.853  18.622  0.00  0.00    +0.000 NA
ATOM      7  N   UNL     1      -1.359  12.375  19.308  0.00  0.00    +0.000 N 
ATOM      8  C   UNL     1      -1.695  12.099  20.611  0.00  0.00    +0.000 A 
ATOM      9  O   UNL     1      -2.652  12.625  21.167  0.00  0.00    +0.000 OA
ATOM     10  C   UNL     1      -0.837  11.127  21.309  0.00  0.00    +0.000 A 
ATOM     11  C   UNL     1      -1.121  10.774  22.636  0.00  0.00    +0.000 A 
ATOM     12  C   UNL     1      -0.324   9.838  23.291  0.00  0.00    +0.000 A 
ATOM     13  C   UNL     1       0.760   9.269  22.627  0.00  0.00    +0.000 A 
ATOM     14  C   UNL     1       1.053   9.637  21.309  0.00  0.00    +0.000 A 
ATOM     15  C   UNL     1       0.247  10.563  20.635  0.00  0.00    +0.000 A 
ATOM     16  H   UNL     1      -1.954  13.030  18.808  0.00  0.00    +0.000 HD
ENDBRANCH   2   5
BRANCH   3  17
ATOM     17  C   UNL     1       2.654   8.367  17.539  0.00  0.00    +0.000 C 
BRANCH  17  18
ATOM     18  C   UNL     1       2.926   7.051  18.204  0.00  0.00    +0.000 A 
ATOM     19  C   UNL     1       2.243   6.607  19.275  0.00  0.00    +0.000 A 
ATOM     20  C   UNL     1       2.509   5.287  19.846  0.00  0.00    +0.000 A 
ATOM     21  C   UNL     1       1.821   4.818  20.969  0.00  0.00    +0.000 A 
ATOM     22  C   UNL     1       2.093   3.543  21.473  0.00  0.00    +0.000 A 
ATOM     23  C   UNL     1       3.050   2.733  20.859  0.00  0.00    +0.000 A 
ATOM     24  C   UNL     1       3.743   3.196  19.740  0.00  0.00    +0.000 A 
ATOM     25  C   UNL     1       3.470   4.469  19.241  0.00  0.00    +0.000 A 
ATOM     26  N   UNL     1       4.162   4.943  18.121  0.00  0.00    +0.000 N 
ATOM     27  C   UNL     1       3.961   6.180  17.571  0.00  0.00    +0.000 A 
ATOM     28  O   UNL     1       4.607   6.552  16.594  0.00  0.00    +0.000 OA
ATOM     29  H   UNL     1       4.862   4.367  17.673  0.00  0.00    +0.000 HD
ENDBRANCH  17  18
ENDBRANCH   3  17
TORSDOF 3
ENDMDL
MODEL 6
REMARK VINA RESULT:      -8.3      4.042      6.155
REMARK  Name = 
REMARK  3 active torsions:
REMARK  status: ('A' for Active; 'I' for Inactive)
REMARK    1  A    between atoms: C_2  and  C_16
REMARK    2  A    between atoms: N_3  and  C_4
REMARK    3  A    between atoms: C_4  and  C_5
REMARK                            x       y       z     vdW  Elec       q    Type
REMARK                         _______ _______ _______ _____ _____    ______ ____
ROOT
ATOM      1  O   UNL     1       1.420  11.271  19.848  0.00  0.00    +0.000 OA
ATOM      2  C   UNL     1       0.429  10.608  20.118  0.00  0.00    +0.000 C 
ATOM      3  N   UNL     1       0.459   9.354  20.677  0.00  0.00    +0.000 N 
ATOM      4  H   UNL     1      -0.425   8.938  20.961  0.00  0.00    +0.000 HD
ENDROOT
BRANCH   2   5
ATOM      5  C   UNL     1      -0.987  11.149  19.871  0.00  0.00    +0.000 A 
ATOM      6  N   UNL     1      -1.474  11.910  20.813  0.00  0.00    +0.000 NA
ATOM      7  N   UNL     1      -2.727  12.417  20.648  0.00  0.00    +0.000 N 
ATOM      8  C   UNL     1      -3.559  12.190  19.579  0.00  0.00    +0.000 A 
ATOM      9  O   UNL     1      -4.685  12.668  19.510  0.00  0.00    +0.000 OA
ATOM     10  C   UNL     1      -3.019  11.334  18.509  0.00  0.00    +0.000 A 
ATOM     11  C   UNL     1      -3.796  11.067  17.372  0.00  0.00    +0.000 A 
ATOM     12  C   UNL     1      -3.279  10.276  16.349  0.00  0.00    +0.000 A 
ATOM     13  C   UNL     1      -1.998   9.743  16.469  0.00  0.00    +0.000 A 
ATOM     14  C   UNL     1      -1.232   9.995  17.612  0.00  0.00    +0.000 A 
ATOM     15  C   UNL     1      -1.735  10.805  18.638  0.00  0.00    +0.000 A 
ATOM     16  H   UNL     1      -3.079  13.022  21.385  0.00  0.00    +0.000 HD
ENDBRANCH   2   5
BRANCH   3  17
ATOM     17  C   UNL     1       1.695   8.687  21.011  0.00  0.00    +0.000 C 
BRANCH  17  18
ATOM     18  C   UNL     1       1.803   7.403  20.244  0.00  0.00    +0.000 A 
ATOM     19  C   UNL     1       1.448   6.207  20.749  0.00  0.00    +0.000 A 
ATOM     20  C   UNL     1       1.516   4.994  19.934  0.00  0.00    +0.000 A 
ATOM     21  C   UNL     1       1.169   3.741  20.448  0.00  0.00    +0.000 A 
ATOM     22  C   UNL     1       1.232   2.609  19.632  0.00  0.00    +0.000 A 
ATOM     23  C   UNL     1       1.639   2.723  18.301  0.00  0.00    +0.000 A 
ATOM     24  C   UNL     1       1.990   3.970  17.782  0.00  0.00    +0.000 A 
ATOM     25  C   UNL     1       1.928   5.097  18.600  0.00  0.00    +0.000 A 
ATOM     26  N   UNL     1       2.281   6.350  18.090  0.00  0.00    +0.000 N 
ATOM     27  C   UNL     1       2.256   7.505  18.825  0.00  0.00    +0.000 A 
ATOM     28  O   UNL     1       2.589   8.579  18.330  0.00  0.00    +0.000 OA
ATOM     29  H   UNL     1       2.584   6.443  17.130  0.00  0.00    +0.000 HD
ENDBRANCH  17  18
ENDBRANCH   3  17
TORSDOF 3
ENDMDL
MODEL 7
REMARK VINA RESULT:      -8.2      3.489      5.547
REMARK  Name = 
REMARK  3 active torsions:
REMARK  status: ('A' for Active; 'I' for Inactive)
REMARK    1  A    between atoms: C_2  and  C_16
REMARK    2  A    between atoms: N_3  and  C_4
REMARK    3  A    between atoms: C_4  and  C_5
REMARK                            x       y       z     vdW  Elec       q    Type
REMARK                         _______ _______ _______ _____ _____    ______ ____
ROOT
ATOM      1  O   UNL     1       2.446  10.749  17.463  0.00  0.00    +0.000 OA
ATOM      2  C   UNL     1       1.696  10.088  18.168  0.00  0.00    +0.000 C 
ATOM      3  N   UNL     1       1.829   8.740  18.397  0.00  0.00    +0.000 N 
ATOM      4  H   UNL     1       1.216   8.312  19.085  0.00  0.00    +0.000 HD
ENDROOT
BRANCH   2   5
ATOM      5  C   UNL     1       0.514  10.734  18.905  0.00  0.00    +0.000 A 
ATOM      6  N   UNL     1       0.812  11.355  20.015  0.00  0.00    +0.000 NA
ATOM      7  N   UNL     1      -0.198  11.946  20.712  0.00  0.00    +0.000 N 
ATOM      8  C   UNL     1      -1.530  11.939  20.372  0.00  0.00    +0.000 A 
ATOM      9  O   UNL     1      -2.385  12.480  21.063  0.00  0.00    +0.000 OA
ATOM     10  C   UNL     1      -1.875  11.243  19.122  0.00  0.00    +0.000 A 
ATOM     11  C   UNL     1      -3.210  11.207  18.692  0.00  0.00    +0.000 A 
ATOM     12  C   UNL     1      -3.537  10.569  17.498  0.00  0.00    +0.000 A 
ATOM     13  C   UNL     1      -2.536   9.958  16.746  0.00  0.00    +0.000 A 
ATOM     14  C   UNL     1      -1.208   9.980  17.185  0.00  0.00    +0.000 A 
ATOM     15  C   UNL     1      -0.866  10.635  18.375  0.00  0.00    +0.000 A 
ATOM     16  H   UNL     1       0.058  12.438  21.563  0.00  0.00    +0.000 HD
ENDBRANCH   2   5
BRANCH   3  17
ATOM     17  C   UNL     1       2.896   7.960  17.815  0.00  0.00    +0.000 C 
BRANCH  17  18
ATOM     18  C   UNL     1       3.023   6.653  18.540  0.00  0.00    +0.000 A 
ATOM     19  C   UNL     1       2.035   6.118  19.279  0.00  0.00    +0.000 A 
ATOM     20  C   UNL     1       2.192   4.810  19.915  0.00  0.00    +0.000 A 
ATOM     21  C   UNL     1       1.183   4.246  20.701  0.00  0.00    +0.000 A 
ATOM     22  C   UNL     1       1.366   2.986  21.277  0.00  0.00    +0.000 A 
ATOM     23  C   UNL     1       2.554   2.284  21.070  0.00  0.00    +0.000 A 
ATOM     24  C   UNL     1       3.568   2.841  20.288  0.00  0.00    +0.000 A 
ATOM     25  C   UNL     1       3.383   4.099  19.717  0.00  0.00    +0.000 A 
ATOM     26  N   UNL     1       4.394   4.668  18.936  0.00  0.00    +0.000 N 
ATOM     27  C   UNL     1       4.297   5.899  18.345  0.00  0.00    +0.000 A 
ATOM     28  O   UNL     1       5.222   6.356  17.679  0.00  0.00    +0.000 OA
ATOM     29  H   UNL     1       5.261   4.171  18.784  0.00  0.00    +0.000 HD
ENDBRANCH  17  18
ENDBRANCH   3  17
TORSDOF 3
ENDMDL
MODEL 8
REMARK VINA RESULT:      -8.1      3.764      8.626
REMARK  Name = 
REMARK  3 active torsions:
REMARK  status: ('A' for Active; 'I' for Inactive)
REMARK    1  A    between atoms: C_2  and  C_16
REMARK    2  A    between atoms: N_3  and  C_4
REMARK    3  A    between atoms: C_4  and  C_5
REMARK                            x       y       z     vdW  Elec       q    Type
REMARK                         _______ _______ _______ _____ _____    ______ ____
ROOT
ATOM      1  O   UNL     1       3.388   7.290  17.593  0.00  0.00    +0.000 OA
ATOM      2  C   UNL     1       2.585   7.259  18.514  0.00  0.00    +0.000 C 
ATOM      3  N   UNL     1       1.707   8.271  18.818  0.00  0.00    +0.000 N 
ATOM      4  H   UNL     1       1.009   8.096  19.536  0.00  0.00    +0.000 HD
ENDROOT
BRANCH   2   5
ATOM      5  C   UNL     1       2.466   6.032  19.431  0.00  0.00    +0.000 A 
ATOM      6  N   UNL     1       2.349   6.289  20.706  0.00  0.00    +0.000 NA
ATOM      7  N   UNL     1       2.241   5.239  21.566  0.00  0.00    +0.000 N 
ATOM      8  C   UNL     1       2.263   3.907  21.227  0.00  0.00    +0.000 A 
ATOM      9  O   UNL     1       2.178   3.016  22.063  0.00  0.00    +0.000 OA
ATOM     10  C   UNL     1       2.393   3.607  19.792  0.00  0.00    +0.000 A 
ATOM     11  C   UNL     1       2.403   2.274  19.357  0.00  0.00    +0.000 A 
ATOM     12  C   UNL     1       2.503   1.987  17.998  0.00  0.00    +0.000 A 
ATOM     13  C   UNL     1       2.607   3.029  17.079  0.00  0.00    +0.000 A 
ATOM     14  C   UNL     1       2.615   4.358  17.516  0.00  0.00    +0.000 A 
ATOM     15  C   UNL     1       2.495   4.657  18.878  0.00  0.00    +0.000 A 
ATOM     16  H   UNL     1       2.133   5.461  22.552  0.00  0.00    +0.000 HD
ENDBRANCH   2   5
BRANCH   3  17
ATOM     17  C   UNL     1       1.646   9.495  18.053  0.00  0.00    +0.000 C 
BRANCH  17  18
ATOM     18  C   UNL     1       0.330  10.175  18.287  0.00  0.00    +0.000 A 
ATOM     19  C   UNL     1      -0.795   9.860  17.619  0.00  0.00    +0.000 A 
ATOM     20  C   UNL     1      -2.066  10.513  17.931  0.00  0.00    +0.000 A 
ATOM     21  C   UNL     1      -3.240  10.212  17.235  0.00  0.00    +0.000 A 
ATOM     22  C   UNL     1      -4.437  10.846  17.576  0.00  0.00    +0.000 A 
ATOM     23  C   UNL     1      -4.468  11.782  18.612  0.00  0.00    +0.000 A 
ATOM     24  C   UNL     1      -3.299  12.091  19.309  0.00  0.00    +0.000 A 
ATOM     25  C   UNL     1      -2.106  11.457  18.965  0.00  0.00    +0.000 A 
ATOM     26  N   UNL     1      -0.928  11.762  19.655  0.00  0.00    +0.000 N 
ATOM     27  C   UNL     1       0.285  11.192  19.378  0.00  0.00    +0.000 A 
ATOM     28  O   UNL     1       1.291  11.507  20.009  0.00  0.00    +0.000 OA
ATOM     29  H   UNL     1      -0.937  12.443  20.403  0.00  0.00    +0.000 HD
ENDBRANCH  17  18
ENDBRANCH   3  17
TORSDOF 3
ENDMDL
MODEL 9
REMARK VINA RESULT:      -8.1      3.161      4.934
REMARK  Name = 
REMARK  3 active torsions:
REMARK  status: ('A' for Active; 'I' for Inactive)
REMARK    1  A    between atoms: C_2  and  C_16
REMARK    2  A    between atoms: N_3  and  C_4
REMARK    3  A    between atoms: C_4  and  C_5
REMARK                            x       y       z     vdW  Elec       q    Type
REMARK                         _______ _______ _______ _____ _____    ______ ____
ROOT
ATOM      1  O   UNL     1       0.320   9.242  17.322  0.00  0.00    +0.000 OA
ATOM      2  C   UNL     1       1.098   9.587  18.199  0.00  0.00    +0.000 C 
ATOM      3  N   UNL     1       2.367   9.084  18.358  0.00  0.00    +0.000 N 
ATOM      4  H   UNL     1       2.968   9.520  19.053  0.00  0.00    +0.000 HD
ENDROOT
BRANCH   2   5
ATOM      5  C   UNL     1       0.723  10.671  19.221  0.00  0.00    +0.000 A 
ATOM      6  N   UNL     1       0.876  11.904  18.819  0.00  0.00    +0.000 NA
ATOM      7  N   UNL     1       0.559  12.907  19.685  0.00  0.00    +0.000 N 
ATOM      8  C   UNL     1       0.106  12.753  20.972  0.00  0.00    +0.000 A 
ATOM      9  O   UNL     1      -0.141  13.708  21.699  0.00  0.00    +0.000 OA
ATOM     10  C   UNL     1      -0.072  11.367  21.435  0.00  0.00    +0.000 A 
ATOM     11  C   UNL     1      -0.550  11.121  22.730  0.00  0.00    +0.000 A 
ATOM     12  C   UNL     1      -0.741   9.810  23.162  0.00  0.00    +0.000 A 
ATOM     13  C   UNL     1      -0.440   8.752  22.309  0.00  0.00    +0.000 A 
ATOM     14  C   UNL     1       0.055   8.998  21.024  0.00  0.00    +0.000 A 
ATOM     15  C   UNL     1       0.232  10.312  20.573  0.00  0.00    +0.000 A 
ATOM     16  H   UNL     1       0.669  13.858  19.345  0.00  0.00    +0.000 HD
ENDBRANCH   2   5
BRANCH   3  17
ATOM     17  C   UNL     1       2.914   8.078  17.479  0.00  0.00    +0.000 C 
BRANCH  17  18
ATOM     18  C   UNL     1       3.103   6.794  18.230  0.00  0.00    +0.000 A 
ATOM     19  C   UNL     1       2.254   6.361  19.181  0.00  0.00    +0.000 A 
ATOM     20  C   UNL     1       2.455   5.070  19.839  0.00  0.00    +0.000 A 
ATOM     21  C   UNL     1       1.594   4.613  20.841  0.00  0.00    +0.000 A 
ATOM     22  C   UNL     1       1.810   3.366  21.433  0.00  0.00    +0.000 A 
ATOM     23  C   UNL     1       2.884   2.571  21.028  0.00  0.00    +0.000 A 
ATOM     24  C   UNL     1       3.750   3.022  20.030  0.00  0.00    +0.000 A 
ATOM     25  C   UNL     1       3.532   4.268  19.443  0.00  0.00    +0.000 A 
ATOM     26  N   UNL     1       4.396   4.731  18.446  0.00  0.00    +0.000 N 
ATOM     27  C   UNL     1       4.259   5.942  17.822  0.00  0.00    +0.000 A 
ATOM     28  O   UNL     1       5.055   6.305  16.960  0.00  0.00    +0.000 OA
ATOM     29  H   UNL     1       5.180   4.167  18.149  0.00  0.00    +0.000 HD
ENDBRANCH  17  18
ENDBRANCH   3  17
TORSDOF 3
ENDMDL
