MODEL 1
REMARK VINA RESULT:      -8.7      0.000      0.000
REMARK  Name = 
REMARK  3 active torsions:
REMARK  status: ('A' for Active; 'I' for Inactive)
REMARK    1  A    between atoms: N_15  and  C_16
REMARK    2  A    between atoms: C_16  and  C_17
REMARK    3  A    between atoms: N_25  and  C_26
REMARK                            x       y       z     vdW  Elec       q    Type
REMARK                         _______ _______ _______ _____ _____    ______ ____
ROOT
ATOM      1  O   UNL     1       7.886   5.240  17.941  0.00  0.00    +0.000 OA
ATOM      2  C   UNL     1       6.690   5.039  17.820  0.00  0.00    +0.000 C 
ATOM      3  N   UNL     1       5.758   5.272  18.807  0.00  0.00    +0.000 N 
ATOM      4  C   UNL     1       4.428   4.983  18.348  0.00  0.00    +0.000 C 
ATOM      5  C   UNL     1       3.692   6.263  17.901  0.00  0.00    +0.000 C 
ATOM      6  C   UNL     1       2.293   6.241  18.523  0.00  0.00    +0.000 C 
ATOM      7  C   UNL     1       2.338   5.086  19.468  0.00  0.00    +0.000 A 
ATOM      8  C   UNL     1       1.331   4.704  20.342  0.00  0.00    +0.000 A 
ATOM      9  C   UNL     1       1.533   3.578  21.137  0.00  0.00    +0.000 A 
ATOM     10  C   UNL     1       2.728   2.849  21.045  0.00  0.00    +0.000 A 
ATOM     11  C   UNL     1       3.735   3.239  20.156  0.00  0.00    +0.000 A 
ATOM     12  C   UNL     1       3.532   4.365  19.368  0.00  0.00    +0.000 A 
ATOM     13  C   UNL     1       4.759   4.175  17.099  0.00  0.00    +0.000 C 
ATOM     14  O   UNL     1       3.999   3.440  16.483  0.00  0.00    +0.000 OA
ATOM     15  N   UNL     1       6.050   4.492  16.743  0.00  0.00    +0.000 N 
ATOM     16  H   UNL     1       6.010   5.673  19.701  0.00  0.00    +0.000 HD
ENDROOT
BRANCH  15  17
ATOM     17  C   UNL     1       6.716   3.906  15.633  0.00  0.00    +0.000 C 
BRANCH  17  18
ATOM     18  C   UNL     1       6.441   4.595  14.310  0.00  0.00    +0.000 A 
ATOM     19  N   UNL     1       5.299   4.352  13.679  0.00  0.00    +0.000 NA
ATOM     20  C   UNL     1       5.702   3.509  12.675  0.00  0.00    +0.000 A 
ATOM     21  C   UNL     1       4.985   2.532  11.983  0.00  0.00    +0.000 A 
ATOM     22  C   UNL     1       5.692   1.702  11.106  0.00  0.00    +0.000 A 
ATOM     23  C   UNL     1       7.055   1.904  10.858  0.00  0.00    +0.000 A 
ATOM     24  C   UNL     1       7.772   2.934  11.482  0.00  0.00    +0.000 A 
ATOM     25  C   UNL     1       7.065   3.674  12.427  0.00  0.00    +0.000 A 
ATOM     26  N   UNL     1       7.411   4.667  13.321  0.00  0.00    +0.000 N 
BRANCH  26  27
ATOM     27  C   UNL     1       8.172   5.851  12.971  0.00  0.00    +0.000 C 
ATOM     28  F   UNL     1       9.513   5.649  13.064  0.00  0.00    +0.000 F 
ATOM     29  F   UNL     1       7.918   6.255  11.699  0.00  0.00    +0.000 F 
ENDBRANCH  26  27
ENDBRANCH  17  18
ENDBRANCH  15  17
TORSDOF 3
ENDMDL
MODEL 2
REMARK VINA RESULT:      -8.1      3.020      6.920
REMARK  Name = 
REMARK  3 active torsions:
REMARK  status: ('A' for Active; 'I' for Inactive)
REMARK    1  A    between atoms: N_15  and  C_16
REMARK    2  A    between atoms: C_16  and  C_17
REMARK    3  A    between atoms: N_25  and  C_26
REMARK                            x       y       z     vdW  Elec       q    Type
REMARK                         _______ _______ _______ _____ _____    ______ ____
ROOT
ATOM      1  O   UNL     1       8.078   4.606  18.665  0.00  0.00    +0.000 OA
ATOM      2  C   UNL     1       7.371   4.746  17.682  0.00  0.00    +0.000 C 
ATOM      3  N   UNL     1       7.640   4.202  16.446  0.00  0.00    +0.000 N 
ATOM      4  C   UNL     1       6.598   4.503  15.504  0.00  0.00    +0.000 C 
ATOM      5  C   UNL     1       5.604   3.332  15.365  0.00  0.00    +0.000 C 
ATOM      6  C   UNL     1       5.366   3.094  13.871  0.00  0.00    +0.000 C 
ATOM      7  C   UNL     1       6.376   3.968  13.202  0.00  0.00    +0.000 A 
ATOM      8  C   UNL     1       6.622   4.041  11.840  0.00  0.00    +0.000 A 
ATOM      9  C   UNL     1       7.587   4.936  11.385  0.00  0.00    +0.000 A 
ATOM     10  C   UNL     1       8.285   5.747  12.291  0.00  0.00    +0.000 A 
ATOM     11  C   UNL     1       8.026   5.671  13.664  0.00  0.00    +0.000 A 
ATOM     12  C   UNL     1       7.066   4.773  14.113  0.00  0.00    +0.000 A 
ATOM     13  C   UNL     1       5.892   5.626  16.255  0.00  0.00    +0.000 C 
ATOM     14  O   UNL     1       5.107   6.439  15.785  0.00  0.00    +0.000 OA
ATOM     15  N   UNL     1       6.238   5.505  17.582  0.00  0.00    +0.000 N 
ATOM     16  H   UNL     1       8.439   3.604  16.284  0.00  0.00    +0.000 HD
ENDROOT
BRANCH  15  17
ATOM     17  C   UNL     1       5.787   6.401  18.588  0.00  0.00    +0.000 C 
BRANCH  17  18
ATOM     18  C   UNL     1       4.557   5.926  19.338  0.00  0.00    +0.000 A 
ATOM     19  N   UNL     1       4.633   4.823  20.072  0.00  0.00    +0.000 NA
ATOM     20  C   UNL     1       3.986   3.909  19.280  0.00  0.00    +0.000 A 
ATOM     21  C   UNL     1       4.125   2.522  19.215  0.00  0.00    +0.000 A 
ATOM     22  C   UNL     1       3.446   1.845  18.197  0.00  0.00    +0.000 A 
ATOM     23  C   UNL     1       2.579   2.523  17.329  0.00  0.00    +0.000 A 
ATOM     24  C   UNL     1       2.365   3.903  17.434  0.00  0.00    +0.000 A 
ATOM     25  C   UNL     1       3.136   4.563  18.389  0.00  0.00    +0.000 A 
ATOM     26  N   UNL     1       3.313   5.889  18.727  0.00  0.00    +0.000 N 
BRANCH  26  27
ATOM     27  C   UNL     1       2.228   6.822  18.966  0.00  0.00    +0.000 C 
ATOM     28  F   UNL     1       2.211   7.274  20.248  0.00  0.00    +0.000 F 
ATOM     29  F   UNL     1       2.316   7.914  18.161  0.00  0.00    +0.000 F 
ENDBRANCH  26  27
ENDBRANCH  17  18
ENDBRANCH  15  17
TORSDOF 3
ENDMDL
MODEL 3
REMARK VINA RESULT:      -7.9      5.013      8.004
REMARK  Name = 
REMARK  3 active torsions:
REMARK  status: ('A' for Active; 'I' for Inactive)
REMARK    1  A    between atoms: N_15  and  C_16
REMARK    2  A    between atoms: C_16  and  C_17
REMARK    3  A    between atoms: N_25  and  C_26
REMARK                            x       y       z     vdW  Elec       q    Type
REMARK                         _______ _______ _______ _____ _____    ______ ____
ROOT
ATOM      1  O   UNL     1       2.975   8.449  16.976  0.00  0.00    +0.000 OA
ATOM      2  C   UNL     1       2.192   8.913  17.787  0.00  0.00    +0.000 C 
ATOM      3  N   UNL     1       1.540  10.117  17.639  0.00  0.00    +0.000 N 
ATOM      4  C   UNL     1       0.648  10.366  18.737  0.00  0.00    +0.000 C 
ATOM      5  C   UNL     1      -0.805   9.985  18.385  0.00  0.00    +0.000 C 
ATOM      6  C   UNL     1      -1.712  11.137  18.828  0.00  0.00    +0.000 C 
ATOM      7  C   UNL     1      -0.757  12.220  19.212  0.00  0.00    +0.000 A 
ATOM      8  C   UNL     1      -1.093  13.507  19.601  0.00  0.00    +0.000 A 
ATOM      9  C   UNL     1      -0.069  14.384  19.953  0.00  0.00    +0.000 A 
ATOM     10  C   UNL     1       1.269  13.964  19.917  0.00  0.00    +0.000 A 
ATOM     11  C   UNL     1       1.598  12.661  19.529  0.00  0.00    +0.000 A 
ATOM     12  C   UNL     1       0.573  11.791  19.175  0.00  0.00    +0.000 A 
ATOM     13  C   UNL     1       1.172   9.336  19.731  0.00  0.00    +0.000 C 
ATOM     14  O   UNL     1       0.960   9.311  20.935  0.00  0.00    +0.000 OA
ATOM     15  N   UNL     1       1.861   8.390  19.006  0.00  0.00    +0.000 N 
ATOM     16  H   UNL     1       1.641  10.685  16.808  0.00  0.00    +0.000 HD
ENDROOT
BRANCH  15  17
ATOM     17  C   UNL     1       2.518   7.281  19.603  0.00  0.00    +0.000 C 
BRANCH  17  18
ATOM     18  C   UNL     1       2.443   6.003  18.790  0.00  0.00    +0.000 A 
ATOM     19  N   UNL     1       1.324   5.290  18.806  0.00  0.00    +0.000 NA
ATOM     20  C   UNL     1       1.661   4.248  19.631  0.00  0.00    +0.000 A 
ATOM     21  C   UNL     1       0.852   3.441  20.432  0.00  0.00    +0.000 A 
ATOM     22  C   UNL     1       1.482   2.544  21.300  0.00  0.00    +0.000 A 
ATOM     23  C   UNL     1       2.874   2.390  21.299  0.00  0.00    +0.000 A 
ATOM     24  C   UNL     1       3.695   3.133  20.441  0.00  0.00    +0.000 A 
ATOM     25  C   UNL     1       3.046   4.092  19.665  0.00  0.00    +0.000 A 
ATOM     26  N   UNL     1       3.479   5.080  18.804  0.00  0.00    +0.000 N 
BRANCH  26  27
ATOM     27  C   UNL     1       4.434   4.869  17.733  0.00  0.00    +0.000 C 
ATOM     28  F   UNL     1       4.397   3.597  17.253  0.00  0.00    +0.000 F 
ATOM     29  F   UNL     1       4.202   5.697  16.681  0.00  0.00    +0.000 F 
ENDBRANCH  26  27
ENDBRANCH  17  18
ENDBRANCH  15  17
TORSDOF 3
ENDMDL
MODEL 4
REMARK VINA RESULT:      -7.8      5.112      7.788
REMARK  Name = 
REMARK  3 active torsions:
REMARK  status: ('A' for Active; 'I' for Inactive)
REMARK    1  A    between atoms: N_15  and  C_16
REMARK    2  A    between atoms: C_16  and  C_17
REMARK    3  A    between atoms: N_25  and  C_26
REMARK                            x       y       z     vdW  Elec       q    Type
REMARK                         _______ _______ _______ _____ _____    ______ ____
ROOT
ATOM      1  O   UNL     1       3.067   8.532  17.120  0.00  0.00    +0.000 OA
ATOM      2  C   UNL     1       2.231   8.996  17.875  0.00  0.00    +0.000 C 
ATOM      3  N   UNL     1       1.653  10.238  17.728  0.00  0.00    +0.000 N 
ATOM      4  C   UNL     1       0.670  10.481  18.747  0.00  0.00    +0.000 C 
ATOM      5  C   UNL     1      -0.757  10.194  18.239  0.00  0.00    +0.000 C 
ATOM      6  C   UNL     1      -1.648  11.369  18.653  0.00  0.00    +0.000 C 
ATOM      7  C   UNL     1      -0.685  12.381  19.183  0.00  0.00    +0.000 A 
ATOM      8  C   UNL     1      -0.997  13.664  19.605  0.00  0.00    +0.000 A 
ATOM      9  C   UNL     1       0.028  14.468  20.099  0.00  0.00    +0.000 A 
ATOM     10  C   UNL     1       1.341  13.981  20.170  0.00  0.00    +0.000 A 
ATOM     11  C   UNL     1       1.645  12.682  19.747  0.00  0.00    +0.000 A 
ATOM     12  C   UNL     1       0.620  11.885  19.251  0.00  0.00    +0.000 A 
ATOM     13  C   UNL     1       1.045   9.379  19.731  0.00  0.00    +0.000 C 
ATOM     14  O   UNL     1       0.714   9.307  20.907  0.00  0.00    +0.000 OA
ATOM     15  N   UNL     1       1.756   8.434  19.027  0.00  0.00    +0.000 N 
ATOM     16  H   UNL     1       1.863  10.839  16.942  0.00  0.00    +0.000 HD
ENDROOT
BRANCH  15  17
ATOM     17  C   UNL     1       2.298   7.264  19.626  0.00  0.00    +0.000 C 
BRANCH  17  18
ATOM     18  C   UNL     1       2.857   6.262  18.634  0.00  0.00    +0.000 A 
ATOM     19  N   UNL     1       2.019   5.557  17.885  0.00  0.00    +0.000 NA
ATOM     20  C   UNL     1       2.048   4.332  18.499  0.00  0.00    +0.000 A 
ATOM     21  C   UNL     1       1.085   3.322  18.533  0.00  0.00    +0.000 A 
ATOM     22  C   UNL     1       1.316   2.228  19.373  0.00  0.00    +0.000 A 
ATOM     23  C   UNL     1       2.516   2.101  20.084  0.00  0.00    +0.000 A 
ATOM     24  C   UNL     1       3.528   3.064  19.996  0.00  0.00    +0.000 A 
ATOM     25  C   UNL     1       3.225   4.192  19.236  0.00  0.00    +0.000 A 
ATOM     26  N   UNL     1       3.872   5.386  18.992  0.00  0.00    +0.000 N 
BRANCH  26  27
ATOM     27  C   UNL     1       5.260   5.494  18.586  0.00  0.00    +0.000 C 
ATOM     28  F   UNL     1       5.500   6.621  17.864  0.00  0.00    +0.000 F 
ATOM     29  F   UNL     1       6.097   5.523  19.657  0.00  0.00    +0.000 F 
ENDBRANCH  26  27
ENDBRANCH  17  18
ENDBRANCH  15  17
TORSDOF 3
ENDMDL
MODEL 5
REMARK VINA RESULT:      -7.7      4.477      6.418
REMARK  Name = 
REMARK  3 active torsions:
REMARK  status: ('A' for Active; 'I' for Inactive)
REMARK    1  A    between atoms: N_15  and  C_16
REMARK    2  A    between atoms: C_16  and  C_17
REMARK    3  A    between atoms: N_25  and  C_26
REMARK                            x       y       z     vdW  Elec       q    Type
REMARK                         _______ _______ _______ _____ _____    ______ ____
ROOT
ATOM      1  O   UNL     1       6.277   4.530  18.998  0.00  0.00    +0.000 OA
ATOM      2  C   UNL     1       5.220   5.033  18.659  0.00  0.00    +0.000 C 
ATOM      3  N   UNL     1       4.711   6.201  19.183  0.00  0.00    +0.000 N 
ATOM      4  C   UNL     1       3.474   6.563  18.549  0.00  0.00    +0.000 C 
ATOM      5  C   UNL     1       3.690   7.617  17.444  0.00  0.00    +0.000 C 
ATOM      6  C   UNL     1       2.636   8.713  17.628  0.00  0.00    +0.000 C 
ATOM      7  C   UNL     1       1.997   8.381  18.937  0.00  0.00    +0.000 A 
ATOM      8  C   UNL     1       1.034   9.132  19.592  0.00  0.00    +0.000 A 
ATOM      9  C   UNL     1       0.526   8.657  20.798  0.00  0.00    +0.000 A 
ATOM     10  C   UNL     1       0.979   7.439  21.329  0.00  0.00    +0.000 A 
ATOM     11  C   UNL     1       1.947   6.685  20.658  0.00  0.00    +0.000 A 
ATOM     12  C   UNL     1       2.455   7.166  19.457  0.00  0.00    +0.000 A 
ATOM     13  C   UNL     1       3.138   5.239  17.871  0.00  0.00    +0.000 C 
ATOM     14  O   UNL     1       2.048   4.901  17.431  0.00  0.00    +0.000 OA
ATOM     15  N   UNL     1       4.312   4.528  17.771  0.00  0.00    +0.000 N 
ATOM     16  H   UNL     1       5.215   6.748  19.868  0.00  0.00    +0.000 HD
ENDROOT
BRANCH  15  17
ATOM     17  C   UNL     1       4.384   3.223  17.213  0.00  0.00    +0.000 C 
BRANCH  17  18
ATOM     18  C   UNL     1       3.965   2.117  18.162  0.00  0.00    +0.000 A 
ATOM     19  N   UNL     1       2.783   1.535  17.997  0.00  0.00    +0.000 NA
ATOM     20  C   UNL     1       2.044   2.104  19.002  0.00  0.00    +0.000 A 
ATOM     21  C   UNL     1       0.666   2.308  19.096  0.00  0.00    +0.000 A 
ATOM     22  C   UNL     1       0.190   3.059  20.175  0.00  0.00    +0.000 A 
ATOM     23  C   UNL     1       1.054   3.511  21.181  0.00  0.00    +0.000 A 
ATOM     24  C   UNL     1       2.428   3.243  21.145  0.00  0.00    +0.000 A 
ATOM     25  C   UNL     1       2.885   2.585  20.005  0.00  0.00    +0.000 A 
ATOM     26  N   UNL     1       4.136   2.243  19.533  0.00  0.00    +0.000 N 
BRANCH  26  27
ATOM     27  C   UNL     1       5.150   1.568  20.321  0.00  0.00    +0.000 C 
ATOM     28  F   UNL     1       4.814   1.493  21.637  0.00  0.00    +0.000 F 
ATOM     29  F   UNL     1       5.358   0.296  19.891  0.00  0.00    +0.000 F 
ENDBRANCH  26  27
ENDBRANCH  17  18
ENDBRANCH  15  17
TORSDOF 3
ENDMDL
MODEL 6
REMARK VINA RESULT:      -7.7      4.939      7.347
REMARK  Name = 
REMARK  3 active torsions:
REMARK  status: ('A' for Active; 'I' for Inactive)
REMARK    1  A    between atoms: N_15  and  C_16
REMARK    2  A    between atoms: C_16  and  C_17
REMARK    3  A    between atoms: N_25  and  C_26
REMARK                            x       y       z     vdW  Elec       q    Type
REMARK                         _______ _______ _______ _____ _____    ______ ____
ROOT
ATOM      1  O   UNL     1       3.054   8.897  16.958  0.00  0.00    +0.000 OA
ATOM      2  C   UNL     1       2.219   9.146  17.811  0.00  0.00    +0.000 C 
ATOM      3  N   UNL     1       1.544  10.342  17.913  0.00  0.00    +0.000 N 
ATOM      4  C   UNL     1       0.592  10.314  18.988  0.00  0.00    +0.000 C 
ATOM      5  C   UNL     1      -0.831  10.007  18.478  0.00  0.00    +0.000 C 
ATOM      6  C   UNL     1      -1.789  11.010  19.129  0.00  0.00    +0.000 C 
ATOM      7  C   UNL     1      -0.883  11.984  19.807  0.00  0.00    +0.000 A 
ATOM      8  C   UNL     1      -1.271  13.139  20.468  0.00  0.00    +0.000 A 
ATOM      9  C   UNL     1      -0.289  13.923  21.071  0.00  0.00    +0.000 A 
ATOM     10  C   UNL     1       1.060  13.540  21.011  0.00  0.00    +0.000 A 
ATOM     11  C   UNL     1       1.441  12.370  20.347  0.00  0.00    +0.000 A 
ATOM     12  C   UNL     1       0.459  11.594  19.743  0.00  0.00    +0.000 A 
ATOM     13  C   UNL     1       1.092   9.086  19.740  0.00  0.00    +0.000 C 
ATOM     14  O   UNL     1       0.821   8.775  20.892  0.00  0.00    +0.000 OA
ATOM     15  N   UNL     1       1.841   8.347  18.853  0.00  0.00    +0.000 N 
ATOM     16  H   UNL     1       1.672  11.091  17.245  0.00  0.00    +0.000 HD
ENDROOT
BRANCH  15  17
ATOM     17  C   UNL     1       2.496   7.137  19.209  0.00  0.00    +0.000 C 
BRANCH  17  18
ATOM     18  C   UNL     1       2.651   6.154  18.063  0.00  0.00    +0.000 A 
ATOM     19  N   UNL     1       1.633   5.363  17.748  0.00  0.00    +0.000 NA
ATOM     20  C   UNL     1       2.031   4.162  18.277  0.00  0.00    +0.000 A 
ATOM     21  C   UNL     1       1.268   3.080  18.718  0.00  0.00    +0.000 A 
ATOM     22  C   UNL     1       1.933   2.032  19.363  0.00  0.00    +0.000 A 
ATOM     23  C   UNL     1       3.329   2.023  19.478  0.00  0.00    +0.000 A 
ATOM     24  C   UNL     1       4.117   3.062  18.966  0.00  0.00    +0.000 A 
ATOM     25  C   UNL     1       3.417   4.139  18.425  0.00  0.00    +0.000 A 
ATOM     26  N   UNL     1       3.790   5.374  17.935  0.00  0.00    +0.000 N 
BRANCH  26  27
ATOM     27  C   UNL     1       4.849   5.582  16.965  0.00  0.00    +0.000 C 
ATOM     28  F   UNL     1       5.077   4.477  16.206  0.00  0.00    +0.000 F 
ATOM     29  F   UNL     1       4.556   6.597  16.111  0.00  0.00    +0.000 F 
ENDBRANCH  26  27
ENDBRANCH  17  18
ENDBRANCH  15  17
TORSDOF 3
ENDMDL
MODEL 7
REMARK VINA RESULT:      -7.7      2.942      5.271
REMARK  Name = 
REMARK  3 active torsions:
REMARK  status: ('A' for Active; 'I' for Inactive)
REMARK    1  A    between atoms: N_15  and  C_16
REMARK    2  A    between atoms: C_16  and  C_17
REMARK    3  A    between atoms: N_25  and  C_26
REMARK                            x       y       z     vdW  Elec       q    Type
REMARK                         _______ _______ _______ _____ _____    ______ ____
ROOT
ATOM      1  O   UNL     1       2.672   3.152  17.182  0.00  0.00    +0.000 OA
ATOM      2  C   UNL     1       2.830   4.071  17.967  0.00  0.00    +0.000 C 
ATOM      3  N   UNL     1       1.968   5.138  18.100  0.00  0.00    +0.000 N 
ATOM      4  C   UNL     1       2.398   6.030  19.139  0.00  0.00    +0.000 C 
ATOM      5  C   UNL     1       1.647   5.767  20.461  0.00  0.00    +0.000 C 
ATOM      6  C   UNL     1       1.184   7.118  21.015  0.00  0.00    +0.000 C 
ATOM      7  C   UNL     1       1.481   8.079  19.912  0.00  0.00    +0.000 A 
ATOM      8  C   UNL     1       1.162   9.428  19.894  0.00  0.00    +0.000 A 
ATOM      9  C   UNL     1       1.541  10.187  18.789  0.00  0.00    +0.000 A 
ATOM     10  C   UNL     1       2.236   9.593  17.725  0.00  0.00    +0.000 A 
ATOM     11  C   UNL     1       2.559   8.232  17.754  0.00  0.00    +0.000 A 
ATOM     12  C   UNL     1       2.175   7.479  18.857  0.00  0.00    +0.000 A 
ATOM     13  C   UNL     1       3.833   5.546  19.314  0.00  0.00    +0.000 C 
ATOM     14  O   UNL     1       4.743   6.145  19.871  0.00  0.00    +0.000 OA
ATOM     15  N   UNL     1       3.893   4.270  18.802  0.00  0.00    +0.000 N 
ATOM     16  H   UNL     1       1.108   5.204  17.571  0.00  0.00    +0.000 HD
ENDROOT
BRANCH  15  17
ATOM     17  C   UNL     1       5.089   3.503  18.766  0.00  0.00    +0.000 C 
BRANCH  17  18
ATOM     18  C   UNL     1       6.031   3.873  17.637  0.00  0.00    +0.000 A 
ATOM     19  N   UNL     1       7.304   4.129  17.914  0.00  0.00    +0.000 NA
ATOM     20  C   UNL     1       7.344   5.497  17.834  0.00  0.00    +0.000 A 
ATOM     21  C   UNL     1       8.199   6.407  18.457  0.00  0.00    +0.000 A 
ATOM     22  C   UNL     1       7.916   7.769  18.319  0.00  0.00    +0.000 A 
ATOM     23  C   UNL     1       6.865   8.211  17.504  0.00  0.00    +0.000 A 
ATOM     24  C   UNL     1       6.048   7.314  16.805  0.00  0.00    +0.000 A 
ATOM     25  C   UNL     1       6.291   5.963  17.048  0.00  0.00    +0.000 A 
ATOM     26  N   UNL     1       5.664   4.794  16.667  0.00  0.00    +0.000 N 
BRANCH  26  27
ATOM     27  C   UNL     1       5.289   4.475  15.302  0.00  0.00    +0.000 C 
ATOM     28  F   UNL     1       5.361   5.558  14.483  0.00  0.00    +0.000 F 
ATOM     29  F   UNL     1       6.095   3.519  14.769  0.00  0.00    +0.000 F 
ENDBRANCH  26  27
ENDBRANCH  17  18
ENDBRANCH  15  17
TORSDOF 3
ENDMDL
MODEL 8
REMARK VINA RESULT:      -7.6      1.113      1.209
REMARK  Name = 
REMARK  3 active torsions:
REMARK  status: ('A' for Active; 'I' for Inactive)
REMARK    1  A    between atoms: N_15  and  C_16
REMARK    2  A    between atoms: C_16  and  C_17
REMARK    3  A    between atoms: N_25  and  C_26
REMARK                            x       y       z     vdW  Elec       q    Type
REMARK                         _______ _______ _______ _____ _____    ______ ____
ROOT
ATOM      1  O   UNL     1       5.922   6.541  16.965  0.00  0.00    +0.000 OA
ATOM      2  C   UNL     1       5.158   5.601  17.100  0.00  0.00    +0.000 C 
ATOM      3  N   UNL     1       4.155   5.542  18.042  0.00  0.00    +0.000 N 
ATOM      4  C   UNL     1       3.394   4.330  17.921  0.00  0.00    +0.000 C 
ATOM      5  C   UNL     1       2.092   4.555  17.124  0.00  0.00    +0.000 C 
ATOM      6  C   UNL     1       0.949   3.889  17.897  0.00  0.00    +0.000 C 
ATOM      7  C   UNL     1       1.573   3.499  19.197  0.00  0.00    +0.000 A 
ATOM      8  C   UNL     1       0.920   2.935  20.281  0.00  0.00    +0.000 A 
ATOM      9  C   UNL     1       1.666   2.607  21.411  0.00  0.00    +0.000 A 
ATOM     10  C   UNL     1       3.049   2.839  21.439  0.00  0.00    +0.000 A 
ATOM     11  C   UNL     1       3.701   3.403  20.337  0.00  0.00    +0.000 A 
ATOM     12  C   UNL     1       2.952   3.733  19.214  0.00  0.00    +0.000 A 
ATOM     13  C   UNL     1       4.342   3.520  17.043  0.00  0.00    +0.000 C 
ATOM     14  O   UNL     1       4.321   2.309  16.869  0.00  0.00    +0.000 OA
ATOM     15  N   UNL     1       5.177   4.417  16.416  0.00  0.00    +0.000 N 
ATOM     16  H   UNL     1       3.960   6.311  18.669  0.00  0.00    +0.000 HD
ENDROOT
BRANCH  15  17
ATOM     17  C   UNL     1       6.219   4.023  15.534  0.00  0.00    +0.000 C 
BRANCH  17  18
ATOM     18  C   UNL     1       6.116   4.623  14.144  0.00  0.00    +0.000 A 
ATOM     19  N   UNL     1       5.065   4.328  13.389  0.00  0.00    +0.000 NA
ATOM     20  C   UNL     1       5.594   3.426  12.503  0.00  0.00    +0.000 A 
ATOM     21  C   UNL     1       4.974   2.400  11.789  0.00  0.00    +0.000 A 
ATOM     22  C   UNL     1       5.788   1.522  11.067  0.00  0.00    +0.000 A 
ATOM     23  C   UNL     1       7.172   1.721  10.983  0.00  0.00    +0.000 A 
ATOM     24  C   UNL     1       7.801   2.795  11.625  0.00  0.00    +0.000 A 
ATOM     25  C   UNL     1       6.977   3.589  12.421  0.00  0.00    +0.000 A 
ATOM     26  N   UNL     1       7.205   4.640  13.286  0.00  0.00    +0.000 N 
BRANCH  26  27
ATOM     27  C   UNL     1       8.003   5.807  12.960  0.00  0.00    +0.000 C 
ATOM     28  F   UNL     1       9.333   5.587  13.136  0.00  0.00    +0.000 F 
ATOM     29  F   UNL     1       7.831   6.189  11.668  0.00  0.00    +0.000 F 
ENDBRANCH  26  27
ENDBRANCH  17  18
ENDBRANCH  15  17
TORSDOF 3
ENDMDL
MODEL 9
REMARK VINA RESULT:      -7.6      4.957      7.039
REMARK  Name = 
REMARK  3 active torsions:
REMARK  status: ('A' for Active; 'I' for Inactive)
REMARK    1  A    between atoms: N_15  and  C_16
REMARK    2  A    between atoms: C_16  and  C_17
REMARK    3  A    between atoms: N_25  and  C_26
REMARK                            x       y       z     vdW  Elec       q    Type
REMARK                         _______ _______ _______ _____ _____    ______ ____
ROOT
ATOM      1  O   UNL     1       1.808   6.642  20.452  0.00  0.00    +0.000 OA
ATOM      2  C   UNL     1       1.616   7.726  19.929  0.00  0.00    +0.000 C 
ATOM      3  N   UNL     1       0.573   8.568  20.245  0.00  0.00    +0.000 N 
ATOM      4  C   UNL     1       0.642   9.790  19.492  0.00  0.00    +0.000 C 
ATOM      5  C   UNL     1       1.288  10.925  20.312  0.00  0.00    +0.000 C 
ATOM      6  C   UNL     1       0.415  12.174  20.155  0.00  0.00    +0.000 C 
ATOM      7  C   UNL     1      -0.801  11.674  19.446  0.00  0.00    +0.000 A 
ATOM      8  C   UNL     1      -1.936  12.412  19.148  0.00  0.00    +0.000 A 
ATOM      9  C   UNL     1      -2.971  11.791  18.453  0.00  0.00    +0.000 A 
ATOM     10  C   UNL     1      -2.856  10.449  18.061  0.00  0.00    +0.000 A 
ATOM     11  C   UNL     1      -1.705   9.713  18.361  0.00  0.00    +0.000 A 
ATOM     12  C   UNL     1      -0.677  10.336  19.059  0.00  0.00    +0.000 A 
ATOM     13  C   UNL     1       1.635   9.370  18.415  0.00  0.00    +0.000 C 
ATOM     14  O   UNL     1       1.835   9.934  17.347  0.00  0.00    +0.000 OA
ATOM     15  N   UNL     1       2.326   8.284  18.903  0.00  0.00    +0.000 N 
ATOM     16  H   UNL     1      -0.090   8.353  20.978  0.00  0.00    +0.000 HD
ENDROOT
BRANCH  15  17
ATOM     17  C   UNL     1       3.324   7.600  18.158  0.00  0.00    +0.000 C 
BRANCH  17  18
ATOM     18  C   UNL     1       3.522   6.153  18.569  0.00  0.00    +0.000 A 
ATOM     19  N   UNL     1       4.633   5.809  19.210  0.00  0.00    +0.000 NA
ATOM     20  C   UNL     1       5.351   5.187  18.221  0.00  0.00    +0.000 A 
ATOM     21  C   UNL     1       6.730   5.031  18.076  0.00  0.00    +0.000 A 
ATOM     22  C   UNL     1       7.204   4.484  16.880  0.00  0.00    +0.000 A 
ATOM     23  C   UNL     1       6.321   4.019  15.896  0.00  0.00    +0.000 A 
ATOM     24  C   UNL     1       4.932   4.092  16.061  0.00  0.00    +0.000 A 
ATOM     25  C   UNL     1       4.494   4.737  17.216  0.00  0.00    +0.000 A 
ATOM     26  N   UNL     1       3.254   5.113  17.692  0.00  0.00    +0.000 N 
BRANCH  26  27
ATOM     27  C   UNL     1       2.103   4.233  17.754  0.00  0.00    +0.000 C 
ATOM     28  F   UNL     1       1.801   3.870  19.029  0.00  0.00    +0.000 F 
ATOM     29  F   UNL     1       0.992   4.820  17.234  0.00  0.00    +0.000 F 
ENDBRANCH  26  27
ENDBRANCH  17  18
ENDBRANCH  15  17
TORSDOF 3
ENDMDL
