MODEL 1
REMARK VINA RESULT:      -9.0      0.000      0.000
REMARK  Name = 
REMARK  5 active torsions:
REMARK  status: ('A' for Active; 'I' for Inactive)
REMARK    1  A    between atoms: C_1  and  C_2
REMARK    2  A    between atoms: C_2  and  N_3
REMARK    3  A    between atoms: C_2  and  C_18
REMARK    4  A    between atoms: C_4  and  C_6
REMARK    5  A    between atoms: C_10  and  N_11
REMARK                            x       y       z     vdW  Elec       q    Type
REMARK                         _______ _______ _______ _____ _____    ______ ____
ROOT
ATOM      1  N   UNL     1       5.727   5.759  18.424  0.00  0.00    +0.000 N 
ATOM      2  C   UNL     1       5.112   4.767  19.168  0.00  0.00    +0.000 C 
ATOM      3  O   UNL     1       5.663   3.699  19.414  0.00  0.00    +0.000 OA
ATOM      4  H   UNL     1       5.235   6.610  18.199  0.00  0.00    +0.000 HD
ENDROOT
BRANCH   2   5
ATOM      5  C   UNL     1       3.700   4.975  19.601  0.00  0.00    +0.000 A 
ATOM      6  C   UNL     1       2.913   3.924  20.073  0.00  0.00    +0.000 A 
ATOM      7  C   UNL     1       1.646   4.195  20.584  0.00  0.00    +0.000 A 
ATOM      8  C   UNL     1       1.171   5.509  20.640  0.00  0.00    +0.000 A 
ATOM      9  C   UNL     1       1.935   6.590  20.184  0.00  0.00    +0.000 A 
ATOM     10  C   UNL     1       3.203   6.297  19.649  0.00  0.00    +0.000 A 
BRANCH   9  11
ATOM     11  N   UNL     1       1.467   7.933  20.295  0.00  0.00    +0.000 N 
ATOM     12  C   UNL     1       1.074   8.533  21.548  0.00  0.00    +0.000 C 
ATOM     13  C   UNL     1       0.248   9.740  21.149  0.00  0.00    +0.000 C 
ATOM     14  C   UNL     1       0.854  10.167  19.828  0.00  0.00    +0.000 C 
ATOM     15  C   UNL     1       1.385   8.874  19.253  0.00  0.00    +0.000 C 
ATOM     16  O   UNL     1       1.705   8.766  18.079  0.00  0.00    +0.000 OA
ENDBRANCH   9  11
ENDBRANCH   2   5
BRANCH   1  18
ATOM     17  C   UNL     1       7.881   6.799  17.883  0.00  0.00    +0.000 C 
ATOM     18  C   UNL     1       7.022   5.545  17.769  0.00  0.00    +0.000 C 
BRANCH  18  19
ATOM     19  C   UNL     1       6.782   5.126  16.339  0.00  0.00    +0.000 A 
ATOM     20  N   UNL     1       5.894   4.282  15.835  0.00  0.00    +0.000 NA
ATOM     21  C   UNL     1       6.167   4.216  14.482  0.00  0.00    +0.000 A 
ATOM     22  C   UNL     1       5.560   3.470  13.460  0.00  0.00    +0.000 A 
ATOM     23  C   UNL     1       6.111   3.521  12.168  0.00  0.00    +0.000 A 
ATOM     24  C   UNL     1       7.233   4.309  11.897  0.00  0.00    +0.000 A 
ATOM     25  C   UNL     1       7.817   5.100  12.890  0.00  0.00    +0.000 A 
ATOM     26  C   UNL     1       7.245   5.029  14.161  0.00  0.00    +0.000 A 
ATOM     27  N   UNL     1       7.541   5.672  15.329  0.00  0.00    +0.000 N 
ATOM     28  H   UNL     1       8.255   6.377  15.469  0.00  0.00    +0.000 HD
ENDBRANCH  18  19
ENDBRANCH   1  18
TORSDOF 4
ENDMDL
MODEL 2
REMARK VINA RESULT:      -8.4      0.951      1.236
REMARK  Name = 
REMARK  5 active torsions:
REMARK  status: ('A' for Active; 'I' for Inactive)
REMARK    1  A    between atoms: C_1  and  C_2
REMARK    2  A    between atoms: C_2  and  N_3
REMARK    3  A    between atoms: C_2  and  C_18
REMARK    4  A    between atoms: C_4  and  C_6
REMARK    5  A    between atoms: C_10  and  N_11
REMARK                            x       y       z     vdW  Elec       q    Type
REMARK                         _______ _______ _______ _____ _____    ______ ____
ROOT
ATOM      1  N   UNL     1       5.642   5.203  18.402  0.00  0.00    +0.000 N 
ATOM      2  C   UNL     1       4.909   4.387  19.247  0.00  0.00    +0.000 C 
ATOM      3  O   UNL     1       5.337   3.310  19.648  0.00  0.00    +0.000 OA
ATOM      4  H   UNL     1       5.249   6.063  18.051  0.00  0.00    +0.000 HD
ENDROOT
BRANCH   2   5
ATOM      5  C   UNL     1       3.519   4.796  19.599  0.00  0.00    +0.000 A 
ATOM      6  C   UNL     1       2.627   3.917  20.214  0.00  0.00    +0.000 A 
ATOM      7  C   UNL     1       1.386   4.386  20.637  0.00  0.00    +0.000 A 
ATOM      8  C   UNL     1       1.040   5.730  20.463  0.00  0.00    +0.000 A 
ATOM      9  C   UNL     1       1.912   6.644  19.858  0.00  0.00    +0.000 A 
ATOM     10  C   UNL     1       3.152   6.148  19.415  0.00  0.00    +0.000 A 
BRANCH   9  11
ATOM     11  N   UNL     1       1.575   8.025  19.734  0.00  0.00    +0.000 N 
ATOM     12  C   UNL     1       1.391   8.683  18.462  0.00  0.00    +0.000 C 
ATOM     13  C   UNL     1       1.503  10.162  18.780  0.00  0.00    +0.000 C 
ATOM     14  C   UNL     1       0.979  10.264  20.197  0.00  0.00    +0.000 C 
ATOM     15  C   UNL     1       1.309   8.913  20.791  0.00  0.00    +0.000 C 
ATOM     16  O   UNL     1       1.283   8.707  21.994  0.00  0.00    +0.000 OA
ENDBRANCH   9  11
ENDBRANCH   2   5
BRANCH   1  18
ATOM     17  C   UNL     1       8.019   5.766  18.182  0.00  0.00    +0.000 C 
ATOM     18  C   UNL     1       6.920   4.771  17.826  0.00  0.00    +0.000 C 
BRANCH  18  19
ATOM     19  C   UNL     1       6.749   4.594  16.337  0.00  0.00    +0.000 A 
ATOM     20  N   UNL     1       5.950   3.781  15.661  0.00  0.00    +0.000 NA
ATOM     21  C   UNL     1       6.257   3.979  14.329  0.00  0.00    +0.000 A 
ATOM     22  C   UNL     1       5.742   3.377  13.170  0.00  0.00    +0.000 A 
ATOM     23  C   UNL     1       6.314   3.702  11.928  0.00  0.00    +0.000 A 
ATOM     24  C   UNL     1       7.368   4.615  11.840  0.00  0.00    +0.000 A 
ATOM     25  C   UNL     1       7.858   5.263  12.977  0.00  0.00    +0.000 A 
ATOM     26  C   UNL     1       7.267   4.922  14.194  0.00  0.00    +0.000 A 
ATOM     27  N   UNL     1       7.479   5.370  15.467  0.00  0.00    +0.000 N 
ATOM     28  H   UNL     1       8.126   6.095  15.753  0.00  0.00    +0.000 HD
ENDBRANCH  18  19
ENDBRANCH   1  18
TORSDOF 4
ENDMDL
MODEL 3
REMARK VINA RESULT:      -8.4      1.012      1.026
REMARK  Name = 
REMARK  5 active torsions:
REMARK  status: ('A' for Active; 'I' for Inactive)
REMARK    1  A    between atoms: C_1  and  C_2
REMARK    2  A    between atoms: C_2  and  N_3
REMARK    3  A    between atoms: C_2  and  C_18
REMARK    4  A    between atoms: C_4  and  C_6
REMARK    5  A    between atoms: C_10  and  N_11
REMARK                            x       y       z     vdW  Elec       q    Type
REMARK                         _______ _______ _______ _____ _____    ______ ____
ROOT
ATOM      1  N   UNL     1       5.587   4.736  18.510  0.00  0.00    +0.000 N 
ATOM      2  C   UNL     1       4.658   5.727  18.241  0.00  0.00    +0.000 C 
ATOM      3  O   UNL     1       4.850   6.587  17.388  0.00  0.00    +0.000 OA
ATOM      4  H   UNL     1       5.424   4.068  19.247  0.00  0.00    +0.000 HD
ENDROOT
BRANCH   2   5
ATOM      5  C   UNL     1       3.431   5.797  19.085  0.00  0.00    +0.000 A 
ATOM      6  C   UNL     1       2.901   4.667  19.708  0.00  0.00    +0.000 A 
ATOM      7  C   UNL     1       1.830   4.809  20.587  0.00  0.00    +0.000 A 
ATOM      8  C   UNL     1       1.300   6.074  20.859  0.00  0.00    +0.000 A 
ATOM      9  C   UNL     1       1.811   7.232  20.260  0.00  0.00    +0.000 A 
ATOM     10  C   UNL     1       2.877   7.068  19.357  0.00  0.00    +0.000 A 
BRANCH   9  11
ATOM     11  N   UNL     1       1.303   8.525  20.585  0.00  0.00    +0.000 N 
ATOM     12  C   UNL     1       1.205   9.021  21.937  0.00  0.00    +0.000 C 
ATOM     13  C   UNL     1       0.230  10.179  21.848  0.00  0.00    +0.000 C 
ATOM     14  C   UNL     1       0.450  10.726  20.453  0.00  0.00    +0.000 C 
ATOM     15  C   UNL     1       0.898   9.512  19.669  0.00  0.00    +0.000 C 
ATOM     16  O   UNL     1       0.913   9.496  18.448  0.00  0.00    +0.000 OA
ENDBRANCH   9  11
ENDBRANCH   2   5
BRANCH   1  18
ATOM     17  C   UNL     1       7.674   6.000  18.262  0.00  0.00    +0.000 C 
ATOM     18  C   UNL     1       6.915   4.731  17.887  0.00  0.00    +0.000 C 
BRANCH  18  19
ATOM     19  C   UNL     1       6.755   4.562  16.396  0.00  0.00    +0.000 A 
ATOM     20  N   UNL     1       6.004   3.713  15.710  0.00  0.00    +0.000 NA
ATOM     21  C   UNL     1       6.300   3.944  14.381  0.00  0.00    +0.000 A 
ATOM     22  C   UNL     1       5.819   3.327  13.215  0.00  0.00    +0.000 A 
ATOM     23  C   UNL     1       6.372   3.699  11.977  0.00  0.00    +0.000 A 
ATOM     24  C   UNL     1       7.372   4.672  11.901  0.00  0.00    +0.000 A 
ATOM     25  C   UNL     1       7.824   5.334  13.046  0.00  0.00    +0.000 A 
ATOM     26  C   UNL     1       7.254   4.945  14.258  0.00  0.00    +0.000 A 
ATOM     27  N   UNL     1       7.439   5.389  15.536  0.00  0.00    +0.000 N 
ATOM     28  H   UNL     1       8.043   6.148  15.832  0.00  0.00    +0.000 HD
ENDBRANCH  18  19
ENDBRANCH   1  18
TORSDOF 4
ENDMDL
MODEL 4
REMARK VINA RESULT:      -8.4      3.619      8.403
REMARK  Name = 
REMARK  5 active torsions:
REMARK  status: ('A' for Active; 'I' for Inactive)
REMARK    1  A    between atoms: C_1  and  C_2
REMARK    2  A    between atoms: C_2  and  N_3
REMARK    3  A    between atoms: C_2  and  C_18
REMARK    4  A    between atoms: C_4  and  C_6
REMARK    5  A    between atoms: C_10  and  N_11
REMARK                            x       y       z     vdW  Elec       q    Type
REMARK                         _______ _______ _______ _____ _____    ______ ____
ROOT
ATOM      1  N   UNL     1       1.288   9.352  19.400  0.00  0.00    +0.000 N 
ATOM      2  C   UNL     1       2.175   9.152  18.356  0.00  0.00    +0.000 C 
ATOM      3  O   UNL     1       2.470  10.046  17.570  0.00  0.00    +0.000 OA
ATOM      4  H   UNL     1       1.027   8.588  20.004  0.00  0.00    +0.000 HD
ENDROOT
BRANCH   2   5
ATOM      5  C   UNL     1       2.709   7.778  18.132  0.00  0.00    +0.000 A 
ATOM      6  C   UNL     1       3.802   7.541  17.298  0.00  0.00    +0.000 A 
ATOM      7  C   UNL     1       4.341   6.258  17.224  0.00  0.00    +0.000 A 
ATOM      8  C   UNL     1       3.805   5.219  17.991  0.00  0.00    +0.000 A 
ATOM      9  C   UNL     1       2.714   5.421  18.847  0.00  0.00    +0.000 A 
ATOM     10  C   UNL     1       2.167   6.716  18.891  0.00  0.00    +0.000 A 
BRANCH   9  11
ATOM     11  N   UNL     1       2.207   4.370  19.668  0.00  0.00    +0.000 N 
ATOM     12  C   UNL     1       2.322   4.366  21.107  0.00  0.00    +0.000 C 
ATOM     13  C   UNL     1       2.081   2.922  21.503  0.00  0.00    +0.000 C 
ATOM     14  C   UNL     1       1.130   2.413  20.440  0.00  0.00    +0.000 C 
ATOM     15  C   UNL     1       1.480   3.250  19.229  0.00  0.00    +0.000 C 
ATOM     16  O   UNL     1       1.113   2.951  18.104  0.00  0.00    +0.000 OA
ENDBRANCH   9  11
ENDBRANCH   2   5
BRANCH   1  18
ATOM     17  C   UNL     1       0.208  10.843  21.021  0.00  0.00    +0.000 C 
ATOM     18  C   UNL     1       0.543  10.606  19.552  0.00  0.00    +0.000 C 
BRANCH  18  19
ATOM     19  C   UNL     1      -0.683  10.557  18.672  0.00  0.00    +0.000 A 
ATOM     20  N   UNL     1      -0.871   9.957  17.506  0.00  0.00    +0.000 NA
ATOM     21  C   UNL     1      -2.150  10.300  17.112  0.00  0.00    +0.000 A 
ATOM     22  C   UNL     1      -2.873   9.969  15.956  0.00  0.00    +0.000 A 
ATOM     23  C   UNL     1      -4.140  10.544  15.763  0.00  0.00    +0.000 A 
ATOM     24  C   UNL     1      -4.681  11.422  16.706  0.00  0.00    +0.000 A 
ATOM     25  C   UNL     1      -3.998  11.721  17.888  0.00  0.00    +0.000 A 
ATOM     26  C   UNL     1      -2.745  11.132  18.052  0.00  0.00    +0.000 A 
ATOM     27  N   UNL     1      -1.838  11.186  19.072  0.00  0.00    +0.000 N 
ATOM     28  H   UNL     1      -1.948  11.675  19.953  0.00  0.00    +0.000 HD
ENDBRANCH  18  19
ENDBRANCH   1  18
TORSDOF 4
ENDMDL
MODEL 5
REMARK VINA RESULT:      -8.4      3.447      8.399
REMARK  Name = 
REMARK  5 active torsions:
REMARK  status: ('A' for Active; 'I' for Inactive)
REMARK    1  A    between atoms: C_1  and  C_2
REMARK    2  A    between atoms: C_2  and  N_3
REMARK    3  A    between atoms: C_2  and  C_18
REMARK    4  A    between atoms: C_4  and  C_6
REMARK    5  A    between atoms: C_10  and  N_11
REMARK                            x       y       z     vdW  Elec       q    Type
REMARK                         _______ _______ _______ _____ _____    ______ ____
ROOT
ATOM      1  N   UNL     1       1.365   9.153  19.305  0.00  0.00    +0.000 N 
ATOM      2  C   UNL     1       2.270   9.052  18.263  0.00  0.00    +0.000 C 
ATOM      3  O   UNL     1       2.568  10.014  17.562  0.00  0.00    +0.000 OA
ATOM      4  H   UNL     1       1.102   8.338  19.837  0.00  0.00    +0.000 HD
ENDROOT
BRANCH   2   5
ATOM      5  C   UNL     1       2.821   7.708  17.929  0.00  0.00    +0.000 A 
ATOM      6  C   UNL     1       4.007   7.557  17.210  0.00  0.00    +0.000 A 
ATOM      7  C   UNL     1       4.545   6.284  17.036  0.00  0.00    +0.000 A 
ATOM      8  C   UNL     1       3.914   5.167  17.591  0.00  0.00    +0.000 A 
ATOM      9  C   UNL     1       2.728   5.279  18.327  0.00  0.00    +0.000 A 
ATOM     10  C   UNL     1       2.185   6.569  18.473  0.00  0.00    +0.000 A 
BRANCH   9  11
ATOM     11  N   UNL     1       2.119   4.143  18.938  0.00  0.00    +0.000 N 
ATOM     12  C   UNL     1       1.703   2.975  18.199  0.00  0.00    +0.000 C 
ATOM     13  C   UNL     1       0.738   2.262  19.126  0.00  0.00    +0.000 C 
ATOM     14  C   UNL     1       1.252   2.605  20.509  0.00  0.00    +0.000 C 
ATOM     15  C   UNL     1       1.902   3.956  20.315  0.00  0.00    +0.000 C 
ATOM     16  O   UNL     1       2.194   4.679  21.255  0.00  0.00    +0.000 OA
ENDBRANCH   9  11
ENDBRANCH   2   5
BRANCH   1  18
ATOM     17  C   UNL     1       0.266  10.500  21.037  0.00  0.00    +0.000 C 
ATOM     18  C   UNL     1       0.605  10.383  19.554  0.00  0.00    +0.000 C 
BRANCH  18  19
ATOM     19  C   UNL     1      -0.619  10.389  18.671  0.00  0.00    +0.000 A 
ATOM     20  N   UNL     1      -0.818   9.828  17.487  0.00  0.00    +0.000 NA
ATOM     21  C   UNL     1      -2.087  10.213  17.100  0.00  0.00    +0.000 A 
ATOM     22  C   UNL     1      -2.815   9.933  15.933  0.00  0.00    +0.000 A 
ATOM     23  C   UNL     1      -4.067  10.544  15.755  0.00  0.00    +0.000 A 
ATOM     24  C   UNL     1      -4.590  11.406  16.722  0.00  0.00    +0.000 A 
ATOM     25  C   UNL     1      -3.904  11.654  17.915  0.00  0.00    +0.000 A 
ATOM     26  C   UNL     1      -2.665  11.030  18.063  0.00  0.00    +0.000 A 
ATOM     27  N   UNL     1      -1.761  11.033  19.087  0.00  0.00    +0.000 N 
ATOM     28  H   UNL     1      -1.861  11.497  19.982  0.00  0.00    +0.000 HD
ENDBRANCH  18  19
ENDBRANCH   1  18
TORSDOF 4
ENDMDL
MODEL 6
REMARK VINA RESULT:      -8.3      0.458      1.211
REMARK  Name = 
REMARK  5 active torsions:
REMARK  status: ('A' for Active; 'I' for Inactive)
REMARK    1  A    between atoms: C_1  and  C_2
REMARK    2  A    between atoms: C_2  and  N_3
REMARK    3  A    between atoms: C_2  and  C_18
REMARK    4  A    between atoms: C_4  and  C_6
REMARK    5  A    between atoms: C_10  and  N_11
REMARK                            x       y       z     vdW  Elec       q    Type
REMARK                         _______ _______ _______ _____ _____    ______ ____
ROOT
ATOM      1  N   UNL     1       5.883   6.149  18.175  0.00  0.00    +0.000 N 
ATOM      2  C   UNL     1       5.384   5.110  18.941  0.00  0.00    +0.000 C 
ATOM      3  O   UNL     1       6.048   4.111  19.199  0.00  0.00    +0.000 OA
ATOM      4  H   UNL     1       5.302   6.938  17.941  0.00  0.00    +0.000 HD
ENDROOT
BRANCH   2   5
ATOM      5  C   UNL     1       3.961   5.174  19.383  0.00  0.00    +0.000 A 
ATOM      6  C   UNL     1       3.271   4.038  19.810  0.00  0.00    +0.000 A 
ATOM      7  C   UNL     1       1.987   4.174  20.332  0.00  0.00    +0.000 A 
ATOM      8  C   UNL     1       1.399   5.437  20.446  0.00  0.00    +0.000 A 
ATOM      9  C   UNL     1       2.063   6.600  20.037  0.00  0.00    +0.000 A 
ATOM     10  C   UNL     1       3.349   6.443  19.489  0.00  0.00    +0.000 A 
BRANCH   9  11
ATOM     11  N   UNL     1       1.479   7.891  20.207  0.00  0.00    +0.000 N 
ATOM     12  C   UNL     1       1.027   8.392  21.483  0.00  0.00    +0.000 C 
ATOM     13  C   UNL     1       0.102   9.542  21.133  0.00  0.00    +0.000 C 
ATOM     14  C   UNL     1       0.677  10.083  19.841  0.00  0.00    +0.000 C 
ATOM     15  C   UNL     1       1.322   8.870  19.210  0.00  0.00    +0.000 C 
ATOM     16  O   UNL     1       1.658   8.847  18.036  0.00  0.00    +0.000 OA
ENDBRANCH   9  11
ENDBRANCH   2   5
BRANCH   1  18
ATOM     17  C   UNL     1       7.835   7.442  17.444  0.00  0.00    +0.000 C 
ATOM     18  C   UNL     1       7.189   6.062  17.511  0.00  0.00    +0.000 C 
BRANCH  18  19
ATOM     19  C   UNL     1       7.005   5.433  16.152  0.00  0.00    +0.000 A 
ATOM     20  N   UNL     1       7.758   5.515  15.065  0.00  0.00    +0.000 NA
ATOM     21  C   UNL     1       7.084   4.808  14.089  0.00  0.00    +0.000 A 
ATOM     22  C   UNL     1       7.401   4.575  12.742  0.00  0.00    +0.000 A 
ATOM     23  C   UNL     1       6.473   3.893  11.937  0.00  0.00    +0.000 A 
ATOM     24  C   UNL     1       5.260   3.442  12.465  0.00  0.00    +0.000 A 
ATOM     25  C   UNL     1       4.951   3.619  13.817  0.00  0.00    +0.000 A 
ATOM     26  C   UNL     1       5.894   4.296  14.590  0.00  0.00    +0.000 A 
ATOM     27  N   UNL     1       5.925   4.614  15.918  0.00  0.00    +0.000 N 
ATOM     28  H   UNL     1       5.233   4.366  16.615  0.00  0.00    +0.000 HD
ENDBRANCH  18  19
ENDBRANCH   1  18
TORSDOF 4
ENDMDL
MODEL 7
REMARK VINA RESULT:      -8.2      3.075      8.666
REMARK  Name = 
REMARK  5 active torsions:
REMARK  status: ('A' for Active; 'I' for Inactive)
REMARK    1  A    between atoms: C_1  and  C_2
REMARK    2  A    between atoms: C_2  and  N_3
REMARK    3  A    between atoms: C_2  and  C_18
REMARK    4  A    between atoms: C_4  and  C_6
REMARK    5  A    between atoms: C_10  and  N_11
REMARK                            x       y       z     vdW  Elec       q    Type
REMARK                         _______ _______ _______ _____ _____    ______ ____
ROOT
ATOM      1  N   UNL     1       1.317   8.984  19.440  0.00  0.00    +0.000 N 
ATOM      2  C   UNL     1       2.170   8.628  18.409  0.00  0.00    +0.000 C 
ATOM      3  O   UNL     1       2.567   9.440  17.580  0.00  0.00    +0.000 OA
ATOM      4  H   UNL     1       0.970   8.289  20.081  0.00  0.00    +0.000 HD
ENDROOT
BRANCH   2   5
ATOM      5  C   UNL     1       2.536   7.190  18.256  0.00  0.00    +0.000 A 
ATOM      6  C   UNL     1       1.651   6.166  18.594  0.00  0.00    +0.000 A 
ATOM      7  C   UNL     1       1.993   4.846  18.313  0.00  0.00    +0.000 A 
ATOM      8  C   UNL     1       3.204   4.547  17.680  0.00  0.00    +0.000 A 
ATOM      9  C   UNL     1       4.114   5.549  17.317  0.00  0.00    +0.000 A 
ATOM     10  C   UNL     1       3.763   6.875  17.631  0.00  0.00    +0.000 A 
BRANCH   9  11
ATOM     11  N   UNL     1       5.321   5.243  16.623  0.00  0.00    +0.000 N 
ATOM     12  C   UNL     1       5.523   5.529  15.222  0.00  0.00    +0.000 C 
ATOM     13  C   UNL     1       6.698   4.658  14.821  0.00  0.00    +0.000 C 
ATOM     14  C   UNL     1       7.521   4.562  16.089  0.00  0.00    +0.000 C 
ATOM     15  C   UNL     1       6.489   4.699  17.187  0.00  0.00    +0.000 C 
ATOM     16  O   UNL     1       6.730   4.405  18.347  0.00  0.00    +0.000 OA
ENDBRANCH   9  11
ENDBRANCH   2   5
BRANCH   1  18
ATOM     17  C   UNL     1       0.462  10.687  20.985  0.00  0.00    +0.000 C 
ATOM     18  C   UNL     1       0.728  10.325  19.527  0.00  0.00    +0.000 C 
BRANCH  18  19
ATOM     19  C   UNL     1      -0.518  10.368  18.675  0.00  0.00    +0.000 A 
ATOM     20  N   UNL     1      -0.739   9.881  17.463  0.00  0.00    +0.000 NA
ATOM     21  C   UNL     1      -2.022  10.270  17.133  0.00  0.00    +0.000 A 
ATOM     22  C   UNL     1      -2.774  10.053  15.968  0.00  0.00    +0.000 A 
ATOM     23  C   UNL     1      -4.040  10.655  15.859  0.00  0.00    +0.000 A 
ATOM     24  C   UNL     1      -4.550  11.445  16.892  0.00  0.00    +0.000 A 
ATOM     25  C   UNL     1      -3.838  11.627  18.081  0.00  0.00    +0.000 A 
ATOM     26  C   UNL     1      -2.587  11.015  18.160  0.00  0.00    +0.000 A 
ATOM     27  N   UNL     1      -1.658  10.966  19.159  0.00  0.00    +0.000 N 
ATOM     28  H   UNL     1      -1.742  11.371  20.084  0.00  0.00    +0.000 HD
ENDBRANCH  18  19
ENDBRANCH   1  18
TORSDOF 4
ENDMDL
MODEL 8
REMARK VINA RESULT:      -8.2      1.375      1.615
REMARK  Name = 
REMARK  5 active torsions:
REMARK  status: ('A' for Active; 'I' for Inactive)
REMARK    1  A    between atoms: C_1  and  C_2
REMARK    2  A    between atoms: C_2  and  N_3
REMARK    3  A    between atoms: C_2  and  C_18
REMARK    4  A    between atoms: C_4  and  C_6
REMARK    5  A    between atoms: C_10  and  N_11
REMARK                            x       y       z     vdW  Elec       q    Type
REMARK                         _______ _______ _______ _____ _____    ______ ____
ROOT
ATOM      1  N   UNL     1       5.686   5.179  18.547  0.00  0.00    +0.000 N 
ATOM      2  C   UNL     1       4.660   6.017  18.142  0.00  0.00    +0.000 C 
ATOM      3  O   UNL     1       4.751   6.725  17.145  0.00  0.00    +0.000 OA
ATOM      4  H   UNL     1       5.603   4.642  19.396  0.00  0.00    +0.000 HD
ENDROOT
BRANCH   2   5
ATOM      5  C   UNL     1       3.449   6.125  19.006  0.00  0.00    +0.000 A 
ATOM      6  C   UNL     1       2.988   5.048  19.763  0.00  0.00    +0.000 A 
ATOM      7  C   UNL     1       1.930   5.238  20.649  0.00  0.00    +0.000 A 
ATOM      8  C   UNL     1       1.345   6.500  20.793  0.00  0.00    +0.000 A 
ATOM      9  C   UNL     1       1.787   7.607  20.057  0.00  0.00    +0.000 A 
ATOM     10  C   UNL     1       2.840   7.391  19.149  0.00  0.00    +0.000 A 
BRANCH   9  11
ATOM     11  N   UNL     1       1.223   8.903  20.250  0.00  0.00    +0.000 N 
ATOM     12  C   UNL     1       0.566   9.644  19.199  0.00  0.00    +0.000 C 
ATOM     13  C   UNL     1       0.544  11.075  19.700  0.00  0.00    +0.000 C 
ATOM     14  C   UNL     1       0.462  10.926  21.205  0.00  0.00    +0.000 C 
ATOM     15  C   UNL     1       1.157   9.608  21.464  0.00  0.00    +0.000 C 
ATOM     16  O   UNL     1       1.526   9.275  22.579  0.00  0.00    +0.000 OA
ENDBRANCH   9  11
ENDBRANCH   2   5
BRANCH   1  18
ATOM     17  C   UNL     1       7.690   6.524  18.109  0.00  0.00    +0.000 C 
ATOM     18  C   UNL     1       6.996   5.185  17.887  0.00  0.00    +0.000 C 
BRANCH  18  19
ATOM     19  C   UNL     1       6.807   4.857  16.425  0.00  0.00    +0.000 A 
ATOM     20  N   UNL     1       6.071   3.918  15.850  0.00  0.00    +0.000 NA
ATOM     21  C   UNL     1       6.327   4.019  14.497  0.00  0.00    +0.000 A 
ATOM     22  C   UNL     1       5.842   3.271  13.413  0.00  0.00    +0.000 A 
ATOM     23  C   UNL     1       6.352   3.530  12.130  0.00  0.00    +0.000 A 
ATOM     24  C   UNL     1       7.316   4.521  11.928  0.00  0.00    +0.000 A 
ATOM     25  C   UNL     1       7.771   5.312  12.986  0.00  0.00    +0.000 A 
ATOM     26  C   UNL     1       7.243   5.033  14.247  0.00  0.00    +0.000 A 
ATOM     27  N   UNL     1       7.442   5.612  15.467  0.00  0.00    +0.000 N 
ATOM     28  H   UNL     1       8.026   6.416  15.668  0.00  0.00    +0.000 HD
ENDBRANCH  18  19
ENDBRANCH   1  18
TORSDOF 4
ENDMDL
MODEL 9
REMARK VINA RESULT:      -8.2      3.595      8.354
REMARK  Name = 
REMARK  5 active torsions:
REMARK  status: ('A' for Active; 'I' for Inactive)
REMARK    1  A    between atoms: C_1  and  C_2
REMARK    2  A    between atoms: C_2  and  N_3
REMARK    3  A    between atoms: C_2  and  C_18
REMARK    4  A    between atoms: C_4  and  C_6
REMARK    5  A    between atoms: C_10  and  N_11
REMARK                            x       y       z     vdW  Elec       q    Type
REMARK                         _______ _______ _______ _____ _____    ______ ____
ROOT
ATOM      1  N   UNL     1       1.114   9.330  19.571  0.00  0.00    +0.000 N 
ATOM      2  C   UNL     1       2.052   9.307  18.553  0.00  0.00    +0.000 C 
ATOM      3  O   UNL     1       2.397  10.324  17.960  0.00  0.00    +0.000 OA
ATOM      4  H   UNL     1       0.815   8.474  20.012  0.00  0.00    +0.000 HD
ENDROOT
BRANCH   2   5
ATOM      5  C   UNL     1       2.583   7.987  18.108  0.00  0.00    +0.000 A 
ATOM      6  C   UNL     1       3.707   7.886  17.288  0.00  0.00    +0.000 A 
ATOM      7  C   UNL     1       4.237   6.629  17.005  0.00  0.00    +0.000 A 
ATOM      8  C   UNL     1       3.660   5.478  17.552  0.00  0.00    +0.000 A 
ATOM      9  C   UNL     1       2.537   5.541  18.386  0.00  0.00    +0.000 A 
ATOM     10  C   UNL     1       2.000   6.816  18.642  0.00  0.00    +0.000 A 
BRANCH   9  11
ATOM     11  N   UNL     1       1.988   4.368  18.985  0.00  0.00    +0.000 N 
ATOM     12  C   UNL     1       1.531   3.230  18.223  0.00  0.00    +0.000 C 
ATOM     13  C   UNL     1       0.645   2.461  19.183  0.00  0.00    +0.000 C 
ATOM     14  C   UNL     1       1.254   2.747  20.540  0.00  0.00    +0.000 C 
ATOM     15  C   UNL     1       1.874   4.115  20.364  0.00  0.00    +0.000 C 
ATOM     16  O   UNL     1       2.226   4.797  21.313  0.00  0.00    +0.000 OA
ENDBRANCH   9  11
ENDBRANCH   2   5
BRANCH   1  18
ATOM     17  C   UNL     1      -0.071  10.500  21.373  0.00  0.00    +0.000 C 
ATOM     18  C   UNL     1       0.375  10.550  19.915  0.00  0.00    +0.000 C 
BRANCH  18  19
ATOM     19  C   UNL     1      -0.777  10.710  18.954  0.00  0.00    +0.000 A 
ATOM     20  N   UNL     1      -1.939  11.327  19.111  0.00  0.00    +0.000 NA
ATOM     21  C   UNL     1      -2.644  11.099  17.945  0.00  0.00    +0.000 A 
ATOM     22  C   UNL     1      -3.934  11.496  17.560  0.00  0.00    +0.000 A 
ATOM     23  C   UNL     1      -4.446  11.036  16.336  0.00  0.00    +0.000 A 
ATOM     24  C   UNL     1      -3.686  10.208  15.506  0.00  0.00    +0.000 A 
ATOM     25  C   UNL     1      -2.380   9.846  15.847  0.00  0.00    +0.000 A 
ATOM     26  C   UNL     1      -1.899  10.322  17.067  0.00  0.00    +0.000 A 
ATOM     27  N   UNL     1      -0.689  10.186  17.686  0.00  0.00    +0.000 N 
ATOM     28  H   UNL     1       0.126   9.707  17.321  0.00  0.00    +0.000 HD
ENDBRANCH  18  19
ENDBRANCH   1  18
TORSDOF 4
ENDMDL
