MODEL 1
REMARK VINA RESULT:      -7.5      0.000      0.000
REMARK  Name = 
REMARK  7 active torsions:
REMARK  status: ('A' for Active; 'I' for Inactive)
REMARK    1  A    between atoms: C_1  and  N_2
REMARK    2  A    between atoms: N_2  and  S_3
REMARK    3  A    between atoms: S_3  and  C_6
REMARK    4  A    between atoms: C_8  and  C_9
REMARK    5  A    between atoms: C_19  and  S_20
REMARK    6  A    between atoms: S_20  and  N_23
REMARK    7  A    between atoms: N_23  and  C_24
REMARK                            x       y       z     vdW  Elec       q    Type
REMARK                         _______ _______ _______ _____ _____    ______ ____
ROOT
ATOM      1  C   UNL     1       2.582   5.893  20.038  0.00  0.00    +0.000 C 
ATOM      2  O   UNL     1       2.638   5.311  21.118  0.00  0.00    +0.000 OA
ATOM      3  N   UNL     1       1.927   7.120  19.856  0.00  0.00    +0.000 N 
ATOM      4  C   UNL     1       1.290   7.763  21.013  0.00  0.00    +0.000 C 
ATOM      5  C   UNL     1       0.255   8.833  20.615  0.00  0.00    +0.000 C 
ATOM      6  C   UNL     1       0.906   9.885  19.742  0.00  0.00    +0.000 A 
ATOM      7  C   UNL     1       1.843   9.398  18.803  0.00  0.00    +0.000 A 
ATOM      8  C   UNL     1       2.516  10.265  17.931  0.00  0.00    +0.000 A 
ATOM      9  C   UNL     1       2.273  11.628  17.977  0.00  0.00    +0.000 A 
ATOM     10  C   UNL     1       1.340  12.127  18.883  0.00  0.00    +0.000 A 
ATOM     11  C   UNL     1       0.651  11.271  19.763  0.00  0.00    +0.000 A 
ATOM     12  C   UNL     1       2.074   7.921  18.648  0.00  0.00    +0.000 C 
ENDROOT
BRANCH   1  15
ATOM     13  C   UNL     1       5.209   5.149  17.418  0.00  0.00    +0.000 A 
ATOM     14  C   UNL     1       4.597   5.657  18.572  0.00  0.00    +0.000 A 
ATOM     15  C   UNL     1       3.286   5.264  18.875  0.00  0.00    +0.000 A 
ATOM     16  C   UNL     1       2.650   4.302  18.072  0.00  0.00    +0.000 A 
ATOM     17  C   UNL     1       3.248   3.854  16.894  0.00  0.00    +0.000 A 
ATOM     18  C   UNL     1       4.525   4.286  16.569  0.00  0.00    +0.000 A 
ATOM     19  F   UNL     1       5.096   3.808  15.456  0.00  0.00    +0.000 F 
BRANCH  13  20
ATOM     20  S   UNL     1       6.871   5.548  17.005  0.00  0.00    +0.000 S 
ATOM     21  O   UNL     1       6.873   6.144  15.686  0.00  0.00    +0.000 OA
ATOM     22  O   UNL     1       7.691   4.398  17.317  0.00  0.00    +0.000 OA
BRANCH  20  24
ATOM     23  C   UNL     1       7.835   8.002  17.617  0.00  0.00    +0.000 C 
ATOM     24  N   UNL     1       7.236   6.767  18.119  0.00  0.00    +0.000 NA
ATOM     25  H   UNL     1       6.502   6.863  18.824  0.00  0.00    +0.000 HD
ENDBRANCH  20  24
ENDBRANCH  13  20
ENDBRANCH   1  15
BRANCH  11  26
ATOM     26  S   UNL     1      -0.433  12.062  20.934  0.00  0.00    +0.000 S 
ATOM     27  O   UNL     1      -1.792  11.850  20.488  0.00  0.00    +0.000 OA
ATOM     28  O   UNL     1      -0.024  11.713  22.275  0.00  0.00    +0.000 OA
BRANCH  26  29
ATOM     29  N   UNL     1      -0.122  13.711  20.732  0.00  0.00    +0.000 NA
ATOM     30  C   UNL     1      -1.222  14.553  20.263  0.00  0.00    +0.000 C 
ATOM     31  H   UNL     1       0.780  13.844  20.271  0.00  0.00    +0.000 HD
ENDBRANCH  26  29
ENDBRANCH  11  26
TORSDOF 5
ENDMDL
MODEL 2
REMARK VINA RESULT:      -7.4      1.152      1.365
REMARK  Name = 
REMARK  7 active torsions:
REMARK  status: ('A' for Active; 'I' for Inactive)
REMARK    1  A    between atoms: C_1  and  N_2
REMARK    2  A    between atoms: N_2  and  S_3
REMARK    3  A    between atoms: S_3  and  C_6
REMARK    4  A    between atoms: C_8  and  C_9
REMARK    5  A    between atoms: C_19  and  S_20
REMARK    6  A    between atoms: S_20  and  N_23
REMARK    7  A    between atoms: N_23  and  C_24
REMARK                            x       y       z     vdW  Elec       q    Type
REMARK                         _______ _______ _______ _____ _____    ______ ____
ROOT
ATOM      1  C   UNL     1       2.650   5.918  20.041  0.00  0.00    +0.000 C 
ATOM      2  O   UNL     1       2.637   5.343  21.127  0.00  0.00    +0.000 OA
ATOM      3  N   UNL     1       1.986   7.130  19.803  0.00  0.00    +0.000 N 
ATOM      4  C   UNL     1       1.253   7.766  20.905  0.00  0.00    +0.000 C 
ATOM      5  C   UNL     1       0.230   8.813  20.424  0.00  0.00    +0.000 C 
ATOM      6  C   UNL     1       0.923   9.874  19.596  0.00  0.00    +0.000 A 
ATOM      7  C   UNL     1       1.937   9.401  18.732  0.00  0.00    +0.000 A 
ATOM      8  C   UNL     1       2.655  10.277  17.907  0.00  0.00    +0.000 A 
ATOM      9  C   UNL     1       2.383  11.634  17.925  0.00  0.00    +0.000 A 
ATOM     10  C   UNL     1       1.376  12.119  18.756  0.00  0.00    +0.000 A 
ATOM     11  C   UNL     1       0.639  11.254  19.588  0.00  0.00    +0.000 A 
ATOM     12  C   UNL     1       2.208   7.928  18.604  0.00  0.00    +0.000 C 
ENDROOT
BRANCH   1  15
ATOM     13  C   UNL     1       5.562   5.023  17.797  0.00  0.00    +0.000 A 
ATOM     14  C   UNL     1       4.837   5.512  18.891  0.00  0.00    +0.000 A 
ATOM     15  C   UNL     1       3.451   5.297  18.938  0.00  0.00    +0.000 A 
ATOM     16  C   UNL     1       2.839   4.520  17.941  0.00  0.00    +0.000 A 
ATOM     17  C   UNL     1       3.563   4.095  16.827  0.00  0.00    +0.000 A 
ATOM     18  C   UNL     1       4.924   4.355  16.758  0.00  0.00    +0.000 A 
ATOM     19  F   UNL     1       5.607   3.899  15.700  0.00  0.00    +0.000 F 
BRANCH  13  20
ATOM     20  S   UNL     1       7.309   5.200  17.698  0.00  0.00    +0.000 S 
ATOM     21  O   UNL     1       7.818   4.139  16.856  0.00  0.00    +0.000 OA
ATOM     22  O   UNL     1       7.808   5.406  19.040  0.00  0.00    +0.000 OA
BRANCH  20  24
ATOM     23  C   UNL     1       7.709   7.875  17.617  0.00  0.00    +0.000 C 
ATOM     24  N   UNL     1       7.477   6.653  16.850  0.00  0.00    +0.000 NA
ATOM     25  H   UNL     1       8.031   6.529  16.000  0.00  0.00    +0.000 HD
ENDBRANCH  20  24
ENDBRANCH  13  20
ENDBRANCH   1  15
BRANCH  11  26
ATOM     26  S   UNL     1      -0.544  12.029  20.670  0.00  0.00    +0.000 S 
ATOM     27  O   UNL     1      -0.280  13.450  20.664  0.00  0.00    +0.000 OA
ATOM     28  O   UNL     1      -1.863  11.513  20.382  0.00  0.00    +0.000 OA
BRANCH  26  29
ATOM     29  N   UNL     1      -0.118  11.476  22.209  0.00  0.00    +0.000 NA
ATOM     30  C   UNL     1      -1.191  10.979  23.069  0.00  0.00    +0.000 C 
ATOM     31  H   UNL     1       0.549  12.117  22.640  0.00  0.00    +0.000 HD
ENDBRANCH  26  29
ENDBRANCH  11  26
TORSDOF 5
ENDMDL
MODEL 3
REMARK VINA RESULT:      -7.2      3.796      8.939
REMARK  Name = 
REMARK  7 active torsions:
REMARK  status: ('A' for Active; 'I' for Inactive)
REMARK    1  A    between atoms: C_1  and  N_2
REMARK    2  A    between atoms: N_2  and  S_3
REMARK    3  A    between atoms: S_3  and  C_6
REMARK    4  A    between atoms: C_8  and  C_9
REMARK    5  A    between atoms: C_19  and  S_20
REMARK    6  A    between atoms: S_20  and  N_23
REMARK    7  A    between atoms: N_23  and  C_24
REMARK                            x       y       z     vdW  Elec       q    Type
REMARK                         _______ _______ _______ _____ _____    ______ ____
ROOT
ATOM      1  C   UNL     1       1.882   9.983  18.131  0.00  0.00    +0.000 C 
ATOM      2  O   UNL     1       2.667  10.772  17.611  0.00  0.00    +0.000 OA
ATOM      3  N   UNL     1       2.137   8.609  18.252  0.00  0.00    +0.000 N 
ATOM      4  C   UNL     1       3.413   8.078  17.756  0.00  0.00    +0.000 C 
ATOM      5  C   UNL     1       3.389   6.552  17.540  0.00  0.00    +0.000 C 
ATOM      6  C   UNL     1       3.011   5.852  18.828  0.00  0.00    +0.000 A 
ATOM      7  C   UNL     1       2.012   6.491  19.595  0.00  0.00    +0.000 A 
ATOM      8  C   UNL     1       1.567   5.947  20.808  0.00  0.00    +0.000 A 
ATOM      9  C   UNL     1       2.106   4.762  21.281  0.00  0.00    +0.000 A 
ATOM     10  C   UNL     1       3.080   4.107  20.531  0.00  0.00    +0.000 A 
ATOM     11  C   UNL     1       3.535   4.635  19.308  0.00  0.00    +0.000 A 
ATOM     12  C   UNL     1       1.327   7.728  19.083  0.00  0.00    +0.000 C 
ENDROOT
BRANCH   1  15
ATOM     13  C   UNL     1      -1.741  11.030  18.430  0.00  0.00    +0.000 A 
ATOM     14  C   UNL     1      -0.579  10.410  17.956  0.00  0.00    +0.000 A 
ATOM     15  C   UNL     1       0.609  10.540  18.690  0.00  0.00    +0.000 A 
ATOM     16  C   UNL     1       0.587  11.208  19.926  0.00  0.00    +0.000 A 
ATOM     17  C   UNL     1      -0.563  11.874  20.353  0.00  0.00    +0.000 A 
ATOM     18  C   UNL     1      -1.722  11.786  19.597  0.00  0.00    +0.000 A 
ATOM     19  F   UNL     1      -2.825  12.396  20.049  0.00  0.00    +0.000 F 
BRANCH  13  20
ATOM     20  S   UNL     1      -3.281  10.860  17.597  0.00  0.00    +0.000 S 
ATOM     21  O   UNL     1      -4.190  11.851  18.132  0.00  0.00    +0.000 OA
ATOM     22  O   UNL     1      -3.619   9.454  17.580  0.00  0.00    +0.000 OA
BRANCH  20  24
ATOM     23  C   UNL     1      -2.977  10.314  14.964  0.00  0.00    +0.000 C 
ATOM     24  N   UNL     1      -2.890  11.322  16.018  0.00  0.00    +0.000 NA
ATOM     25  H   UNL     1      -3.254  12.252  15.799  0.00  0.00    +0.000 HD
ENDBRANCH  20  24
ENDBRANCH  13  20
ENDBRANCH   1  15
BRANCH  11  26
ATOM     26  S   UNL     1       4.855   3.741  18.514  0.00  0.00    +0.000 S 
ATOM     27  O   UNL     1       4.513   3.603  17.116  0.00  0.00    +0.000 OA
ATOM     28  O   UNL     1       6.123   4.301  18.922  0.00  0.00    +0.000 OA
BRANCH  26  29
ATOM     29  N   UNL     1       4.759   2.190  19.178  0.00  0.00    +0.000 NA
ATOM     30  C   UNL     1       3.800   1.259  18.584  0.00  0.00    +0.000 C 
ATOM     31  H   UNL     1       4.766   2.244  20.198  0.00  0.00    +0.000 HD
ENDBRANCH  26  29
ENDBRANCH  11  26
TORSDOF 5
ENDMDL
MODEL 4
REMARK VINA RESULT:      -7.2      1.139      1.208
REMARK  Name = 
REMARK  7 active torsions:
REMARK  status: ('A' for Active; 'I' for Inactive)
REMARK    1  A    between atoms: C_1  and  N_2
REMARK    2  A    between atoms: N_2  and  S_3
REMARK    3  A    between atoms: S_3  and  C_6
REMARK    4  A    between atoms: C_8  and  C_9
REMARK    5  A    between atoms: C_19  and  S_20
REMARK    6  A    between atoms: S_20  and  N_23
REMARK    7  A    between atoms: N_23  and  C_24
REMARK                            x       y       z     vdW  Elec       q    Type
REMARK                         _______ _______ _______ _____ _____    ______ ____
ROOT
ATOM      1  C   UNL     1       2.440   5.941  20.104  0.00  0.00    +0.000 C 
ATOM      2  O   UNL     1       2.532   5.343  21.173  0.00  0.00    +0.000 OA
ATOM      3  N   UNL     1       1.792   7.178  19.967  0.00  0.00    +0.000 N 
ATOM      4  C   UNL     1       1.210   7.811  21.157  0.00  0.00    +0.000 C 
ATOM      5  C   UNL     1       0.172   8.899  20.815  0.00  0.00    +0.000 C 
ATOM      6  C   UNL     1       0.801   9.956  19.932  0.00  0.00    +0.000 A 
ATOM      7  C   UNL     1       1.694   9.472  18.950  0.00  0.00    +0.000 A 
ATOM      8  C   UNL     1       2.341  10.344  18.064  0.00  0.00    +0.000 A 
ATOM      9  C   UNL     1       2.116  11.708  18.138  0.00  0.00    +0.000 A 
ATOM     10  C   UNL     1       1.226  12.205  19.088  0.00  0.00    +0.000 A 
ATOM     11  C   UNL     1       0.562  11.343  19.982  0.00  0.00    +0.000 A 
ATOM     12  C   UNL     1       1.901   7.994  18.765  0.00  0.00    +0.000 C 
ENDROOT
BRANCH   1  15
ATOM     13  C   UNL     1       4.724   5.432  17.131  0.00  0.00    +0.000 A 
ATOM     14  C   UNL     1       4.192   5.956  18.317  0.00  0.00    +0.000 A 
ATOM     15  C   UNL     1       3.089   5.321  18.906  0.00  0.00    +0.000 A 
ATOM     16  C   UNL     1       2.603   4.126  18.350  0.00  0.00    +0.000 A 
ATOM     17  C   UNL     1       3.102   3.653  17.136  0.00  0.00    +0.000 A 
ATOM     18  C   UNL     1       4.159   4.314  16.528  0.00  0.00    +0.000 A 
ATOM     19  F   UNL     1       4.651   3.816  15.387  0.00  0.00    +0.000 F 
BRANCH  13  20
ATOM     20  S   UNL     1       6.143   6.138  16.368  0.00  0.00    +0.000 S 
ATOM     21  O   UNL     1       6.552   7.281  17.157  0.00  0.00    +0.000 OA
ATOM     22  O   UNL     1       5.870   6.253  14.952  0.00  0.00    +0.000 OA
BRANCH  20  24
ATOM     23  C   UNL     1       7.747   4.627  17.939  0.00  0.00    +0.000 C 
ATOM     24  N   UNL     1       7.305   4.928  16.579  0.00  0.00    +0.000 NA
ATOM     25  H   UNL     1       7.131   4.130  15.962  0.00  0.00    +0.000 HD
ENDBRANCH  20  24
ENDBRANCH  13  20
ENDBRANCH   1  15
BRANCH  11  26
ATOM     26  S   UNL     1      -0.465  12.130  21.207  0.00  0.00    +0.000 S 
ATOM     27  O   UNL     1      -1.842  11.948  20.808  0.00  0.00    +0.000 OA
ATOM     28  O   UNL     1      -0.012  11.749  22.525  0.00  0.00    +0.000 OA
BRANCH  26  29
ATOM     29  N   UNL     1      -0.134  13.777  21.024  0.00  0.00    +0.000 NA
ATOM     30  C   UNL     1       0.108  14.556  22.237  0.00  0.00    +0.000 C 
ATOM     31  H   UNL     1      -0.771  14.189  20.340  0.00  0.00    +0.000 HD
ENDBRANCH  26  29
ENDBRANCH  11  26
TORSDOF 5
ENDMDL
MODEL 5
REMARK VINA RESULT:      -7.2      2.283      3.260
REMARK  Name = 
REMARK  7 active torsions:
REMARK  status: ('A' for Active; 'I' for Inactive)
REMARK    1  A    between atoms: C_1  and  N_2
REMARK    2  A    between atoms: N_2  and  S_3
REMARK    3  A    between atoms: S_3  and  C_6
REMARK    4  A    between atoms: C_8  and  C_9
REMARK    5  A    between atoms: C_19  and  S_20
REMARK    6  A    between atoms: S_20  and  N_23
REMARK    7  A    between atoms: N_23  and  C_24
REMARK                            x       y       z     vdW  Elec       q    Type
REMARK                         _______ _______ _______ _____ _____    ______ ____
ROOT
ATOM      1  C   UNL     1       2.174   8.078  18.150  0.00  0.00    +0.000 C 
ATOM      2  O   UNL     1       1.988   8.168  16.939  0.00  0.00    +0.000 OA
ATOM      3  N   UNL     1       1.703   9.022  19.074  0.00  0.00    +0.000 N 
ATOM      4  C   UNL     1       0.928  10.169  18.585  0.00  0.00    +0.000 C 
ATOM      5  C   UNL     1       0.859  11.328  19.599  0.00  0.00    +0.000 C 
ATOM      6  C   UNL     1       0.274  10.839  20.907  0.00  0.00    +0.000 A 
ATOM      7  C   UNL     1       0.683   9.548  21.308  0.00  0.00    +0.000 A 
ATOM      8  C   UNL     1       0.220   8.976  22.501  0.00  0.00    +0.000 A 
ATOM      9  C   UNL     1      -0.659   9.673  23.313  0.00  0.00    +0.000 A 
ATOM     10  C   UNL     1      -1.062  10.954  22.945  0.00  0.00    +0.000 A 
ATOM     11  C   UNL     1      -0.602  11.547  21.753  0.00  0.00    +0.000 A 
ATOM     12  C   UNL     1       1.708   8.787  20.512  0.00  0.00    +0.000 C 
ENDROOT
BRANCH   1  15
ATOM     13  C   UNL     1       4.976   5.640  18.870  0.00  0.00    +0.000 A 
ATOM     14  C   UNL     1       4.306   6.815  18.505  0.00  0.00    +0.000 A 
ATOM     15  C   UNL     1       2.912   6.874  18.650  0.00  0.00    +0.000 A 
ATOM     16  C   UNL     1       2.233   5.796  19.241  0.00  0.00    +0.000 A 
ATOM     17  C   UNL     1       2.905   4.611  19.541  0.00  0.00    +0.000 A 
ATOM     18  C   UNL     1       4.276   4.537  19.347  0.00  0.00    +0.000 A 
ATOM     19  F   UNL     1       4.908   3.405  19.684  0.00  0.00    +0.000 F 
BRANCH  13  20
ATOM     20  S   UNL     1       6.728   5.513  18.775  0.00  0.00    +0.000 S 
ATOM     21  O   UNL     1       7.220   5.137  20.083  0.00  0.00    +0.000 OA
ATOM     22  O   UNL     1       7.218   6.690  18.092  0.00  0.00    +0.000 OA
BRANCH  20  24
ATOM     23  C   UNL     1       7.031   4.438  16.311  0.00  0.00    +0.000 C 
ATOM     24  N   UNL     1       6.938   4.187  17.747  0.00  0.00    +0.000 NA
ATOM     25  H   UNL     1       7.593   3.507  18.141  0.00  0.00    +0.000 HD
ENDBRANCH  20  24
ENDBRANCH  13  20
ENDBRANCH   1  15
BRANCH  11  26
ATOM     26  S   UNL     1      -1.283  13.146  21.362  0.00  0.00    +0.000 S 
ATOM     27  O   UNL     1      -0.226  14.121  21.507  0.00  0.00    +0.000 OA
ATOM     28  O   UNL     1      -2.051  13.052  20.141  0.00  0.00    +0.000 OA
BRANCH  26  29
ATOM     29  N   UNL     1      -2.377  13.444  22.616  0.00  0.00    +0.000 NA
ATOM     30  C   UNL     1      -3.794  13.533  22.268  0.00  0.00    +0.000 C 
ATOM     31  H   UNL     1      -2.014  14.173  23.232  0.00  0.00    +0.000 HD
ENDBRANCH  26  29
ENDBRANCH  11  26
TORSDOF 5
ENDMDL
MODEL 6
REMARK VINA RESULT:      -7.2      2.289      3.346
REMARK  Name = 
REMARK  7 active torsions:
REMARK  status: ('A' for Active; 'I' for Inactive)
REMARK    1  A    between atoms: C_1  and  N_2
REMARK    2  A    between atoms: N_2  and  S_3
REMARK    3  A    between atoms: S_3  and  C_6
REMARK    4  A    between atoms: C_8  and  C_9
REMARK    5  A    between atoms: C_19  and  S_20
REMARK    6  A    between atoms: S_20  and  N_23
REMARK    7  A    between atoms: N_23  and  C_24
REMARK                            x       y       z     vdW  Elec       q    Type
REMARK                         _______ _______ _______ _____ _____    ______ ____
ROOT
ATOM      1  C   UNL     1       2.193   8.465  18.020  0.00  0.00    +0.000 C 
ATOM      2  O   UNL     1       2.120   8.838  16.852  0.00  0.00    +0.000 OA
ATOM      3  N   UNL     1       1.787   9.252  19.108  0.00  0.00    +0.000 N 
ATOM      4  C   UNL     1       1.224  10.583  18.848  0.00  0.00    +0.000 C 
ATOM      5  C   UNL     1       1.237  11.497  20.090  0.00  0.00    +0.000 C 
ATOM      6  C   UNL     1       0.485  10.837  21.227  0.00  0.00    +0.000 A 
ATOM      7  C   UNL     1       0.675   9.443  21.351  0.00  0.00    +0.000 A 
ATOM      8  C   UNL     1       0.041   8.710  22.363  0.00  0.00    +0.000 A 
ATOM      9  C   UNL     1      -0.794   9.347  23.267  0.00  0.00    +0.000 A 
ATOM     10  C   UNL     1      -0.981  10.723  23.173  0.00  0.00    +0.000 A 
ATOM     11  C   UNL     1      -0.347  11.477  22.167  0.00  0.00    +0.000 A 
ATOM     12  C   UNL     1       1.643   8.719  20.456  0.00  0.00    +0.000 C 
ENDROOT
BRANCH   1  15
ATOM     13  C   UNL     1       4.490   5.459  18.093  0.00  0.00    +0.000 A 
ATOM     14  C   UNL     1       4.044   6.780  17.959  0.00  0.00    +0.000 A 
ATOM     15  C   UNL     1       2.711   7.082  18.274  0.00  0.00    +0.000 A 
ATOM     16  C   UNL     1       1.883   6.079  18.804  0.00  0.00    +0.000 A 
ATOM     17  C   UNL     1       2.323   4.757  18.871  0.00  0.00    +0.000 A 
ATOM     18  C   UNL     1       3.626   4.452  18.509  0.00  0.00    +0.000 A 
ATOM     19  F   UNL     1       4.040   3.183  18.624  0.00  0.00    +0.000 F 
BRANCH  13  20
ATOM     20  S   UNL     1       6.163   5.015  17.775  0.00  0.00    +0.000 S 
ATOM     21  O   UNL     1       6.692   4.390  18.968  0.00  0.00    +0.000 OA
ATOM     22  O   UNL     1       6.812   6.155  17.165  0.00  0.00    +0.000 OA
BRANCH  20  24
ATOM     23  C   UNL     1       5.642   4.227  15.240  0.00  0.00    +0.000 C 
ATOM     24  N   UNL     1       5.999   3.815  16.596  0.00  0.00    +0.000 NA
ATOM     25  H   UNL     1       6.725   3.100  16.686  0.00  0.00    +0.000 HD
ENDBRANCH  20  24
ENDBRANCH  13  20
ENDBRANCH   1  15
BRANCH  11  26
ATOM     26  S   UNL     1      -0.762  13.208  22.108  0.00  0.00    +0.000 S 
ATOM     27  O   UNL     1       0.448  13.959  22.357  0.00  0.00    +0.000 OA
ATOM     28  O   UNL     1      -1.575  13.465  20.941  0.00  0.00    +0.000 OA
BRANCH  26  29
ATOM     29  N   UNL     1      -1.748  13.440  23.462  0.00  0.00    +0.000 NA
ATOM     30  C   UNL     1      -1.592  14.690  24.204  0.00  0.00    +0.000 C 
ATOM     31  H   UNL     1      -1.787  12.584  24.018  0.00  0.00    +0.000 HD
ENDBRANCH  26  29
ENDBRANCH  11  26
TORSDOF 5
ENDMDL
MODEL 7
REMARK VINA RESULT:      -7.2      0.964      1.079
REMARK  Name = 
REMARK  7 active torsions:
REMARK  status: ('A' for Active; 'I' for Inactive)
REMARK    1  A    between atoms: C_1  and  N_2
REMARK    2  A    between atoms: N_2  and  S_3
REMARK    3  A    between atoms: S_3  and  C_6
REMARK    4  A    between atoms: C_8  and  C_9
REMARK    5  A    between atoms: C_19  and  S_20
REMARK    6  A    between atoms: S_20  and  N_23
REMARK    7  A    between atoms: N_23  and  C_24
REMARK                            x       y       z     vdW  Elec       q    Type
REMARK                         _______ _______ _______ _____ _____    ______ ____
ROOT
ATOM      1  C   UNL     1       2.515   6.011  19.966  0.00  0.00    +0.000 C 
ATOM      2  O   UNL     1       2.578   5.434  21.049  0.00  0.00    +0.000 OA
ATOM      3  N   UNL     1       1.900   7.259  19.792  0.00  0.00    +0.000 N 
ATOM      4  C   UNL     1       1.316   7.931  20.960  0.00  0.00    +0.000 C 
ATOM      5  C   UNL     1       0.310   9.036  20.580  0.00  0.00    +0.000 C 
ATOM      6  C   UNL     1       0.976  10.058  19.684  0.00  0.00    +0.000 A 
ATOM      7  C   UNL     1       1.871   9.533  18.726  0.00  0.00    +0.000 A 
ATOM      8  C   UNL     1       2.552  10.369  17.831  0.00  0.00    +0.000 A 
ATOM      9  C   UNL     1       2.359  11.740  17.873  0.00  0.00    +0.000 A 
ATOM     10  C   UNL     1       1.468  12.278  18.798  0.00  0.00    +0.000 A 
ATOM     11  C   UNL     1       0.771  11.452  19.701  0.00  0.00    +0.000 A 
ATOM     12  C   UNL     1       2.046   8.047  18.575  0.00  0.00    +0.000 C 
ENDROOT
BRANCH   1  15
ATOM     13  C   UNL     1       4.920   5.311  17.130  0.00  0.00    +0.000 A 
ATOM     14  C   UNL     1       4.375   5.863  18.296  0.00  0.00    +0.000 A 
ATOM     15  C   UNL     1       3.167   5.349  18.790  0.00  0.00    +0.000 A 
ATOM     16  C   UNL     1       2.581   4.238  18.162  0.00  0.00    +0.000 A 
ATOM     17  C   UNL     1       3.102   3.741  16.968  0.00  0.00    +0.000 A 
ATOM     18  C   UNL     1       4.269   4.286  16.453  0.00  0.00    +0.000 A 
ATOM     19  F   UNL     1       4.775   3.763  15.328  0.00  0.00    +0.000 F 
BRANCH  13  20
ATOM     20  S   UNL     1       6.461   5.861  16.484  0.00  0.00    +0.000 S 
ATOM     21  O   UNL     1       6.317   6.013  15.052  0.00  0.00    +0.000 OA
ATOM     22  O   UNL     1       7.499   5.030  17.056  0.00  0.00    +0.000 OA
BRANCH  20  24
ATOM     23  C   UNL     1       7.845   7.749  17.840  0.00  0.00    +0.000 C 
ATOM     24  N   UNL     1       6.602   7.407  17.154  0.00  0.00    +0.000 NA
ATOM     25  H   UNL     1       6.202   8.119  16.539  0.00  0.00    +0.000 HD
ENDBRANCH  20  24
ENDBRANCH  13  20
ENDBRANCH   1  15
BRANCH  11  26
ATOM     26  S   UNL     1      -0.255  12.289  20.893  0.00  0.00    +0.000 S 
ATOM     27  O   UNL     1       0.038  11.730  22.194  0.00  0.00    +0.000 OA
ATOM     28  O   UNL     1      -0.191  13.714  20.661  0.00  0.00    +0.000 OA
BRANCH  26  29
ATOM     29  N   UNL     1      -1.823  11.791  20.507  0.00  0.00    +0.000 NA
ATOM     30  C   UNL     1      -2.235  11.881  19.107  0.00  0.00    +0.000 C 
ATOM     31  H   UNL     1      -2.485  12.149  21.198  0.00  0.00    +0.000 HD
ENDBRANCH  26  29
ENDBRANCH  11  26
TORSDOF 5
ENDMDL
MODEL 8
REMARK VINA RESULT:      -7.1      2.973      4.415
REMARK  Name = 
REMARK  7 active torsions:
REMARK  status: ('A' for Active; 'I' for Inactive)
REMARK    1  A    between atoms: C_1  and  N_2
REMARK    2  A    between atoms: N_2  and  S_3
REMARK    3  A    between atoms: S_3  and  C_6
REMARK    4  A    between atoms: C_8  and  C_9
REMARK    5  A    between atoms: C_19  and  S_20
REMARK    6  A    between atoms: S_20  and  N_23
REMARK    7  A    between atoms: N_23  and  C_24
REMARK                            x       y       z     vdW  Elec       q    Type
REMARK                         _______ _______ _______ _____ _____    ______ ____
ROOT
ATOM      1  C   UNL     1       2.383   8.042  18.064  0.00  0.00    +0.000 C 
ATOM      2  O   UNL     1       2.325   8.321  16.869  0.00  0.00    +0.000 OA
ATOM      3  N   UNL     1       1.940   8.902  19.079  0.00  0.00    +0.000 N 
ATOM      4  C   UNL     1       1.355  10.196  18.707  0.00  0.00    +0.000 C 
ATOM      5  C   UNL     1       1.326  11.203  19.874  0.00  0.00    +0.000 C 
ATOM      6  C   UNL     1       0.565  10.618  21.045  0.00  0.00    +0.000 A 
ATOM      7  C   UNL     1       0.780   9.242  21.280  0.00  0.00    +0.000 A 
ATOM      8  C   UNL     1       0.141   8.576  22.335  0.00  0.00    +0.000 A 
ATOM      9  C   UNL     1      -0.724   9.263  23.171  0.00  0.00    +0.000 A 
ATOM     10  C   UNL     1      -0.936  10.624  22.967  0.00  0.00    +0.000 A 
ATOM     11  C   UNL     1      -0.298  11.310  21.917  0.00  0.00    +0.000 A 
ATOM     12  C   UNL     1       1.779   8.472  20.462  0.00  0.00    +0.000 C 
ENDROOT
BRANCH   1  15
ATOM     13  C   UNL     1       2.537   4.370  18.966  0.00  0.00    +0.000 A 
ATOM     14  C   UNL     1       2.048   5.601  18.510  0.00  0.00    +0.000 A 
ATOM     15  C   UNL     1       2.923   6.694  18.434  0.00  0.00    +0.000 A 
ATOM     16  C   UNL     1       4.285   6.510  18.725  0.00  0.00    +0.000 A 
ATOM     17  C   UNL     1       4.744   5.296  19.237  0.00  0.00    +0.000 A 
ATOM     18  C   UNL     1       3.864   4.231  19.361  0.00  0.00    +0.000 A 
ATOM     19  F   UNL     1       4.336   3.062  19.813  0.00  0.00    +0.000 F 
BRANCH  13  20
ATOM     20  S   UNL     1       1.515   2.940  19.030  0.00  0.00    +0.000 S 
ATOM     21  O   UNL     1       2.377   1.777  19.041  0.00  0.00    +0.000 OA
ATOM     22  O   UNL     1       0.472   3.100  18.042  0.00  0.00    +0.000 OA
BRANCH  20  24
ATOM     23  C   UNL     1       1.570   2.591  21.713  0.00  0.00    +0.000 C 
ATOM     24  N   UNL     1       0.809   3.070  20.561  0.00  0.00    +0.000 NA
ATOM     25  H   UNL     1       0.314   3.958  20.671  0.00  0.00    +0.000 HD
ENDBRANCH  20  24
ENDBRANCH  13  20
ENDBRANCH   1  15
BRANCH  11  26
ATOM     26  S   UNL     1      -0.746  13.023  21.716  0.00  0.00    +0.000 S 
ATOM     27  O   UNL     1       0.404  13.822  22.073  0.00  0.00    +0.000 OA
ATOM     28  O   UNL     1      -1.413  13.196  20.446  0.00  0.00    +0.000 OA
BRANCH  26  29
ATOM     29  N   UNL     1      -1.899  13.289  22.924  0.00  0.00    +0.000 NA
ATOM     30  C   UNL     1      -3.286  13.479  22.502  0.00  0.00    +0.000 C 
ATOM     31  H   UNL     1      -1.539  13.953  23.612  0.00  0.00    +0.000 HD
ENDBRANCH  26  29
ENDBRANCH  11  26
TORSDOF 5
ENDMDL
MODEL 9
REMARK VINA RESULT:      -7.0      2.322      3.281
REMARK  Name = 
REMARK  7 active torsions:
REMARK  status: ('A' for Active; 'I' for Inactive)
REMARK    1  A    between atoms: C_1  and  N_2
REMARK    2  A    between atoms: N_2  and  S_3
REMARK    3  A    between atoms: S_3  and  C_6
REMARK    4  A    between atoms: C_8  and  C_9
REMARK    5  A    between atoms: C_19  and  S_20
REMARK    6  A    between atoms: S_20  and  N_23
REMARK    7  A    between atoms: N_23  and  C_24
REMARK                            x       y       z     vdW  Elec       q    Type
REMARK                         _______ _______ _______ _____ _____    ______ ____
ROOT
ATOM      1  C   UNL     1       2.105   8.501  18.256  0.00  0.00    +0.000 C 
ATOM      2  O   UNL     1       2.031   8.723  17.050  0.00  0.00    +0.000 OA
ATOM      3  N   UNL     1       1.671   9.408  19.234  0.00  0.00    +0.000 N 
ATOM      4  C   UNL     1       1.076  10.680  18.808  0.00  0.00    +0.000 C 
ATOM      5  C   UNL     1       1.057  11.742  19.926  0.00  0.00    +0.000 C 
ATOM      6  C   UNL     1       0.314  11.210  21.133  0.00  0.00    +0.000 A 
ATOM      7  C   UNL     1       0.539   9.848  21.432  0.00  0.00    +0.000 A 
ATOM      8  C   UNL     1      -0.084   9.231  22.525  0.00  0.00    +0.000 A 
ATOM      9  C   UNL     1      -0.941   9.953  23.339  0.00  0.00    +0.000 A 
ATOM     10  C   UNL     1      -1.163  11.302  23.073  0.00  0.00    +0.000 A 
ATOM     11  C   UNL     1      -0.541  11.940  21.982  0.00  0.00    +0.000 A 
ATOM     12  C   UNL     1       1.531   9.044  20.638  0.00  0.00    +0.000 C 
ENDROOT
BRANCH   1  15
ATOM     13  C   UNL     1       4.228   5.371  18.356  0.00  0.00    +0.000 A 
ATOM     14  C   UNL     1       3.786   6.659  18.030  0.00  0.00    +0.000 A 
ATOM     15  C   UNL     1       2.657   7.176  18.683  0.00  0.00    +0.000 A 
ATOM     16  C   UNL     1       2.054   6.432  19.711  0.00  0.00    +0.000 A 
ATOM     17  C   UNL     1       2.468   5.127  19.981  0.00  0.00    +0.000 A 
ATOM     18  C   UNL     1       3.552   4.600  19.295  0.00  0.00    +0.000 A 
ATOM     19  F   UNL     1       3.958   3.361  19.602  0.00  0.00    +0.000 F 
BRANCH  13  20
ATOM     20  S   UNL     1       5.671   4.680  17.624  0.00  0.00    +0.000 S 
ATOM     21  O   UNL     1       5.249   3.719  16.627  0.00  0.00    +0.000 OA
ATOM     22  O   UNL     1       6.574   4.314  18.693  0.00  0.00    +0.000 OA
BRANCH  20  24
ATOM     23  C   UNL     1       7.384   6.769  17.482  0.00  0.00    +0.000 C 
ATOM     24  N   UNL     1       6.333   6.006  16.812  0.00  0.00    +0.000 NA
ATOM     25  H   UNL     1       6.469   5.807  15.818  0.00  0.00    +0.000 HD
ENDBRANCH  20  24
ENDBRANCH  13  20
ENDBRANCH   1  15
BRANCH  11  26
ATOM     26  S   UNL     1      -1.001  13.639  21.706  0.00  0.00    +0.000 S 
ATOM     27  O   UNL     1       0.185  14.448  21.877  0.00  0.00    +0.000 OA
ATOM     28  O   UNL     1      -1.799  13.728  20.505  0.00  0.00    +0.000 OA
BRANCH  26  29
ATOM     29  N   UNL     1      -2.015  14.007  23.006  0.00  0.00    +0.000 NA
ATOM     30  C   UNL     1      -1.474  14.857  24.066  0.00  0.00    +0.000 C 
ATOM     31  H   UNL     1      -2.516  13.170  23.308  0.00  0.00    +0.000 HD
ENDBRANCH  26  29
ENDBRANCH  11  26
TORSDOF 5
ENDMDL
