MODEL 1
REMARK VINA RESULT:      -8.3      0.000      0.000
REMARK  Name = 
REMARK  6 active torsions:
REMARK  status: ('A' for Active; 'I' for Inactive)
REMARK    1  A    between atoms: C_1  and  C_2
REMARK    2  A    between atoms: C_5  and  C_6
REMARK    3  A    between atoms: C_8  and  C_9
REMARK    4  A    between atoms: C_10  and  C_11
REMARK    5  A    between atoms: C_15  and  N_16
REMARK    6  A    between atoms: C_17  and  C_18
REMARK                            x       y       z     vdW  Elec       q    Type
REMARK                         _______ _______ _______ _____ _____    ______ ____
ROOT
ATOM      1  C   UNL     1       2.178   8.495  18.004  0.00  0.00    +0.000 C 
ATOM      2  O   UNL     1       1.910   9.180  17.011  0.00  0.00    +0.000 OA
ATOM      3  N   UNL     1       1.607   8.811  19.231  0.00  0.00    +0.000 N 
ATOM      4  C   UNL     1       1.770   8.096  20.480  0.00  0.00    +0.000 C 
ATOM      5  C   UNL     1       1.111   8.955  21.570  0.00  0.00    +0.000 C 
ATOM      6  C   UNL     1       0.747  10.297  20.870  0.00  0.00    +0.000 C 
ATOM      7  C   UNL     1       0.661   9.897  19.387  0.00  0.00    +0.000 C 
ENDROOT
BRANCH   1  17
ATOM      8  C   UNL     1       7.445   7.537  17.515  0.00  0.00    +0.000 C 
ATOM      9  C   UNL     1       6.525   6.360  17.599  0.00  0.00    +0.000 A 
ATOM     10  C   UNL     1       7.004   5.049  17.491  0.00  0.00    +0.000 A 
ATOM     11  C   UNL     1       6.145   3.949  17.556  0.00  0.00    +0.000 A 
ATOM     12  C   UNL     1       4.753   4.097  17.729  0.00  0.00    +0.000 A 
ATOM     13  C   UNL     1       3.893   2.865  17.779  0.00  0.00    +0.000 C 
ATOM     14  C   UNL     1       4.241   5.415  17.817  0.00  0.00    +0.000 A 
ATOM     15  C   UNL     1       2.938   6.014  17.934  0.00  0.00    +0.000 A 
ATOM     16  C   UNL     1       1.623   5.322  17.992  0.00  0.00    +0.000 C 
ATOM     17  C   UNL     1       3.135   7.393  17.942  0.00  0.00    +0.000 A 
ATOM     18  O   UNL     1       4.476   7.653  17.876  0.00  0.00    +0.000 OA
ATOM     19  C   UNL     1       5.138   6.476  17.763  0.00  0.00    +0.000 A 
ENDBRANCH   1  17
BRANCH   6  20
ATOM     20  C   UNL     1      -0.478  10.962  21.483  0.00  0.00    +0.000 A 
ATOM     21  C   UNL     1      -1.257  11.821  20.685  0.00  0.00    +0.000 A 
ATOM     22  C   UNL     1      -2.350  12.510  21.212  0.00  0.00    +0.000 A 
ATOM     23  C   UNL     1      -2.696  12.345  22.548  0.00  0.00    +0.000 A 
ATOM     24  C   UNL     1      -1.962  11.472  23.347  0.00  0.00    +0.000 A 
ATOM     25  C   UNL     1      -0.869  10.779  22.817  0.00  0.00    +0.000 A 
ENDBRANCH   6  20
BRANCH   5  26
ATOM     26  N   UNL     1       2.007   9.124  22.729  0.00  0.00    +0.000 NA
ATOM     27  H   UNL     1       1.840  10.038  23.153  0.00  0.00    +0.000 HD
ATOM     28  H   UNL     1       2.974   9.145  22.405  0.00  0.00    +0.000 HD
ENDBRANCH   5  26
TORSDOF 3
ENDMDL
MODEL 2
REMARK VINA RESULT:      -7.9      1.382      2.740
REMARK  Name = 
REMARK  6 active torsions:
REMARK  status: ('A' for Active; 'I' for Inactive)
REMARK    1  A    between atoms: C_1  and  C_2
REMARK    2  A    between atoms: C_5  and  C_6
REMARK    3  A    between atoms: C_8  and  C_9
REMARK    4  A    between atoms: C_10  and  C_11
REMARK    5  A    between atoms: C_15  and  N_16
REMARK    6  A    between atoms: C_17  and  C_18
REMARK                            x       y       z     vdW  Elec       q    Type
REMARK                         _______ _______ _______ _____ _____    ______ ____
ROOT
ATOM      1  C   UNL     1       1.897   8.349  18.364  0.00  0.00    +0.000 C 
ATOM      2  O   UNL     1       1.862   9.047  17.345  0.00  0.00    +0.000 OA
ATOM      3  N   UNL     1       1.435   8.865  19.569  0.00  0.00    +0.000 N 
ATOM      4  C   UNL     1       1.358   8.178  20.841  0.00  0.00    +0.000 C 
ATOM      5  C   UNL     1       0.978   9.234  21.891  0.00  0.00    +0.000 C 
ATOM      6  C   UNL     1       1.047  10.598  21.143  0.00  0.00    +0.000 C 
ATOM      7  C   UNL     1       0.861  10.191  19.671  0.00  0.00    +0.000 C 
ENDROOT
BRANCH   1  17
ATOM      8  C   UNL     1       1.075   3.417  20.338  0.00  0.00    +0.000 C 
ATOM      9  C   UNL     1       2.291   3.639  19.495  0.00  0.00    +0.000 A 
ATOM     10  C   UNL     1       3.224   2.618  19.275  0.00  0.00    +0.000 A 
ATOM     11  C   UNL     1       4.366   2.827  18.500  0.00  0.00    +0.000 A 
ATOM     12  C   UNL     1       4.647   4.073  17.902  0.00  0.00    +0.000 A 
ATOM     13  C   UNL     1       5.903   4.222  17.090  0.00  0.00    +0.000 C 
ATOM     14  C   UNL     1       3.730   5.129  18.130  0.00  0.00    +0.000 A 
ATOM     15  C   UNL     1       3.646   6.522  17.779  0.00  0.00    +0.000 A 
ATOM     16  C   UNL     1       4.627   7.320  16.995  0.00  0.00    +0.000 C 
ATOM     17  C   UNL     1       2.475   7.006  18.355  0.00  0.00    +0.000 A 
ATOM     18  O   UNL     1       1.834   5.982  18.994  0.00  0.00    +0.000 OA
ATOM     19  C   UNL     1       2.599   4.866  18.895  0.00  0.00    +0.000 A 
ENDBRANCH   1  17
BRANCH   6  20
ATOM     20  C   UNL     1       0.075  11.624  21.710  0.00  0.00    +0.000 A 
ATOM     21  C   UNL     1      -1.017  11.175  22.475  0.00  0.00    +0.000 A 
ATOM     22  C   UNL     1      -1.978  12.063  22.961  0.00  0.00    +0.000 A 
ATOM     23  C   UNL     1      -1.859  13.423  22.703  0.00  0.00    +0.000 A 
ATOM     24  C   UNL     1      -0.767  13.895  21.979  0.00  0.00    +0.000 A 
ATOM     25  C   UNL     1       0.198  13.004  21.495  0.00  0.00    +0.000 A 
ENDBRANCH   6  20
BRANCH   5  26
ATOM     26  N   UNL     1       1.870   9.163  23.063  0.00  0.00    +0.000 NA
ATOM     27  H   UNL     1       2.707   9.720  22.884  0.00  0.00    +0.000 HD
ATOM     28  H   UNL     1       2.197   8.204  23.178  0.00  0.00    +0.000 HD
ENDBRANCH   5  26
TORSDOF 3
ENDMDL
MODEL 3
REMARK VINA RESULT:      -7.8      1.800      2.492
REMARK  Name = 
REMARK  6 active torsions:
REMARK  status: ('A' for Active; 'I' for Inactive)
REMARK    1  A    between atoms: C_1  and  C_2
REMARK    2  A    between atoms: C_5  and  C_6
REMARK    3  A    between atoms: C_8  and  C_9
REMARK    4  A    between atoms: C_10  and  C_11
REMARK    5  A    between atoms: C_15  and  N_16
REMARK    6  A    between atoms: C_17  and  C_18
REMARK                            x       y       z     vdW  Elec       q    Type
REMARK                         _______ _______ _______ _____ _____    ______ ____
ROOT
ATOM      1  C   UNL     1       2.582   5.924  20.250  0.00  0.00    +0.000 C 
ATOM      2  O   UNL     1       2.178   5.197  21.164  0.00  0.00    +0.000 OA
ATOM      3  N   UNL     1       2.049   7.199  20.098  0.00  0.00    +0.000 N 
ATOM      4  C   UNL     1       2.433   8.195  19.120  0.00  0.00    +0.000 C 
ATOM      5  C   UNL     1       1.414   9.341  19.233  0.00  0.00    +0.000 C 
ATOM      6  C   UNL     1       0.316   8.818  20.205  0.00  0.00    +0.000 C 
ATOM      7  C   UNL     1       1.058   7.736  21.008  0.00  0.00    +0.000 C 
ENDROOT
BRANCH   1  17
ATOM      8  C   UNL     1       7.884   5.812  19.370  0.00  0.00    +0.000 C 
ATOM      9  C   UNL     1       6.989   5.222  18.326  0.00  0.00    +0.000 A 
ATOM     10  C   UNL     1       7.502   4.713  17.127  0.00  0.00    +0.000 A 
ATOM     11  C   UNL     1       6.668   4.174  16.146  0.00  0.00    +0.000 A 
ATOM     12  C   UNL     1       5.267   4.117  16.303  0.00  0.00    +0.000 A 
ATOM     13  C   UNL     1       4.435   3.531  15.197  0.00  0.00    +0.000 C 
ATOM     14  C   UNL     1       4.722   4.648  17.499  0.00  0.00    +0.000 A 
ATOM     15  C   UNL     1       3.401   4.844  18.037  0.00  0.00    +0.000 A 
ATOM     16  C   UNL     1       2.102   4.505  17.398  0.00  0.00    +0.000 C 
ATOM     17  C   UNL     1       3.566   5.459  19.276  0.00  0.00    +0.000 A 
ATOM     18  O   UNL     1       4.902   5.607  19.528  0.00  0.00    +0.000 OA
ATOM     19  C   UNL     1       5.595   5.159  18.452  0.00  0.00    +0.000 A 
ENDBRANCH   1  17
BRANCH   6  20
ATOM     20  C   UNL     1      -0.345   9.939  20.995  0.00  0.00    +0.000 A 
ATOM     21  C   UNL     1      -0.462   9.810  22.391  0.00  0.00    +0.000 A 
ATOM     22  C   UNL     1      -1.120  10.773  23.158  0.00  0.00    +0.000 A 
ATOM     23  C   UNL     1      -1.665  11.895  22.543  0.00  0.00    +0.000 A 
ATOM     24  C   UNL     1      -1.530  12.062  21.168  0.00  0.00    +0.000 A 
ATOM     25  C   UNL     1      -0.867  11.098  20.401  0.00  0.00    +0.000 A 
ENDBRANCH   6  20
BRANCH   5  26
ATOM     26  N   UNL     1       0.891   9.720  17.908  0.00  0.00    +0.000 NA
ATOM     27  H   UNL     1       1.667  10.013  17.311  0.00  0.00    +0.000 HD
ATOM     28  H   UNL     1       0.294  10.540  18.006  0.00  0.00    +0.000 HD
ENDBRANCH   5  26
TORSDOF 3
ENDMDL
MODEL 4
REMARK VINA RESULT:      -7.7      1.885      2.794
REMARK  Name = 
REMARK  6 active torsions:
REMARK  status: ('A' for Active; 'I' for Inactive)
REMARK    1  A    between atoms: C_1  and  C_2
REMARK    2  A    between atoms: C_5  and  C_6
REMARK    3  A    between atoms: C_8  and  C_9
REMARK    4  A    between atoms: C_10  and  C_11
REMARK    5  A    between atoms: C_15  and  N_16
REMARK    6  A    between atoms: C_17  and  C_18
REMARK                            x       y       z     vdW  Elec       q    Type
REMARK                         _______ _______ _______ _____ _____    ______ ____
ROOT
ATOM      1  C   UNL     1       1.806   7.802  20.463  0.00  0.00    +0.000 C 
ATOM      2  O   UNL     1       1.858   7.773  21.697  0.00  0.00    +0.000 OA
ATOM      3  N   UNL     1       1.169   8.861  19.826  0.00  0.00    +0.000 N 
ATOM      4  C   UNL     1       1.054   9.080  18.399  0.00  0.00    +0.000 C 
ATOM      5  C   UNL     1       0.091  10.262  18.210  0.00  0.00    +0.000 C 
ATOM      6  C   UNL     1      -0.481  10.556  19.628  0.00  0.00    +0.000 C 
ATOM      7  C   UNL     1       0.595   9.971  20.559  0.00  0.00    +0.000 C 
ENDROOT
BRANCH   1  17
ATOM      8  C   UNL     1       5.270   6.887  16.456  0.00  0.00    +0.000 C 
ATOM      9  C   UNL     1       4.503   5.722  16.997  0.00  0.00    +0.000 A 
ATOM     10  C   UNL     1       4.630   4.442  16.442  0.00  0.00    +0.000 A 
ATOM     11  C   UNL     1       3.905   3.356  16.937  0.00  0.00    +0.000 A 
ATOM     12  C   UNL     1       3.005   3.486  18.016  0.00  0.00    +0.000 A 
ATOM     13  C   UNL     1       2.254   2.272  18.485  0.00  0.00    +0.000 C 
ATOM     14  C   UNL     1       2.842   4.777  18.579  0.00  0.00    +0.000 A 
ATOM     15  C   UNL     1       2.026   5.360  19.611  0.00  0.00    +0.000 A 
ATOM     16  C   UNL     1       1.007   4.681  20.454  0.00  0.00    +0.000 C 
ATOM     17  C   UNL     1       2.342   6.716  19.645  0.00  0.00    +0.000 A 
ATOM     18  O   UNL     1       3.323   6.971  18.728  0.00  0.00    +0.000 OA
ATOM     19  C   UNL     1       3.598   5.822  18.061  0.00  0.00    +0.000 A 
ENDBRANCH   1  17
BRANCH   6  20
ATOM     20  C   UNL     1      -0.844  12.022  19.819  0.00  0.00    +0.000 A 
ATOM     21  C   UNL     1      -0.154  12.996  19.075  0.00  0.00    +0.000 A 
ATOM     22  C   UNL     1      -0.396  14.358  19.258  0.00  0.00    +0.000 A 
ATOM     23  C   UNL     1      -1.345  14.775  20.183  0.00  0.00    +0.000 A 
ATOM     24  C   UNL     1      -2.067  13.828  20.906  0.00  0.00    +0.000 A 
ATOM     25  C   UNL     1      -1.826  12.463  20.719  0.00  0.00    +0.000 A 
ENDBRANCH   6  20
BRANCH   5  26
ATOM     26  N   UNL     1      -0.949   9.947  17.213  0.00  0.00    +0.000 NA
ATOM     27  H   UNL     1      -0.598   9.229  16.576  0.00  0.00    +0.000 HD
ATOM     28  H   UNL     1      -1.118  10.769  16.634  0.00  0.00    +0.000 HD
ENDBRANCH   5  26
TORSDOF 3
ENDMDL
MODEL 5
REMARK VINA RESULT:      -7.5      7.598      8.924
REMARK  Name = 
REMARK  6 active torsions:
REMARK  status: ('A' for Active; 'I' for Inactive)
REMARK    1  A    between atoms: C_1  and  C_2
REMARK    2  A    between atoms: C_5  and  C_6
REMARK    3  A    between atoms: C_8  and  C_9
REMARK    4  A    between atoms: C_10  and  C_11
REMARK    5  A    between atoms: C_15  and  N_16
REMARK    6  A    between atoms: C_17  and  C_18
REMARK                            x       y       z     vdW  Elec       q    Type
REMARK                         _______ _______ _______ _____ _____    ______ ____
ROOT
ATOM      1  C   UNL     1       7.079  16.090  19.442  0.00  0.00    +0.000 C 
ATOM      2  O   UNL     1       7.242  17.076  20.169  0.00  0.00    +0.000 OA
ATOM      3  N   UNL     1       5.853  15.890  18.818  0.00  0.00    +0.000 N 
ATOM      4  C   UNL     1       5.502  14.824  17.903  0.00  0.00    +0.000 C 
ATOM      5  C   UNL     1       3.988  14.929  17.662  0.00  0.00    +0.000 C 
ATOM      6  C   UNL     1       3.487  16.006  18.669  0.00  0.00    +0.000 C 
ATOM      7  C   UNL     1       4.757  16.828  18.951  0.00  0.00    +0.000 C 
ENDROOT
BRANCH   1  17
ATOM      8  C   UNL     1       8.914  11.523  21.605  0.00  0.00    +0.000 C 
ATOM      9  C   UNL     1       9.648  12.085  20.428  0.00  0.00    +0.000 A 
ATOM     10  C   UNL     1      10.814  11.481  19.940  0.00  0.00    +0.000 A 
ATOM     11  C   UNL     1      11.508  12.011  18.850  0.00  0.00    +0.000 A 
ATOM     12  C   UNL     1      11.081  13.180  18.186  0.00  0.00    +0.000 A 
ATOM     13  C   UNL     1      11.888  13.694  17.027  0.00  0.00    +0.000 C 
ATOM     14  C   UNL     1       9.917  13.822  18.678  0.00  0.00    +0.000 A 
ATOM     15  C   UNL     1       9.181  15.018  18.360  0.00  0.00    +0.000 A 
ATOM     16  C   UNL     1       9.493  16.022  17.308  0.00  0.00    +0.000 C 
ATOM     17  C   UNL     1       8.125  15.084  19.265  0.00  0.00    +0.000 A 
ATOM     18  O   UNL     1       8.160  13.985  20.077  0.00  0.00    +0.000 OA
ATOM     19  C   UNL     1       9.252  13.247  19.755  0.00  0.00    +0.000 A 
ENDBRANCH   1  17
BRANCH   6  20
ATOM     20  C   UNL     1       2.270  16.762  18.156  0.00  0.00    +0.000 A 
ATOM     21  C   UNL     1       1.038  16.594  18.815  0.00  0.00    +0.000 A 
ATOM     22  C   UNL     1      -0.126  17.208  18.349  0.00  0.00    +0.000 A 
ATOM     23  C   UNL     1      -0.080  18.014  17.218  0.00  0.00    +0.000 A 
ATOM     24  C   UNL     1       1.135  18.225  16.571  0.00  0.00    +0.000 A 
ATOM     25  C   UNL     1       2.302  17.612  17.041  0.00  0.00    +0.000 A 
ENDBRANCH   6  20
BRANCH   5  26
ATOM     26  N   UNL     1       3.331  13.620  17.830  0.00  0.00    +0.000 NA
ATOM     27  H   UNL     1       4.006  12.950  18.203  0.00  0.00    +0.000 HD
ATOM     28  H   UNL     1       3.064  13.260  16.914  0.00  0.00    +0.000 HD
ENDBRANCH   5  26
TORSDOF 3
ENDMDL
MODEL 6
REMARK VINA RESULT:      -7.5      7.722      8.912
REMARK  Name = 
REMARK  6 active torsions:
REMARK  status: ('A' for Active; 'I' for Inactive)
REMARK    1  A    between atoms: C_1  and  C_2
REMARK    2  A    between atoms: C_5  and  C_6
REMARK    3  A    between atoms: C_8  and  C_9
REMARK    4  A    between atoms: C_10  and  C_11
REMARK    5  A    between atoms: C_15  and  N_16
REMARK    6  A    between atoms: C_17  and  C_18
REMARK                            x       y       z     vdW  Elec       q    Type
REMARK                         _______ _______ _______ _____ _____    ______ ____
ROOT
ATOM      1  C   UNL     1       6.642  16.175  19.808  0.00  0.00    +0.000 C 
ATOM      2  O   UNL     1       6.711  17.153  20.559  0.00  0.00    +0.000 OA
ATOM      3  N   UNL     1       5.483  15.952  19.072  0.00  0.00    +0.000 N 
ATOM      4  C   UNL     1       5.247  14.891  18.116  0.00  0.00    +0.000 C 
ATOM      5  C   UNL     1       3.759  14.960  17.738  0.00  0.00    +0.000 C 
ATOM      6  C   UNL     1       3.139  16.009  18.707  0.00  0.00    +0.000 C 
ATOM      7  C   UNL     1       4.355  16.859  19.115  0.00  0.00    +0.000 C 
ENDROOT
BRANCH   1  17
ATOM      8  C   UNL     1       8.587  11.822  22.292  0.00  0.00    +0.000 C 
ATOM      9  C   UNL     1       9.327  12.335  21.097  0.00  0.00    +0.000 A 
ATOM     10  C   UNL     1      10.524  11.746  20.671  0.00  0.00    +0.000 A 
ATOM     11  C   UNL     1      11.224  12.231  19.564  0.00  0.00    +0.000 A 
ATOM     12  C   UNL     1      10.770  13.340  18.820  0.00  0.00    +0.000 A 
ATOM     13  C   UNL     1      11.585  13.810  17.647  0.00  0.00    +0.000 C 
ATOM     14  C   UNL     1       9.573  13.968  19.246  0.00  0.00    +0.000 A 
ATOM     15  C   UNL     1       8.804  15.114  18.839  0.00  0.00    +0.000 A 
ATOM     16  C   UNL     1       9.103  16.062  17.732  0.00  0.00    +0.000 C 
ATOM     17  C   UNL     1       7.725  15.199  19.716  0.00  0.00    +0.000 A 
ATOM     18  O   UNL     1       7.782  14.154  20.596  0.00  0.00    +0.000 OA
ATOM     19  C   UNL     1       8.905  13.438  20.343  0.00  0.00    +0.000 A 
ENDBRANCH   1  17
BRANCH   6  20
ATOM     20  C   UNL     1       1.953  16.741  18.094  0.00  0.00    +0.000 A 
ATOM     21  C   UNL     1       2.172  17.581  16.986  0.00  0.00    +0.000 A 
ATOM     22  C   UNL     1       1.135  18.329  16.425  0.00  0.00    +0.000 A 
ATOM     23  C   UNL     1      -0.147  18.243  16.954  0.00  0.00    +0.000 A 
ATOM     24  C   UNL     1      -0.395  17.391  18.027  0.00  0.00    +0.000 A 
ATOM     25  C   UNL     1       0.644  16.638  18.586  0.00  0.00    +0.000 A 
ENDBRANCH   6  20
BRANCH   5  26
ATOM     26  N   UNL     1       3.125  13.632  17.829  0.00  0.00    +0.000 NA
ATOM     27  H   UNL     1       2.109  13.745  17.849  0.00  0.00    +0.000 HD
ATOM     28  H   UNL     1       3.371  13.204  18.721  0.00  0.00    +0.000 HD
ENDBRANCH   5  26
TORSDOF 3
ENDMDL
MODEL 7
REMARK VINA RESULT:      -7.3      3.041      8.243
REMARK  Name = 
REMARK  6 active torsions:
REMARK  status: ('A' for Active; 'I' for Inactive)
REMARK    1  A    between atoms: C_1  and  C_2
REMARK    2  A    between atoms: C_5  and  C_6
REMARK    3  A    between atoms: C_8  and  C_9
REMARK    4  A    between atoms: C_10  and  C_11
REMARK    5  A    between atoms: C_15  and  N_16
REMARK    6  A    between atoms: C_17  and  C_18
REMARK                            x       y       z     vdW  Elec       q    Type
REMARK                         _______ _______ _______ _____ _____    ______ ____
ROOT
ATOM      1  C   UNL     1       0.884  10.547  21.203  0.00  0.00    +0.000 C 
ATOM      2  O   UNL     1       0.826  10.317  22.415  0.00  0.00    +0.000 OA
ATOM      3  N   UNL     1       1.152   9.510  20.317  0.00  0.00    +0.000 N 
ATOM      4  C   UNL     1       1.211   9.588  18.873  0.00  0.00    +0.000 C 
ATOM      5  C   UNL     1       1.740   8.233  18.378  0.00  0.00    +0.000 C 
ATOM      6  C   UNL     1       2.165   7.465  19.664  0.00  0.00    +0.000 C 
ATOM      7  C   UNL     1       1.323   8.141  20.760  0.00  0.00    +0.000 C 
ENDROOT
BRANCH   1  17
ATOM      8  C   UNL     1       3.580  14.252  18.391  0.00  0.00    +0.000 C 
ATOM      9  C   UNL     1       2.211  14.606  18.883  0.00  0.00    +0.000 A 
ATOM     10  C   UNL     1       1.668  15.880  18.677  0.00  0.00    +0.000 A 
ATOM     11  C   UNL     1       0.397  16.216  19.147  0.00  0.00    +0.000 A 
ATOM     12  C   UNL     1      -0.406  15.298  19.856  0.00  0.00    +0.000 A 
ATOM     13  C   UNL     1      -1.760  15.739  20.338  0.00  0.00    +0.000 C 
ATOM     14  C   UNL     1       0.132  14.010  20.097  0.00  0.00    +0.000 A 
ATOM     15  C   UNL     1      -0.292  12.825  20.796  0.00  0.00    +0.000 A 
ATOM     16  C   UNL     1      -1.558  12.620  21.549  0.00  0.00    +0.000 C 
ATOM     17  C   UNL     1       0.742  11.900  20.670  0.00  0.00    +0.000 A 
ATOM     18  O   UNL     1       1.738  12.444  19.908  0.00  0.00    +0.000 OA
ATOM     19  C   UNL     1       1.395  13.718  19.595  0.00  0.00    +0.000 A 
ENDBRANCH   1  17
BRANCH   6  20
ATOM     20  C   UNL     1       2.029   5.956  19.514  0.00  0.00    +0.000 A 
ATOM     21  C   UNL     1       2.224   5.378  18.246  0.00  0.00    +0.000 A 
ATOM     22  C   UNL     1       2.045   4.010  18.035  0.00  0.00    +0.000 A 
ATOM     23  C   UNL     1       1.679   3.187  19.094  0.00  0.00    +0.000 A 
ATOM     24  C   UNL     1       1.516   3.730  20.365  0.00  0.00    +0.000 A 
ATOM     25  C   UNL     1       1.699   5.101  20.576  0.00  0.00    +0.000 A 
ENDBRANCH   6  20
BRANCH   5  26
ATOM     26  N   UNL     1       2.841   8.412  17.413  0.00  0.00    +0.000 NA
ATOM     27  H   UNL     1       2.454   8.475  16.470  0.00  0.00    +0.000 HD
ATOM     28  H   UNL     1       3.426   7.577  17.414  0.00  0.00    +0.000 HD
ENDBRANCH   5  26
TORSDOF 3
ENDMDL
MODEL 8
REMARK VINA RESULT:      -7.2      2.787      9.572
REMARK  Name = 
REMARK  6 active torsions:
REMARK  status: ('A' for Active; 'I' for Inactive)
REMARK    1  A    between atoms: C_1  and  C_2
REMARK    2  A    between atoms: C_5  and  C_6
REMARK    3  A    between atoms: C_8  and  C_9
REMARK    4  A    between atoms: C_10  and  C_11
REMARK    5  A    between atoms: C_15  and  N_16
REMARK    6  A    between atoms: C_17  and  C_18
REMARK                            x       y       z     vdW  Elec       q    Type
REMARK                         _______ _______ _______ _____ _____    ______ ____
ROOT
ATOM      1  C   UNL     1      -0.099  10.242  22.771  0.00  0.00    +0.000 C 
ATOM      2  O   UNL     1       0.323   9.748  23.822  0.00  0.00    +0.000 OA
ATOM      3  N   UNL     1       0.263   9.680  21.552  0.00  0.00    +0.000 N 
ATOM      4  C   UNL     1      -0.171  10.096  20.235  0.00  0.00    +0.000 C 
ATOM      5  C   UNL     1       0.665   9.299  19.222  0.00  0.00    +0.000 C 
ATOM      6  C   UNL     1       1.739   8.557  20.071  0.00  0.00    +0.000 C 
ATOM      7  C   UNL     1       1.090   8.494  21.464  0.00  0.00    +0.000 C 
ENDROOT
BRANCH   1  17
ATOM      8  C   UNL     1      -4.835  12.093  24.517  0.00  0.00    +0.000 C 
ATOM      9  C   UNL     1      -3.976  13.017  23.713  0.00  0.00    +0.000 A 
ATOM     10  C   UNL     1      -4.411  14.303  23.367  0.00  0.00    +0.000 A 
ATOM     11  C   UNL     1      -3.616  15.162  22.606  0.00  0.00    +0.000 A 
ATOM     12  C   UNL     1      -2.339  14.785  22.140  0.00  0.00    +0.000 A 
ATOM     13  C   UNL     1      -1.548  15.763  21.317  0.00  0.00    +0.000 C 
ATOM     14  C   UNL     1      -1.887  13.479  22.456  0.00  0.00    +0.000 A 
ATOM     15  C   UNL     1      -0.726  12.684  22.156  0.00  0.00    +0.000 A 
ATOM     16  C   UNL     1       0.445  13.068  21.323  0.00  0.00    +0.000 C 
ATOM     17  C   UNL     1      -0.924  11.448  22.766  0.00  0.00    +0.000 A 
ATOM     18  O   UNL     1      -2.111  11.469  23.444  0.00  0.00    +0.000 OA
ATOM     19  C   UNL     1      -2.708  12.667  23.231  0.00  0.00    +0.000 A 
ENDBRANCH   1  17
BRANCH   6  20
ATOM     20  C   UNL     1       2.171   7.239  19.444  0.00  0.00    +0.000 A 
ATOM     21  C   UNL     1       1.897   6.039  20.127  0.00  0.00    +0.000 A 
ATOM     22  C   UNL     1       2.329   4.807  19.634  0.00  0.00    +0.000 A 
ATOM     23  C   UNL     1       3.034   4.748  18.438  0.00  0.00    +0.000 A 
ATOM     24  C   UNL     1       3.285   5.918  17.726  0.00  0.00    +0.000 A 
ATOM     25  C   UNL     1       2.848   7.152  18.219  0.00  0.00    +0.000 A 
ENDBRANCH   6  20
BRANCH   5  26
ATOM     26  N   UNL     1       1.241  10.185  18.194  0.00  0.00    +0.000 NA
ATOM     27  H   UNL     1       1.377   9.655  17.331  0.00  0.00    +0.000 HD
ATOM     28  H   UNL     1       2.173  10.477  18.487  0.00  0.00    +0.000 HD
ENDBRANCH   5  26
TORSDOF 3
ENDMDL
MODEL 9
REMARK VINA RESULT:      -7.1      3.214      8.013
REMARK  Name = 
REMARK  6 active torsions:
REMARK  status: ('A' for Active; 'I' for Inactive)
REMARK    1  A    between atoms: C_1  and  C_2
REMARK    2  A    between atoms: C_5  and  C_6
REMARK    3  A    between atoms: C_8  and  C_9
REMARK    4  A    between atoms: C_10  and  C_11
REMARK    5  A    between atoms: C_15  and  N_16
REMARK    6  A    between atoms: C_17  and  C_18
REMARK                            x       y       z     vdW  Elec       q    Type
REMARK                         _______ _______ _______ _____ _____    ______ ____
ROOT
ATOM      1  C   UNL     1       1.007  10.126  21.375  0.00  0.00    +0.000 C 
ATOM      2  O   UNL     1       0.676   9.856  22.534  0.00  0.00    +0.000 OA
ATOM      3  N   UNL     1       1.302   9.100  20.486  0.00  0.00    +0.000 N 
ATOM      4  C   UNL     1       1.659   9.230  19.089  0.00  0.00    +0.000 C 
ATOM      5  C   UNL     1       2.087   7.834  18.610  0.00  0.00    +0.000 C 
ATOM      6  C   UNL     1       2.136   6.957  19.896  0.00  0.00    +0.000 C 
ATOM      7  C   UNL     1       1.193   7.703  20.855  0.00  0.00    +0.000 C 
ENDROOT
BRANCH   1  17
ATOM      8  C   UNL     1       4.355  14.315  21.749  0.00  0.00    +0.000 C 
ATOM      9  C   UNL     1       3.095  14.495  20.963  0.00  0.00    +0.000 A 
ATOM     10  C   UNL     1       2.759  15.730  20.395  0.00  0.00    +0.000 A 
ATOM     11  C   UNL     1       1.576  15.904  19.672  0.00  0.00    +0.000 A 
ATOM     12  C   UNL     1       0.656  14.853  19.480  0.00  0.00    +0.000 A 
ATOM     13  C   UNL     1      -0.600  15.122  18.699  0.00  0.00    +0.000 C 
ATOM     14  C   UNL     1       0.962  13.600  20.067  0.00  0.00    +0.000 A 
ATOM     15  C   UNL     1       0.313  12.319  20.172  0.00  0.00    +0.000 A 
ATOM     16  C   UNL     1      -1.017  11.929  19.632  0.00  0.00    +0.000 C 
ATOM     17  C   UNL     1       1.160  11.507  20.923  0.00  0.00    +0.000 A 
ATOM     18  O   UNL     1       2.289  12.210  21.239  0.00  0.00    +0.000 OA
ATOM     19  C   UNL     1       2.159  13.473  20.763  0.00  0.00    +0.000 A 
ENDBRANCH   1  17
BRANCH   6  20
ATOM     20  C   UNL     1       1.829   5.493  19.616  0.00  0.00    +0.000 A 
ATOM     21  C   UNL     1       2.024   4.993  18.315  0.00  0.00    +0.000 A 
ATOM     22  C   UNL     1       1.694   3.678  17.984  0.00  0.00    +0.000 A 
ATOM     23  C   UNL     1       1.173   2.829  18.953  0.00  0.00    +0.000 A 
ATOM     24  C   UNL     1       1.005   3.290  20.256  0.00  0.00    +0.000 A 
ATOM     25  C   UNL     1       1.339   4.607  20.588  0.00  0.00    +0.000 A 
ENDBRANCH   6  20
BRANCH   5  26
ATOM     26  N   UNL     1       3.372   7.889  17.889  0.00  0.00    +0.000 NA
ATOM     27  H   UNL     1       3.782   8.818  18.004  0.00  0.00    +0.000 HD
ATOM     28  H   UNL     1       3.200   7.786  16.889  0.00  0.00    +0.000 HD
ENDBRANCH   5  26
TORSDOF 3
ENDMDL
