MODEL 1
REMARK VINA RESULT:      -9.5      0.000      0.000
REMARK  Name = 
REMARK  7 active torsions:
REMARK  status: ('A' for Active; 'I' for Inactive)
REMARK    1  A    between atoms: C_1  and  N_2
REMARK    2  A    between atoms: C_6  and  C_7
REMARK    3  A    between atoms: C_7  and  C_8
REMARK    4  A    between atoms: C_8  and  C_9
REMARK    5  A    between atoms: C_13  and  N_14
REMARK    6  A    between atoms: C_17  and  C_18
REMARK    7  A    between atoms: C_18  and  C_19
REMARK                            x       y       z     vdW  Elec       q    Type
REMARK                         _______ _______ _______ _____ _____    ______ ____
ROOT
ATOM      1  C   UNL     1       4.396   4.771  17.044  0.00  0.00    +0.000 A 
ATOM      2  C   UNL     1       3.543   3.662  16.863  0.00  0.00    +0.000 A 
ATOM      3  C   UNL     1       2.254   3.627  17.399  0.00  0.00    +0.000 A 
ATOM      4  C   UNL     1       1.787   4.698  18.150  0.00  0.00    +0.000 A 
ATOM      5  C   UNL     1       2.579   5.834  18.315  0.00  0.00    +0.000 A 
ATOM      6  C   UNL     1       3.847   5.878  17.728  0.00  0.00    +0.000 A 
ENDROOT
BRANCH   5   7
ATOM      7  N   UNL     1       2.110   6.899  19.122  0.00  0.00    +0.000 N 
ATOM      8  C   UNL     1       2.258   8.269  18.642  0.00  0.00    +0.000 C 
ATOM      9  C   UNL     1       1.108   9.140  19.159  0.00  0.00    +0.000 C 
ATOM     10  C   UNL     1       0.957   8.976  20.652  0.00  0.00    +0.000 C 
ATOM     11  C   UNL     1       1.349   7.835  21.244  0.00  0.00    +0.000 C 
ATOM     12  C   UNL     1       1.811   6.656  20.460  0.00  0.00    +0.000 C 
ATOM     13  O   UNL     1       1.896   5.578  21.041  0.00  0.00    +0.000 OA
BRANCH  10  14
ATOM     14  C   UNL     1       0.361  10.121  21.441  0.00  0.00    +0.000 C 
BRANCH  14  15
ATOM     15  C   UNL     1      -0.349   9.741  22.742  0.00  0.00    +0.000 C 
ATOM     16  F   UNL     1      -1.193  10.697  23.183  0.00  0.00    +0.000 F 
ATOM     17  F   UNL     1      -1.068   8.607  22.584  0.00  0.00    +0.000 F 
ATOM     18  F   UNL     1       0.553   9.516  23.725  0.00  0.00    +0.000 F 
ENDBRANCH  14  15
ENDBRANCH  10  14
ENDBRANCH   5   7
BRANCH   1  19
ATOM     19  C   UNL     1       5.942   4.742  16.592  0.00  0.00    +0.000 C 
ATOM     20  C   UNL     1       6.698   6.103  16.538  0.00  0.00    +0.000 C 
ATOM     21  O   UNL     1       7.693   5.657  17.485  0.00  0.00    +0.000 OA
ATOM     22  C   UNL     1       6.959   4.444  17.734  0.00  0.00    +0.000 C 
BRANCH  19  23
ATOM     23  C   UNL     1       6.169   3.828  15.372  0.00  0.00    +0.000 C 
BRANCH  23  29
ATOM     24  C   UNL     1       5.806   3.229  12.311  0.00  0.00    +0.000 C 
ATOM     25  N   UNL     1       6.688   4.199  12.901  0.00  0.00    +0.000 N 
ATOM     26  C   UNL     1       7.541   5.008  12.212  0.00  0.00    +0.000 A 
ATOM     27  N   UNL     1       8.218   5.748  13.055  0.00  0.00    +0.000 NA
ATOM     28  N   UNL     1       7.816   5.410  14.322  0.00  0.00    +0.000 NA
ATOM     29  C   UNL     1       6.878   4.488  14.231  0.00  0.00    +0.000 A 
ENDBRANCH  23  29
ENDBRANCH  19  23
ENDBRANCH   1  19
TORSDOF 6
ENDMDL
MODEL 2
REMARK VINA RESULT:      -9.1      1.281      1.477
REMARK  Name = 
REMARK  7 active torsions:
REMARK  status: ('A' for Active; 'I' for Inactive)
REMARK    1  A    between atoms: C_1  and  N_2
REMARK    2  A    between atoms: C_6  and  C_7
REMARK    3  A    between atoms: C_7  and  C_8
REMARK    4  A    between atoms: C_8  and  C_9
REMARK    5  A    between atoms: C_13  and  N_14
REMARK    6  A    between atoms: C_17  and  C_18
REMARK    7  A    between atoms: C_18  and  C_19
REMARK                            x       y       z     vdW  Elec       q    Type
REMARK                         _______ _______ _______ _____ _____    ______ ____
ROOT
ATOM      1  C   UNL     1       4.494   4.937  17.098  0.00  0.00    +0.000 A 
ATOM      2  C   UNL     1       3.630   3.824  17.173  0.00  0.00    +0.000 A 
ATOM      3  C   UNL     1       2.334   3.929  17.682  0.00  0.00    +0.000 A 
ATOM      4  C   UNL     1       1.870   5.152  18.149  0.00  0.00    +0.000 A 
ATOM      5  C   UNL     1       2.674   6.288  18.050  0.00  0.00    +0.000 A 
ATOM      6  C   UNL     1       3.951   6.180  17.489  0.00  0.00    +0.000 A 
ENDROOT
BRANCH   5   7
ATOM      7  N   UNL     1       2.208   7.520  18.573  0.00  0.00    +0.000 N 
ATOM      8  C   UNL     1       2.457   8.746  17.822  0.00  0.00    +0.000 C 
ATOM      9  C   UNL     1       1.321   9.748  18.053  0.00  0.00    +0.000 C 
ATOM     10  C   UNL     1       1.064   9.919  19.531  0.00  0.00    +0.000 C 
ATOM     11  C   UNL     1       1.358   8.920  20.381  0.00  0.00    +0.000 C 
ATOM     12  C   UNL     1       1.810   7.584  19.905  0.00  0.00    +0.000 C 
ATOM     13  O   UNL     1       1.802   6.656  20.708  0.00  0.00    +0.000 OA
BRANCH  10  14
ATOM     14  C   UNL     1       0.477  11.228  20.009  0.00  0.00    +0.000 C 
BRANCH  14  15
ATOM     15  C   UNL     1      -1.045  11.266  20.157  0.00  0.00    +0.000 C 
ATOM     16  F   UNL     1      -1.576  12.471  19.860  0.00  0.00    +0.000 F 
ATOM     17  F   UNL     1      -1.630  10.355  19.347  0.00  0.00    +0.000 F 
ATOM     18  F   UNL     1      -1.405  10.970  21.427  0.00  0.00    +0.000 F 
ENDBRANCH  14  15
ENDBRANCH  10  14
ENDBRANCH   5   7
BRANCH   1  19
ATOM     19  C   UNL     1       6.045   4.787  16.690  0.00  0.00    +0.000 C 
ATOM     20  C   UNL     1       6.915   6.079  16.693  0.00  0.00    +0.000 C 
ATOM     21  O   UNL     1       7.839   5.527  17.656  0.00  0.00    +0.000 OA
ATOM     22  C   UNL     1       6.998   4.375  17.852  0.00  0.00    +0.000 C 
BRANCH  19  23
ATOM     23  C   UNL     1       6.232   3.887  15.452  0.00  0.00    +0.000 C 
BRANCH  23  29
ATOM     24  C   UNL     1       5.861   3.302  12.389  0.00  0.00    +0.000 C 
ATOM     25  N   UNL     1       6.752   4.262  12.982  0.00  0.00    +0.000 N 
ATOM     26  C   UNL     1       7.611   5.066  12.296  0.00  0.00    +0.000 A 
ATOM     27  N   UNL     1       8.296   5.797  13.141  0.00  0.00    +0.000 NA
ATOM     28  N   UNL     1       7.892   5.457  14.407  0.00  0.00    +0.000 NA
ATOM     29  C   UNL     1       6.945   4.544  14.313  0.00  0.00    +0.000 A 
ENDBRANCH  23  29
ENDBRANCH  19  23
ENDBRANCH   1  19
TORSDOF 6
ENDMDL
MODEL 3
REMARK VINA RESULT:      -9.1      1.822      2.068
REMARK  Name = 
REMARK  7 active torsions:
REMARK  status: ('A' for Active; 'I' for Inactive)
REMARK    1  A    between atoms: C_1  and  N_2
REMARK    2  A    between atoms: C_6  and  C_7
REMARK    3  A    between atoms: C_7  and  C_8
REMARK    4  A    between atoms: C_8  and  C_9
REMARK    5  A    between atoms: C_13  and  N_14
REMARK    6  A    between atoms: C_17  and  C_18
REMARK    7  A    between atoms: C_18  and  C_19
REMARK                            x       y       z     vdW  Elec       q    Type
REMARK                         _______ _______ _______ _____ _____    ______ ____
ROOT
ATOM      1  C   UNL     1       4.462   4.962  17.151  0.00  0.00    +0.000 A 
ATOM      2  C   UNL     1       3.643   3.816  17.245  0.00  0.00    +0.000 A 
ATOM      3  C   UNL     1       2.343   3.877  17.752  0.00  0.00    +0.000 A 
ATOM      4  C   UNL     1       1.831   5.089  18.199  0.00  0.00    +0.000 A 
ATOM      5  C   UNL     1       2.589   6.254  18.082  0.00  0.00    +0.000 A 
ATOM      6  C   UNL     1       3.868   6.188  17.522  0.00  0.00    +0.000 A 
ENDROOT
BRANCH   5   7
ATOM      7  N   UNL     1       2.073   7.474  18.583  0.00  0.00    +0.000 N 
ATOM      8  C   UNL     1       2.134   8.667  17.745  0.00  0.00    +0.000 C 
ATOM      9  C   UNL     1       0.944   9.586  18.043  0.00  0.00    +0.000 C 
ATOM     10  C   UNL     1       0.829   9.829  19.528  0.00  0.00    +0.000 C 
ATOM     11  C   UNL     1       1.296   8.913  20.395  0.00  0.00    +0.000 C 
ATOM     12  C   UNL     1       1.811   7.591  19.946  0.00  0.00    +0.000 C 
ATOM     13  O   UNL     1       1.968   6.718  20.794  0.00  0.00    +0.000 OA
BRANCH  10  14
ATOM     14  C   UNL     1       0.182  11.113  19.995  0.00  0.00    +0.000 C 
BRANCH  14  15
ATOM     15  C   UNL     1       0.873  12.408  19.563  0.00  0.00    +0.000 C 
ATOM     16  F   UNL     1       2.199  12.258  19.360  0.00  0.00    +0.000 F 
ATOM     17  F   UNL     1       0.338  12.879  18.413  0.00  0.00    +0.000 F 
ATOM     18  F   UNL     1       0.717  13.366  20.505  0.00  0.00    +0.000 F 
ENDBRANCH  14  15
ENDBRANCH  10  14
ENDBRANCH   5   7
BRANCH   1  19
ATOM     19  C   UNL     1       6.018   4.868  16.745  0.00  0.00    +0.000 C 
ATOM     20  C   UNL     1       6.824   6.199  16.685  0.00  0.00    +0.000 C 
ATOM     21  O   UNL     1       7.775   5.738  17.670  0.00  0.00    +0.000 OA
ATOM     22  C   UNL     1       6.991   4.557  17.922  0.00  0.00    +0.000 C 
BRANCH  19  23
ATOM     23  C   UNL     1       6.247   3.920  15.551  0.00  0.00    +0.000 C 
BRANCH  23  29
ATOM     24  C   UNL     1       5.726   3.330  12.511  0.00  0.00    +0.000 C 
ATOM     25  N   UNL     1       6.661   4.274  13.058  0.00  0.00    +0.000 N 
ATOM     26  C   UNL     1       7.505   5.058  12.330  0.00  0.00    +0.000 A 
ATOM     27  N   UNL     1       8.241   5.779  13.139  0.00  0.00    +0.000 NA
ATOM     28  N   UNL     1       7.888   5.453  14.424  0.00  0.00    +0.000 NA
ATOM     29  C   UNL     1       6.920   4.558  14.378  0.00  0.00    +0.000 A 
ENDBRANCH  23  29
ENDBRANCH  19  23
ENDBRANCH   1  19
TORSDOF 6
ENDMDL
MODEL 4
REMARK VINA RESULT:      -9.0      1.711      2.969
REMARK  Name = 
REMARK  7 active torsions:
REMARK  status: ('A' for Active; 'I' for Inactive)
REMARK    1  A    between atoms: C_1  and  N_2
REMARK    2  A    between atoms: C_6  and  C_7
REMARK    3  A    between atoms: C_7  and  C_8
REMARK    4  A    between atoms: C_8  and  C_9
REMARK    5  A    between atoms: C_13  and  N_14
REMARK    6  A    between atoms: C_17  and  C_18
REMARK    7  A    between atoms: C_18  and  C_19
REMARK                            x       y       z     vdW  Elec       q    Type
REMARK                         _______ _______ _______ _____ _____    ______ ____
ROOT
ATOM      1  C   UNL     1       4.250   4.526  16.823  0.00  0.00    +0.000 A 
ATOM      2  C   UNL     1       3.444   3.368  16.862  0.00  0.00    +0.000 A 
ATOM      3  C   UNL     1       2.252   3.322  17.588  0.00  0.00    +0.000 A 
ATOM      4  C   UNL     1       1.840   4.433  18.313  0.00  0.00    +0.000 A 
ATOM      5  C   UNL     1       2.581   5.614  18.265  0.00  0.00    +0.000 A 
ATOM      6  C   UNL     1       3.745   5.663  17.491  0.00  0.00    +0.000 A 
ENDROOT
BRANCH   5   7
ATOM      7  N   UNL     1       2.175   6.724  19.045  0.00  0.00    +0.000 N 
ATOM      8  C   UNL     1       2.357   8.070  18.511  0.00  0.00    +0.000 C 
ATOM      9  C   UNL     1       1.254   8.999  19.030  0.00  0.00    +0.000 C 
ATOM     10  C   UNL     1       1.144   8.895  20.531  0.00  0.00    +0.000 C 
ATOM     11  C   UNL     1       1.514   7.762  21.153  0.00  0.00    +0.000 C 
ATOM     12  C   UNL     1       1.909   6.540  20.400  0.00  0.00    +0.000 C 
ATOM     13  O   UNL     1       1.974   5.481  21.017  0.00  0.00    +0.000 OA
BRANCH  10  14
ATOM     14  C   UNL     1       0.614  10.088  21.295  0.00  0.00    +0.000 C 
BRANCH  14  15
ATOM     15  C   UNL     1      -0.042   9.784  22.643  0.00  0.00    +0.000 C 
ATOM     16  F   UNL     1       0.843   9.405  23.589  0.00  0.00    +0.000 F 
ATOM     17  F   UNL     1      -0.699  10.868  23.114  0.00  0.00    +0.000 F 
ATOM     18  F   UNL     1      -0.946   8.785  22.515  0.00  0.00    +0.000 F 
ENDBRANCH  14  15
ENDBRANCH  10  14
ENDBRANCH   5   7
BRANCH   1  19
ATOM     19  C   UNL     1       5.711   4.527  16.146  0.00  0.00    +0.000 C 
ATOM     20  C   UNL     1       5.968   3.510  14.994  0.00  0.00    +0.000 C 
ATOM     21  O   UNL     1       6.304   4.560  14.060  0.00  0.00    +0.000 OA
ATOM     22  C   UNL     1       5.912   5.572  15.007  0.00  0.00    +0.000 C 
BRANCH  19  23
ATOM     23  C   UNL     1       6.835   4.608  17.199  0.00  0.00    +0.000 C 
BRANCH  23  29
ATOM     24  C   UNL     1       8.080   5.690  19.871  0.00  0.00    +0.000 C 
ATOM     25  N   UNL     1       7.870   6.429  18.656  0.00  0.00    +0.000 N 
ATOM     26  C   UNL     1       8.160   7.748  18.477  0.00  0.00    +0.000 A 
ATOM     27  N   UNL     1       7.819   8.112  17.266  0.00  0.00    +0.000 NA
ATOM     28  N   UNL     1       7.279   7.017  16.640  0.00  0.00    +0.000 NA
ATOM     29  C   UNL     1       7.327   5.994  17.470  0.00  0.00    +0.000 A 
ENDBRANCH  23  29
ENDBRANCH  19  23
ENDBRANCH   1  19
TORSDOF 6
ENDMDL
MODEL 5
REMARK VINA RESULT:      -9.0      2.827      4.239
REMARK  Name = 
REMARK  7 active torsions:
REMARK  status: ('A' for Active; 'I' for Inactive)
REMARK    1  A    between atoms: C_1  and  N_2
REMARK    2  A    between atoms: C_6  and  C_7
REMARK    3  A    between atoms: C_7  and  C_8
REMARK    4  A    between atoms: C_8  and  C_9
REMARK    5  A    between atoms: C_13  and  N_14
REMARK    6  A    between atoms: C_17  and  C_18
REMARK    7  A    between atoms: C_18  and  C_19
REMARK                            x       y       z     vdW  Elec       q    Type
REMARK                         _______ _______ _______ _____ _____    ______ ____
ROOT
ATOM      1  C   UNL     1       3.027   5.832  18.580  0.00  0.00    +0.000 A 
ATOM      2  C   UNL     1       3.546   6.519  17.463  0.00  0.00    +0.000 A 
ATOM      3  C   UNL     1       3.314   7.881  17.259  0.00  0.00    +0.000 A 
ATOM      4  C   UNL     1       2.536   8.593  18.164  0.00  0.00    +0.000 A 
ATOM      5  C   UNL     1       2.041   7.964  19.307  0.00  0.00    +0.000 A 
ATOM      6  C   UNL     1       2.327   6.613  19.526  0.00  0.00    +0.000 A 
ENDROOT
BRANCH   5   7
ATOM      7  N   UNL     1       1.210   8.689  20.196  0.00  0.00    +0.000 N 
ATOM      8  C   UNL     1       1.014   8.183  21.551  0.00  0.00    +0.000 C 
ATOM      9  C   UNL     1       0.804   9.348  22.526  0.00  0.00    +0.000 C 
ATOM     10  C   UNL     1      -0.264  10.280  22.007  0.00  0.00    +0.000 C 
ATOM     11  C   UNL     1      -0.493  10.367  20.686  0.00  0.00    +0.000 C 
ATOM     12  C   UNL     1       0.365   9.671  19.688  0.00  0.00    +0.000 C 
ATOM     13  O   UNL     1       0.263  10.005  18.511  0.00  0.00    +0.000 OA
BRANCH  10  14
ATOM     14  C   UNL     1      -1.051  11.094  23.010  0.00  0.00    +0.000 C 
BRANCH  14  15
ATOM     15  C   UNL     1      -1.134  12.597  22.735  0.00  0.00    +0.000 C 
ATOM     16  F   UNL     1       0.020  13.114  22.263  0.00  0.00    +0.000 F 
ATOM     17  F   UNL     1      -2.100  12.868  21.829  0.00  0.00    +0.000 F 
ATOM     18  F   UNL     1      -1.441  13.269  23.869  0.00  0.00    +0.000 F 
ENDBRANCH  14  15
ENDBRANCH  10  14
ENDBRANCH   5   7
BRANCH   1  19
ATOM     19  C   UNL     1       3.132   4.231  18.723  0.00  0.00    +0.000 C 
ATOM     20  C   UNL     1       2.719   3.605  20.088  0.00  0.00    +0.000 C 
ATOM     21  O   UNL     1       1.705   2.781  19.471  0.00  0.00    +0.000 OA
ATOM     22  C   UNL     1       1.895   3.438  18.204  0.00  0.00    +0.000 C 
BRANCH  19  23
ATOM     23  C   UNL     1       4.448   3.685  18.135  0.00  0.00    +0.000 C 
BRANCH  23  29
ATOM     24  C   UNL     1       6.881   4.566  16.355  0.00  0.00    +0.000 C 
ATOM     25  N   UNL     1       6.719   4.790  17.766  0.00  0.00    +0.000 N 
ATOM     26  C   UNL     1       7.624   5.409  18.574  0.00  0.00    +0.000 A 
ATOM     27  N   UNL     1       7.178   5.420  19.805  0.00  0.00    +0.000 NA
ATOM     28  N   UNL     1       5.962   4.783  19.812  0.00  0.00    +0.000 NA
ATOM     29  C   UNL     1       5.674   4.419  18.578  0.00  0.00    +0.000 A 
ENDBRANCH  23  29
ENDBRANCH  19  23
ENDBRANCH   1  19
TORSDOF 6
ENDMDL
MODEL 6
REMARK VINA RESULT:      -9.0      2.248      3.346
REMARK  Name = 
REMARK  7 active torsions:
REMARK  status: ('A' for Active; 'I' for Inactive)
REMARK    1  A    between atoms: C_1  and  N_2
REMARK    2  A    between atoms: C_6  and  C_7
REMARK    3  A    between atoms: C_7  and  C_8
REMARK    4  A    between atoms: C_8  and  C_9
REMARK    5  A    between atoms: C_13  and  N_14
REMARK    6  A    between atoms: C_17  and  C_18
REMARK    7  A    between atoms: C_18  and  C_19
REMARK                            x       y       z     vdW  Elec       q    Type
REMARK                         _______ _______ _______ _____ _____    ______ ____
ROOT
ATOM      1  C   UNL     1       4.465   4.489  16.927  0.00  0.00    +0.000 A 
ATOM      2  C   UNL     1       3.821   3.323  17.391  0.00  0.00    +0.000 A 
ATOM      3  C   UNL     1       2.711   3.379  18.235  0.00  0.00    +0.000 A 
ATOM      4  C   UNL     1       2.223   4.610  18.656  0.00  0.00    +0.000 A 
ATOM      5  C   UNL     1       2.800   5.789  18.185  0.00  0.00    +0.000 A 
ATOM      6  C   UNL     1       3.878   5.719  17.297  0.00  0.00    +0.000 A 
ENDROOT
BRANCH   5   7
ATOM      7  N   UNL     1       2.324   7.036  18.658  0.00  0.00    +0.000 N 
ATOM      8  C   UNL     1       2.588   8.238  17.874  0.00  0.00    +0.000 C 
ATOM      9  C   UNL     1       1.447   9.247  18.051  0.00  0.00    +0.000 C 
ATOM     10  C   UNL     1       1.161   9.464  19.517  0.00  0.00    +0.000 C 
ATOM     11  C   UNL     1       1.439   8.494  20.404  0.00  0.00    +0.000 C 
ATOM     12  C   UNL     1       1.899   7.143  19.980  0.00  0.00    +0.000 C 
ATOM     13  O   UNL     1       1.876   6.241  20.812  0.00  0.00    +0.000 OA
BRANCH  10  14
ATOM     14  C   UNL     1       0.565  10.788  19.941  0.00  0.00    +0.000 C 
BRANCH  14  15
ATOM     15  C   UNL     1      -0.819  11.111  19.376  0.00  0.00    +0.000 C 
ATOM     16  F   UNL     1      -0.771  11.822  18.229  0.00  0.00    +0.000 F 
ATOM     17  F   UNL     1      -1.512   9.978  19.121  0.00  0.00    +0.000 F 
ATOM     18  F   UNL     1      -1.537  11.835  20.266  0.00  0.00    +0.000 F 
ENDBRANCH  14  15
ENDBRANCH  10  14
ENDBRANCH   5   7
BRANCH   1  19
ATOM     19  C   UNL     1       5.852   4.431  16.109  0.00  0.00    +0.000 C 
ATOM     20  C   UNL     1       5.974   3.364  14.981  0.00  0.00    +0.000 C 
ATOM     21  O   UNL     1       6.234   4.368  13.976  0.00  0.00    +0.000 OA
ATOM     22  C   UNL     1       5.958   5.425  14.914  0.00  0.00    +0.000 C 
BRANCH  19  23
ATOM     23  C   UNL     1       7.076   4.526  17.041  0.00  0.00    +0.000 C 
BRANCH  23  29
ATOM     24  C   UNL     1       7.929   5.590  19.870  0.00  0.00    +0.000 C 
ATOM     25  N   UNL     1       7.841   6.350  18.654  0.00  0.00    +0.000 N 
ATOM     26  C   UNL     1       8.092   7.685  18.540  0.00  0.00    +0.000 A 
ATOM     27  N   UNL     1       7.889   8.065  17.303  0.00  0.00    +0.000 NA
ATOM     28  N   UNL     1       7.481   6.965  16.592  0.00  0.00    +0.000 NA
ATOM     29  C   UNL     1       7.470   5.924  17.401  0.00  0.00    +0.000 A 
ENDBRANCH  23  29
ENDBRANCH  19  23
ENDBRANCH   1  19
TORSDOF 6
ENDMDL
MODEL 7
REMARK VINA RESULT:      -8.8      2.337      2.832
REMARK  Name = 
REMARK  7 active torsions:
REMARK  status: ('A' for Active; 'I' for Inactive)
REMARK    1  A    between atoms: C_1  and  N_2
REMARK    2  A    between atoms: C_6  and  C_7
REMARK    3  A    between atoms: C_7  and  C_8
REMARK    4  A    between atoms: C_8  and  C_9
REMARK    5  A    between atoms: C_13  and  N_14
REMARK    6  A    between atoms: C_17  and  C_18
REMARK    7  A    between atoms: C_18  and  C_19
REMARK                            x       y       z     vdW  Elec       q    Type
REMARK                         _______ _______ _______ _____ _____    ______ ____
ROOT
ATOM      1  C   UNL     1       5.291   5.562  18.601  0.00  0.00    +0.000 A 
ATOM      2  C   UNL     1       4.789   4.405  19.235  0.00  0.00    +0.000 A 
ATOM      3  C   UNL     1       3.492   4.348  19.748  0.00  0.00    +0.000 A 
ATOM      4  C   UNL     1       2.662   5.459  19.657  0.00  0.00    +0.000 A 
ATOM      5  C   UNL     1       3.101   6.607  18.998  0.00  0.00    +0.000 A 
ATOM      6  C   UNL     1       4.384   6.632  18.441  0.00  0.00    +0.000 A 
ENDROOT
BRANCH   5   7
ATOM      7  N   UNL     1       2.263   7.749  18.953  0.00  0.00    +0.000 N 
ATOM      8  C   UNL     1       2.309   8.615  17.780  0.00  0.00    +0.000 C 
ATOM      9  C   UNL     1       0.935   9.248  17.534  0.00  0.00    +0.000 C 
ATOM     10  C   UNL     1       0.415   9.880  18.802  0.00  0.00    +0.000 C 
ATOM     11  C   UNL     1       0.814   9.412  19.997  0.00  0.00    +0.000 C 
ATOM     12  C   UNL     1       1.657   8.192  20.126  0.00  0.00    +0.000 C 
ATOM     13  O   UNL     1       1.758   7.678  21.236  0.00  0.00    +0.000 OA
BRANCH  10  14
ATOM     14  C   UNL     1      -0.551  11.038  18.680  0.00  0.00    +0.000 C 
BRANCH  14  15
ATOM     15  C   UNL     1       0.062  12.436  18.780  0.00  0.00    +0.000 C 
ATOM     16  F   UNL     1       1.326  12.495  18.312  0.00  0.00    +0.000 F 
ATOM     17  F   UNL     1      -0.670  13.333  18.082  0.00  0.00    +0.000 F 
ATOM     18  F   UNL     1       0.091  12.850  20.068  0.00  0.00    +0.000 F 
ENDBRANCH  14  15
ENDBRANCH  10  14
ENDBRANCH   5   7
BRANCH   1  19
ATOM     19  C   UNL     1       6.839   5.700  18.176  0.00  0.00    +0.000 C 
ATOM     20  C   UNL     1       7.326   7.097  17.688  0.00  0.00    +0.000 C 
ATOM     21  O   UNL     1       8.329   7.176  18.725  0.00  0.00    +0.000 OA
ATOM     22  C   UNL     1       7.824   5.982  19.350  0.00  0.00    +0.000 C 
BRANCH  19  23
ATOM     23  C   UNL     1       7.307   4.514  17.310  0.00  0.00    +0.000 C 
BRANCH  23  29
ATOM     24  C   UNL     1       4.755   3.398  15.862  0.00  0.00    +0.000 C 
ATOM     25  N   UNL     1       5.833   4.135  15.262  0.00  0.00    +0.000 N 
ATOM     26  C   UNL     1       5.932   4.450  13.940  0.00  0.00    +0.000 A 
ATOM     27  N   UNL     1       7.049   5.099  13.727  0.00  0.00    +0.000 NA
ATOM     28  N   UNL     1       7.707   5.201  14.927  0.00  0.00    +0.000 NA
ATOM     29  C   UNL     1       6.965   4.636  15.859  0.00  0.00    +0.000 A 
ENDBRANCH  23  29
ENDBRANCH  19  23
ENDBRANCH   1  19
TORSDOF 6
ENDMDL
MODEL 8
REMARK VINA RESULT:      -8.7      2.965      4.792
REMARK  Name = 
REMARK  7 active torsions:
REMARK  status: ('A' for Active; 'I' for Inactive)
REMARK    1  A    between atoms: C_1  and  N_2
REMARK    2  A    between atoms: C_6  and  C_7
REMARK    3  A    between atoms: C_7  and  C_8
REMARK    4  A    between atoms: C_8  and  C_9
REMARK    5  A    between atoms: C_13  and  N_14
REMARK    6  A    between atoms: C_17  and  C_18
REMARK    7  A    between atoms: C_18  and  C_19
REMARK                            x       y       z     vdW  Elec       q    Type
REMARK                         _______ _______ _______ _____ _____    ______ ____
ROOT
ATOM      1  C   UNL     1       2.238   7.249  19.245  0.00  0.00    +0.000 A 
ATOM      2  C   UNL     1       2.335   7.743  17.927  0.00  0.00    +0.000 A 
ATOM      3  C   UNL     1       1.866   9.010  17.577  0.00  0.00    +0.000 A 
ATOM      4  C   UNL     1       1.266   9.816  18.537  0.00  0.00    +0.000 A 
ATOM      5  C   UNL     1       1.191   9.386  19.862  0.00  0.00    +0.000 A 
ATOM      6  C   UNL     1       1.714   8.137  20.210  0.00  0.00    +0.000 A 
ENDROOT
BRANCH   5   7
ATOM      7  N   UNL     1       0.535  10.196  20.821  0.00  0.00    +0.000 N 
ATOM      8  C   UNL     1       0.966  11.580  20.992  0.00  0.00    +0.000 C 
ATOM      9  C   UNL     1      -0.222  12.458  21.404  0.00  0.00    +0.000 C 
ATOM     10  C   UNL     1      -0.946  11.842  22.576  0.00  0.00    +0.000 C 
ATOM     11  C   UNL     1      -0.904  10.513  22.767  0.00  0.00    +0.000 C 
ATOM     12  C   UNL     1      -0.273   9.593  21.781  0.00  0.00    +0.000 C 
ATOM     13  O   UNL     1      -0.503   8.392  21.887  0.00  0.00    +0.000 OA
BRANCH  10  14
ATOM     14  C   UNL     1      -1.705  12.759  23.510  0.00  0.00    +0.000 C 
BRANCH  14  15
ATOM     15  C   UNL     1      -3.230  12.647  23.467  0.00  0.00    +0.000 C 
ATOM     16  F   UNL     1      -3.718  11.733  24.331  0.00  0.00    +0.000 F 
ATOM     17  F   UNL     1      -3.808  13.833  23.761  0.00  0.00    +0.000 F 
ATOM     18  F   UNL     1      -3.644  12.291  22.228  0.00  0.00    +0.000 F 
ENDBRANCH  14  15
ENDBRANCH  10  14
ENDBRANCH   5   7
BRANCH   1  19
ATOM     19  C   UNL     1       2.605   5.724  19.615  0.00  0.00    +0.000 C 
ATOM     20  C   UNL     1       1.885   5.093  20.844  0.00  0.00    +0.000 C 
ATOM     21  O   UNL     1       1.325   4.027  20.045  0.00  0.00    +0.000 OA
ATOM     22  C   UNL     1       1.801   4.643  18.833  0.00  0.00    +0.000 C 
BRANCH  19  23
ATOM     23  C   UNL     1       4.123   5.464  19.552  0.00  0.00    +0.000 C 
BRANCH  23  29
ATOM     24  C   UNL     1       5.693   6.847  17.210  0.00  0.00    +0.000 C 
ATOM     25  N   UNL     1       5.277   5.473  17.276  0.00  0.00    +0.000 N 
ATOM     26  C   UNL     1       5.479   4.542  16.302  0.00  0.00    +0.000 A 
ATOM     27  N   UNL     1       4.950   3.401  16.669  0.00  0.00    +0.000 NA
ATOM     28  N   UNL     1       4.375   3.587  17.900  0.00  0.00    +0.000 NA
ATOM     29  C   UNL     1       4.588   4.832  18.278  0.00  0.00    +0.000 A 
ENDBRANCH  23  29
ENDBRANCH  19  23
ENDBRANCH   1  19
TORSDOF 6
ENDMDL
MODEL 9
REMARK VINA RESULT:      -8.6      3.235      4.797
REMARK  Name = 
REMARK  7 active torsions:
REMARK  status: ('A' for Active; 'I' for Inactive)
REMARK    1  A    between atoms: C_1  and  N_2
REMARK    2  A    between atoms: C_6  and  C_7
REMARK    3  A    between atoms: C_7  and  C_8
REMARK    4  A    between atoms: C_8  and  C_9
REMARK    5  A    between atoms: C_13  and  N_14
REMARK    6  A    between atoms: C_17  and  C_18
REMARK    7  A    between atoms: C_18  and  C_19
REMARK                            x       y       z     vdW  Elec       q    Type
REMARK                         _______ _______ _______ _____ _____    ______ ____
ROOT
ATOM      1  C   UNL     1       2.251   6.960  19.177  0.00  0.00    +0.000 A 
ATOM      2  C   UNL     1       2.433   7.484  17.879  0.00  0.00    +0.000 A 
ATOM      3  C   UNL     1       2.051   8.785  17.547  0.00  0.00    +0.000 A 
ATOM      4  C   UNL     1       1.457   9.597  18.505  0.00  0.00    +0.000 A 
ATOM      5  C   UNL     1       1.301   9.137  19.813  0.00  0.00    +0.000 A 
ATOM      6  C   UNL     1       1.737   7.850  20.145  0.00  0.00    +0.000 A 
ENDROOT
BRANCH   5   7
ATOM      7  N   UNL     1       0.651   9.957  20.768  0.00  0.00    +0.000 N 
ATOM      8  C   UNL     1       1.124  11.323  20.966  0.00  0.00    +0.000 C 
ATOM      9  C   UNL     1      -0.042  12.235  21.363  0.00  0.00    +0.000 C 
ATOM     10  C   UNL     1      -0.813  11.631  22.511  0.00  0.00    +0.000 C 
ATOM     11  C   UNL     1      -0.820  10.298  22.685  0.00  0.00    +0.000 C 
ATOM     12  C   UNL     1      -0.198   9.369  21.701  0.00  0.00    +0.000 C 
ATOM     13  O   UNL     1      -0.472   8.176  21.786  0.00  0.00    +0.000 OA
BRANCH  10  14
ATOM     14  C   UNL     1      -1.561  12.561  23.439  0.00  0.00    +0.000 C 
BRANCH  14  15
ATOM     15  C   UNL     1      -3.078  12.624  23.246  0.00  0.00    +0.000 C 
ATOM     16  F   UNL     1      -3.583  13.863  23.419  0.00  0.00    +0.000 F 
ATOM     17  F   UNL     1      -3.422  12.215  22.004  0.00  0.00    +0.000 F 
ATOM     18  F   UNL     1      -3.701  11.809  24.129  0.00  0.00    +0.000 F 
ENDBRANCH  14  15
ENDBRANCH  10  14
ENDBRANCH   5   7
BRANCH   1  19
ATOM     19  C   UNL     1       2.514   5.407  19.516  0.00  0.00    +0.000 C 
ATOM     20  C   UNL     1       2.719   5.026  21.012  0.00  0.00    +0.000 C 
ATOM     21  O   UNL     1       1.603   4.109  20.994  0.00  0.00    +0.000 OA
ATOM     22  C   UNL     1       1.231   4.538  19.671  0.00  0.00    +0.000 C 
BRANCH  19  23
ATOM     23  C   UNL     1       3.524   4.767  18.542  0.00  0.00    +0.000 C 
BRANCH  23  29
ATOM     24  C   UNL     1       5.433   6.398  16.656  0.00  0.00    +0.000 C 
ATOM     25  N   UNL     1       5.754   5.857  17.949  0.00  0.00    +0.000 N 
ATOM     26  C   UNL     1       6.968   5.946  18.560  0.00  0.00    +0.000 A 
ATOM     27  N   UNL     1       6.926   5.322  19.711  0.00  0.00    +0.000 NA
ATOM     28  N   UNL     1       5.666   4.799  19.855  0.00  0.00    +0.000 NA
ATOM     29  C   UNL     1       4.950   5.137  18.801  0.00  0.00    +0.000 A 
ENDBRANCH  23  29
ENDBRANCH  19  23
ENDBRANCH   1  19
TORSDOF 6
ENDMDL
