MODEL 1
REMARK VINA RESULT:      -9.2      0.000      0.000
REMARK  Name = 
REMARK  8 active torsions:
REMARK  status: ('A' for Active; 'I' for Inactive)
REMARK    1  A    between atoms: C_1  and  N_2
REMARK    2  A    between atoms: C_6  and  C_7
REMARK    3  A    between atoms: C_7  and  N_8
REMARK    4  A    between atoms: N_8  and  C_9
REMARK    5  A    between atoms: C_9  and  C_10
REMARK    6  A    between atoms: C_12  and  O_13
REMARK    7  A    between atoms: C_15  and  N_16
REMARK    8  A    between atoms: C_23  and  C_24
REMARK                            x       y       z     vdW  Elec       q    Type
REMARK                         _______ _______ _______ _____ _____    ______ ____
ROOT
ATOM      1  C   UNL     1       4.593   4.725  18.429  0.00  0.00    +0.000 A 
ATOM      2  C   UNL     1       3.983   3.558  18.900  0.00  0.00    +0.000 A 
ATOM      3  C   UNL     1       2.772   3.652  19.570  0.00  0.00    +0.000 A 
ATOM      4  C   UNL     1       2.150   4.881  19.768  0.00  0.00    +0.000 A 
ATOM      5  C   UNL     1       2.720   6.058  19.274  0.00  0.00    +0.000 A 
ATOM      6  C   UNL     1       3.947   5.961  18.604  0.00  0.00    +0.000 A 
ENDROOT
BRANCH   5   7
ATOM      7  N   UNL     1       2.093   7.319  19.440  0.00  0.00    +0.000 N 
ATOM      8  C   UNL     1       1.434   7.700  20.682  0.00  0.00    +0.000 C 
ATOM      9  C   UNL     1       0.980   9.098  20.421  0.00  0.00    +0.000 A 
ATOM     10  C   UNL     1       1.337   9.460  19.126  0.00  0.00    +0.000 A 
ATOM     11  C   UNL     1       1.044  10.692  18.577  0.00  0.00    +0.000 A 
ATOM     12  C   UNL     1       0.355  11.600  19.375  0.00  0.00    +0.000 A 
ATOM     13  C   UNL     1      -0.006  11.256  20.693  0.00  0.00    +0.000 A 
ATOM     14  C   UNL     1       0.303   9.995  21.242  0.00  0.00    +0.000 A 
ATOM     15  C   UNL     1       2.053   8.347  18.501  0.00  0.00    +0.000 C 
ATOM     16  O   UNL     1       2.483   8.423  17.365  0.00  0.00    +0.000 OA
BRANCH  14  17
ATOM     17  C   UNL     1      -0.079   9.669  22.662  0.00  0.00    +0.000 C 
ATOM     18  F   UNL     1       0.982   9.346  23.455  0.00  0.00    +0.000 F 
ATOM     19  F   UNL     1      -0.701  10.709  23.282  0.00  0.00    +0.000 F 
ATOM     20  F   UNL     1      -0.935   8.616  22.741  0.00  0.00    +0.000 F 
ENDBRANCH  14  17
ENDBRANCH   5   7
BRANCH   3  21
ATOM     21  O   UNL     1       2.151   2.542  20.072  0.00  0.00    +0.000 OA
ATOM     22  H   UNL     1       2.439   1.769  19.567  0.00  0.00    +0.000 HD
ENDBRANCH   3  21
BRANCH   1  23
ATOM     23  C   UNL     1       5.962   4.685  17.796  0.00  0.00    +0.000 C 
BRANCH  23  24
ATOM     24  N   UNL     1       6.044   3.723  16.687  0.00  0.00    +0.000 NA
ATOM     25  H   UNL     1       7.037   3.549  16.517  0.00  0.00    +0.000 HD
BRANCH  24  26
ATOM     26  C   UNL     1       5.487   4.240  15.424  0.00  0.00    +0.000 C 
BRANCH  26  32
ATOM     27  C   UNL     1       5.785   3.324  12.444  0.00  0.00    +0.000 C 
ATOM     28  N   UNL     1       6.631   4.249  13.149  0.00  0.00    +0.000 N 
ATOM     29  C   UNL     1       7.705   4.900  12.624  0.00  0.00    +0.000 A 
ATOM     30  N   UNL     1       8.251   5.663  13.539  0.00  0.00    +0.000 NA
ATOM     31  N   UNL     1       7.530   5.502  14.696  0.00  0.00    +0.000 NA
ATOM     32  C   UNL     1       6.541   4.658  14.454  0.00  0.00    +0.000 A 
ENDBRANCH  26  32
ENDBRANCH  24  26
ENDBRANCH  23  24
ENDBRANCH   1  23
TORSDOF 7
ENDMDL
MODEL 2
REMARK VINA RESULT:      -9.0      1.617      2.659
REMARK  Name = 
REMARK  8 active torsions:
REMARK  status: ('A' for Active; 'I' for Inactive)
REMARK    1  A    between atoms: C_1  and  N_2
REMARK    2  A    between atoms: C_6  and  C_7
REMARK    3  A    between atoms: C_7  and  N_8
REMARK    4  A    between atoms: N_8  and  C_9
REMARK    5  A    between atoms: C_9  and  C_10
REMARK    6  A    between atoms: C_12  and  O_13
REMARK    7  A    between atoms: C_15  and  N_16
REMARK    8  A    between atoms: C_23  and  C_24
REMARK                            x       y       z     vdW  Elec       q    Type
REMARK                         _______ _______ _______ _____ _____    ______ ____
ROOT
ATOM      1  C   UNL     1       3.915   4.402  17.803  0.00  0.00    +0.000 A 
ATOM      2  C   UNL     1       3.803   3.424  18.797  0.00  0.00    +0.000 A 
ATOM      3  C   UNL     1       3.157   3.739  19.985  0.00  0.00    +0.000 A 
ATOM      4  C   UNL     1       2.610   5.001  20.196  0.00  0.00    +0.000 A 
ATOM      5  C   UNL     1       2.675   5.983  19.203  0.00  0.00    +0.000 A 
ATOM      6  C   UNL     1       3.335   5.665  18.008  0.00  0.00    +0.000 A 
ENDROOT
BRANCH   5   7
ATOM      7  N   UNL     1       2.103   7.268  19.384  0.00  0.00    +0.000 N 
ATOM      8  C   UNL     1       1.430   7.651  20.618  0.00  0.00    +0.000 C 
ATOM      9  C   UNL     1       1.047   9.074  20.380  0.00  0.00    +0.000 A 
ATOM     10  C   UNL     1       1.454   9.448  19.103  0.00  0.00    +0.000 A 
ATOM     11  C   UNL     1       1.232  10.705  18.577  0.00  0.00    +0.000 A 
ATOM     12  C   UNL     1       0.565  11.626  19.379  0.00  0.00    +0.000 A 
ATOM     13  C   UNL     1       0.155  11.268  20.679  0.00  0.00    +0.000 A 
ATOM     14  C   UNL     1       0.392   9.982  21.205  0.00  0.00    +0.000 A 
ATOM     15  C   UNL     1       2.135   8.318  18.470  0.00  0.00    +0.000 C 
ATOM     16  O   UNL     1       2.596   8.400  17.347  0.00  0.00    +0.000 OA
BRANCH  14  17
ATOM     17  C   UNL     1      -0.041   9.643  22.607  0.00  0.00    +0.000 C 
ATOM     18  F   UNL     1      -0.683  10.662  23.245  0.00  0.00    +0.000 F 
ATOM     19  F   UNL     1      -0.898   8.587  22.643  0.00  0.00    +0.000 F 
ATOM     20  F   UNL     1       1.006   9.306  23.406  0.00  0.00    +0.000 F 
ENDBRANCH  14  17
ENDBRANCH   5   7
BRANCH   3  21
ATOM     21  O   UNL     1       3.046   2.826  20.995  0.00  0.00    +0.000 OA
ATOM     22  H   UNL     1       2.114   2.582  21.094  0.00  0.00    +0.000 HD
ENDBRANCH   3  21
BRANCH   1  23
ATOM     23  C   UNL     1       4.706   4.142  16.545  0.00  0.00    +0.000 C 
BRANCH  23  24
ATOM     24  N   UNL     1       5.285   5.369  15.978  0.00  0.00    +0.000 NA
ATOM     25  H   UNL     1       4.994   5.410  14.999  0.00  0.00    +0.000 HD
BRANCH  24  26
ATOM     26  C   UNL     1       6.759   5.372  15.978  0.00  0.00    +0.000 C 
BRANCH  26  32
ATOM     27  C   UNL     1       7.511   8.023  17.465  0.00  0.00    +0.000 C 
ATOM     28  N   UNL     1       7.640   6.685  17.974  0.00  0.00    +0.000 N 
ATOM     29  C   UNL     1       8.101   6.348  19.210  0.00  0.00    +0.000 A 
ATOM     30  N   UNL     1       8.089   5.043  19.345  0.00  0.00    +0.000 NA
ATOM     31  N   UNL     1       7.624   4.510  18.170  0.00  0.00    +0.000 NA
ATOM     32  C   UNL     1       7.338   5.504  17.347  0.00  0.00    +0.000 A 
ENDBRANCH  26  32
ENDBRANCH  24  26
ENDBRANCH  23  24
ENDBRANCH   1  23
TORSDOF 7
ENDMDL
MODEL 3
REMARK VINA RESULT:      -8.8      1.754      2.455
REMARK  Name = 
REMARK  8 active torsions:
REMARK  status: ('A' for Active; 'I' for Inactive)
REMARK    1  A    between atoms: C_1  and  N_2
REMARK    2  A    between atoms: C_6  and  C_7
REMARK    3  A    between atoms: C_7  and  N_8
REMARK    4  A    between atoms: N_8  and  C_9
REMARK    5  A    between atoms: C_9  and  C_10
REMARK    6  A    between atoms: C_12  and  O_13
REMARK    7  A    between atoms: C_15  and  N_16
REMARK    8  A    between atoms: C_23  and  C_24
REMARK                            x       y       z     vdW  Elec       q    Type
REMARK                         _______ _______ _______ _____ _____    ______ ____
ROOT
ATOM      1  C   UNL     1       3.637   3.717  18.732  0.00  0.00    +0.000 A 
ATOM      2  C   UNL     1       3.418   2.886  19.837  0.00  0.00    +0.000 A 
ATOM      3  C   UNL     1       2.761   3.397  20.947  0.00  0.00    +0.000 A 
ATOM      4  C   UNL     1       2.306   4.712  20.974  0.00  0.00    +0.000 A 
ATOM      5  C   UNL     1       2.478   5.550  19.869  0.00  0.00    +0.000 A 
ATOM      6  C   UNL     1       3.149   5.034  18.752  0.00  0.00    +0.000 A 
ENDROOT
BRANCH   5   7
ATOM      7  N   UNL     1       2.000   6.885  19.863  0.00  0.00    +0.000 N 
ATOM      8  C   UNL     1       1.305   7.466  21.004  0.00  0.00    +0.000 C 
ATOM      9  C   UNL     1       1.046   8.872  20.575  0.00  0.00    +0.000 A 
ATOM     10  C   UNL     1       1.537   9.055  19.286  0.00  0.00    +0.000 A 
ATOM     11  C   UNL     1       1.437  10.249  18.601  0.00  0.00    +0.000 A 
ATOM     12  C   UNL     1       0.809  11.308  19.249  0.00  0.00    +0.000 A 
ATOM     13  C   UNL     1       0.315  11.146  20.559  0.00  0.00    +0.000 A 
ATOM     14  C   UNL     1       0.427   9.921  21.248  0.00  0.00    +0.000 A 
ATOM     15  C   UNL     1       2.154   7.808  18.831  0.00  0.00    +0.000 C 
ATOM     16  O   UNL     1       2.670   7.717  17.733  0.00  0.00    +0.000 OA
BRANCH  14  17
ATOM     17  C   UNL     1      -0.093   9.791  22.656  0.00  0.00    +0.000 C 
ATOM     18  F   UNL     1       0.875   9.512  23.574  0.00  0.00    +0.000 F 
ATOM     19  F   UNL     1      -0.698  10.929  23.091  0.00  0.00    +0.000 F 
ATOM     20  F   UNL     1      -1.016   8.801  22.778  0.00  0.00    +0.000 F 
ENDBRANCH  14  17
ENDBRANCH   5   7
BRANCH   3  21
ATOM     21  O   UNL     1       2.548   2.632  22.060  0.00  0.00    +0.000 OA
ATOM     22  H   UNL     1       3.373   2.181  22.291  0.00  0.00    +0.000 HD
ENDBRANCH   3  21
BRANCH   1  23
ATOM     23  C   UNL     1       4.444   3.241  17.551  0.00  0.00    +0.000 C 
BRANCH  23  24
ATOM     24  N   UNL     1       5.010   4.351  16.769  0.00  0.00    +0.000 NA
ATOM     25  H   UNL     1       4.718   4.210  15.799  0.00  0.00    +0.000 HD
BRANCH  24  26
ATOM     26  C   UNL     1       6.484   4.368  16.764  0.00  0.00    +0.000 C 
BRANCH  26  32
ATOM     27  C   UNL     1       7.215   5.414  19.625  0.00  0.00    +0.000 C 
ATOM     28  N   UNL     1       7.373   6.122  18.383  0.00  0.00    +0.000 N 
ATOM     29  C   UNL     1       7.889   7.374  18.245  0.00  0.00    +0.000 A 
ATOM     30  N   UNL     1       7.886   7.716  16.979  0.00  0.00    +0.000 NA
ATOM     31  N   UNL     1       7.344   6.673  16.271  0.00  0.00    +0.000 NA
ATOM     32  C   UNL     1       7.048   5.704  17.119  0.00  0.00    +0.000 A 
ENDBRANCH  26  32
ENDBRANCH  24  26
ENDBRANCH  23  24
ENDBRANCH   1  23
TORSDOF 7
ENDMDL
MODEL 4
REMARK VINA RESULT:      -8.8      1.283      1.989
REMARK  Name = 
REMARK  8 active torsions:
REMARK  status: ('A' for Active; 'I' for Inactive)
REMARK    1  A    between atoms: C_1  and  N_2
REMARK    2  A    between atoms: C_6  and  C_7
REMARK    3  A    between atoms: C_7  and  N_8
REMARK    4  A    between atoms: N_8  and  C_9
REMARK    5  A    between atoms: C_9  and  C_10
REMARK    6  A    between atoms: C_12  and  O_13
REMARK    7  A    between atoms: C_15  and  N_16
REMARK    8  A    between atoms: C_23  and  C_24
REMARK                            x       y       z     vdW  Elec       q    Type
REMARK                         _______ _______ _______ _____ _____    ______ ____
ROOT
ATOM      1  C   UNL     1       4.098   4.377  19.440  0.00  0.00    +0.000 A 
ATOM      2  C   UNL     1       3.358   3.310  19.960  0.00  0.00    +0.000 A 
ATOM      3  C   UNL     1       2.118   3.561  20.531  0.00  0.00    +0.000 A 
ATOM      4  C   UNL     1       1.596   4.850  20.583  0.00  0.00    +0.000 A 
ATOM      5  C   UNL     1       2.299   5.928  20.037  0.00  0.00    +0.000 A 
ATOM      6  C   UNL     1       3.553   5.672  19.467  0.00  0.00    +0.000 A 
ENDROOT
BRANCH   5   7
ATOM      7  N   UNL     1       1.777   7.246  20.054  0.00  0.00    +0.000 N 
ATOM      8  C   UNL     1       1.085   7.791  21.214  0.00  0.00    +0.000 C 
ATOM      9  C   UNL     1       0.770   9.192  20.806  0.00  0.00    +0.000 A 
ATOM     10  C   UNL     1       1.230   9.405  19.510  0.00  0.00    +0.000 A 
ATOM     11  C   UNL     1       1.077  10.602  18.840  0.00  0.00    +0.000 A 
ATOM     12  C   UNL     1       0.426  11.632  19.513  0.00  0.00    +0.000 A 
ATOM     13  C   UNL     1      -0.037  11.440  20.830  0.00  0.00    +0.000 A 
ATOM     14  C   UNL     1       0.130  10.213  21.503  0.00  0.00    +0.000 A 
ATOM     15  C   UNL     1       1.880   8.184  19.030  0.00  0.00    +0.000 C 
ATOM     16  O   UNL     1       2.377   8.122  17.921  0.00  0.00    +0.000 OA
BRANCH  14  17
ATOM     17  C   UNL     1      -0.358  10.050  22.919  0.00  0.00    +0.000 C 
ATOM     18  F   UNL     1      -0.920  11.178  23.438  0.00  0.00    +0.000 F 
ATOM     19  F   UNL     1      -1.305   9.080  23.032  0.00  0.00    +0.000 F 
ATOM     20  F   UNL     1       0.641   9.706  23.775  0.00  0.00    +0.000 F 
ENDBRANCH  14  17
ENDBRANCH   5   7
BRANCH   3  21
ATOM     21  O   UNL     1       1.371   2.555  21.076  0.00  0.00    +0.000 OA
ATOM     22  H   UNL     1       1.270   2.718  22.024  0.00  0.00    +0.000 HD
ENDBRANCH   3  21
BRANCH   1  23
ATOM     23  C   UNL     1       5.496   4.168  18.913  0.00  0.00    +0.000 C 
BRANCH  23  24
ATOM     24  N   UNL     1       6.469   5.095  19.511  0.00  0.00    +0.000 NA
ATOM     25  H   UNL     1       5.950   5.696  20.155  0.00  0.00    +0.000 HD
BRANCH  24  26
ATOM     26  C   UNL     1       7.106   5.987  18.525  0.00  0.00    +0.000 C 
BRANCH  26  32
ATOM     27  C   UNL     1       5.015   6.803  16.341  0.00  0.00    +0.000 C 
ATOM     28  N   UNL     1       6.093   5.862  16.192  0.00  0.00    +0.000 N 
ATOM     29  C   UNL     1       6.394   5.174  15.057  0.00  0.00    +0.000 A 
ATOM     30  N   UNL     1       7.433   4.402  15.270  0.00  0.00    +0.000 NA
ATOM     31  N   UNL     1       7.814   4.574  16.576  0.00  0.00    +0.000 NA
ATOM     32  C   UNL     1       7.013   5.468  17.129  0.00  0.00    +0.000 A 
ENDBRANCH  26  32
ENDBRANCH  24  26
ENDBRANCH  23  24
ENDBRANCH   1  23
TORSDOF 7
ENDMDL
MODEL 5
REMARK VINA RESULT:      -8.7      1.353      1.708
REMARK  Name = 
REMARK  8 active torsions:
REMARK  status: ('A' for Active; 'I' for Inactive)
REMARK    1  A    between atoms: C_1  and  N_2
REMARK    2  A    between atoms: C_6  and  C_7
REMARK    3  A    between atoms: C_7  and  N_8
REMARK    4  A    between atoms: N_8  and  C_9
REMARK    5  A    between atoms: C_9  and  C_10
REMARK    6  A    between atoms: C_12  and  O_13
REMARK    7  A    between atoms: C_15  and  N_16
REMARK    8  A    between atoms: C_23  and  C_24
REMARK                            x       y       z     vdW  Elec       q    Type
REMARK                         _______ _______ _______ _____ _____    ______ ____
ROOT
ATOM      1  C   UNL     1       4.553   5.161  18.935  0.00  0.00    +0.000 A 
ATOM      2  C   UNL     1       3.868   4.149  18.254  0.00  0.00    +0.000 A 
ATOM      3  C   UNL     1       2.530   4.335  17.936  0.00  0.00    +0.000 A 
ATOM      4  C   UNL     1       1.867   5.512  18.268  0.00  0.00    +0.000 A 
ATOM      5  C   UNL     1       2.539   6.554  18.914  0.00  0.00    +0.000 A 
ATOM      6  C   UNL     1       3.888   6.360  19.241  0.00  0.00    +0.000 A 
ENDROOT
BRANCH   5   7
ATOM      7  N   UNL     1       1.892   7.772  19.240  0.00  0.00    +0.000 N 
ATOM      8  C   UNL     1       1.272   7.999  20.539  0.00  0.00    +0.000 C 
ATOM      9  C   UNL     1       0.778   9.404  20.449  0.00  0.00    +0.000 A 
ATOM     10  C   UNL     1       1.077   9.915  19.190  0.00  0.00    +0.000 A 
ATOM     11  C   UNL     1       0.735  11.191  18.791  0.00  0.00    +0.000 A 
ATOM     12  C   UNL     1       0.057  11.988  19.708  0.00  0.00    +0.000 A 
ATOM     13  C   UNL     1      -0.245  11.493  20.993  0.00  0.00    +0.000 A 
ATOM     14  C   UNL     1       0.114  10.188  21.388  0.00  0.00    +0.000 A 
ATOM     15  C   UNL     1       1.793   8.895  18.422  0.00  0.00    +0.000 C 
ATOM     16  O   UNL     1       2.176   9.106  17.286  0.00  0.00    +0.000 OA
BRANCH  14  17
ATOM     17  C   UNL     1      -0.206   9.700  22.777  0.00  0.00    +0.000 C 
ATOM     18  F   UNL     1       0.897   9.401  23.519  0.00  0.00    +0.000 F 
ATOM     19  F   UNL     1      -0.902  10.619  23.500  0.00  0.00    +0.000 F 
ATOM     20  F   UNL     1      -0.965   8.572  22.768  0.00  0.00    +0.000 F 
ENDBRANCH  14  17
ENDBRANCH   5   7
BRANCH   3  21
ATOM     21  O   UNL     1       1.812   3.365  17.295  0.00  0.00    +0.000 OA
ATOM     22  H   UNL     1       1.673   2.626  17.904  0.00  0.00    +0.000 HD
ENDBRANCH   3  21
BRANCH   1  23
ATOM     23  C   UNL     1       5.974   4.959  19.402  0.00  0.00    +0.000 C 
BRANCH  23  24
ATOM     24  N   UNL     1       6.789   4.218  18.427  0.00  0.00    +0.000 NA
ATOM     25  H   UNL     1       7.612   3.875  18.928  0.00  0.00    +0.000 HD
BRANCH  24  26
ATOM     26  C   UNL     1       7.289   5.060  17.326  0.00  0.00    +0.000 C 
BRANCH  26  32
ATOM     27  C   UNL     1       5.091   6.743  15.862  0.00  0.00    +0.000 C 
ATOM     28  N   UNL     1       5.691   5.521  15.398  0.00  0.00    +0.000 N 
ATOM     29  C   UNL     1       5.409   4.896  14.222  0.00  0.00    +0.000 A 
ATOM     30  N   UNL     1       6.133   3.807  14.115  0.00  0.00    +0.000 NA
ATOM     31  N   UNL     1       6.896   3.706  15.251  0.00  0.00    +0.000 NA
ATOM     32  C   UNL     1       6.639   4.751  16.019  0.00  0.00    +0.000 A 
ENDBRANCH  26  32
ENDBRANCH  24  26
ENDBRANCH  23  24
ENDBRANCH   1  23
TORSDOF 7
ENDMDL
MODEL 6
REMARK VINA RESULT:      -8.6      1.499      1.808
REMARK  Name = 
REMARK  8 active torsions:
REMARK  status: ('A' for Active; 'I' for Inactive)
REMARK    1  A    between atoms: C_1  and  N_2
REMARK    2  A    between atoms: C_6  and  C_7
REMARK    3  A    between atoms: C_7  and  N_8
REMARK    4  A    between atoms: N_8  and  C_9
REMARK    5  A    between atoms: C_9  and  C_10
REMARK    6  A    between atoms: C_12  and  O_13
REMARK    7  A    between atoms: C_15  and  N_16
REMARK    8  A    between atoms: C_23  and  C_24
REMARK                            x       y       z     vdW  Elec       q    Type
REMARK                         _______ _______ _______ _____ _____    ______ ____
ROOT
ATOM      1  C   UNL     1       4.538   4.640  19.029  0.00  0.00    +0.000 A 
ATOM      2  C   UNL     1       3.803   3.663  18.349  0.00  0.00    +0.000 A 
ATOM      3  C   UNL     1       2.491   3.934  17.988  0.00  0.00    +0.000 A 
ATOM      4  C   UNL     1       1.902   5.161  18.278  0.00  0.00    +0.000 A 
ATOM      5  C   UNL     1       2.627   6.168  18.921  0.00  0.00    +0.000 A 
ATOM      6  C   UNL     1       3.950   5.888  19.292  0.00  0.00    +0.000 A 
ENDROOT
BRANCH   5   7
ATOM      7  N   UNL     1       2.058   7.435  19.204  0.00  0.00    +0.000 N 
ATOM      8  C   UNL     1       1.414   7.730  20.478  0.00  0.00    +0.000 C 
ATOM      9  C   UNL     1       1.024   9.164  20.347  0.00  0.00    +0.000 A 
ATOM     10  C   UNL     1       1.398   9.628  19.090  0.00  0.00    +0.000 A 
ATOM     11  C   UNL     1       1.162  10.917  18.657  0.00  0.00    +0.000 A 
ATOM     12  C   UNL     1       0.512  11.778  19.538  0.00  0.00    +0.000 A 
ATOM     13  C   UNL     1       0.135  11.330  20.820  0.00  0.00    +0.000 A 
ATOM     14  C   UNL     1       0.387  10.012  21.249  0.00  0.00    +0.000 A 
ATOM     15  C   UNL     1       2.065   8.545  18.364  0.00  0.00    +0.000 C 
ATOM     16  O   UNL     1       2.499   8.707  17.238  0.00  0.00    +0.000 OA
BRANCH  14  17
ATOM     17  C   UNL     1      -0.011   9.575  22.635  0.00  0.00    +0.000 C 
ATOM     18  F   UNL     1       1.042   9.208  23.417  0.00  0.00    +0.000 F 
ATOM     19  F   UNL     1      -0.658  10.556  23.321  0.00  0.00    +0.000 F 
ATOM     20  F   UNL     1      -0.852   8.506  22.620  0.00  0.00    +0.000 F 
ENDBRANCH  14  17
ENDBRANCH   5   7
BRANCH   3  21
ATOM     21  O   UNL     1       1.725   3.002  17.346  0.00  0.00    +0.000 OA
ATOM     22  H   UNL     1       1.257   3.431  16.616  0.00  0.00    +0.000 HD
ENDBRANCH   3  21
BRANCH   1  23
ATOM     23  C   UNL     1       5.928   4.350  19.541  0.00  0.00    +0.000 C 
BRANCH  23  24
ATOM     24  N   UNL     1       6.881   5.425  19.227  0.00  0.00    +0.000 NA
ATOM     25  H   UNL     1       6.349   6.298  19.208  0.00  0.00    +0.000 HD
BRANCH  24  26
ATOM     26  C   UNL     1       7.503   5.284  17.898  0.00  0.00    +0.000 C 
BRANCH  26  32
ATOM     27  C   UNL     1       6.292   3.565  15.577  0.00  0.00    +0.000 C 
ATOM     28  N   UNL     1       6.092   4.971  15.801  0.00  0.00    +0.000 N 
ATOM     29  C   UNL     1       5.321   5.793  15.039  0.00  0.00    +0.000 A 
ATOM     30  N   UNL     1       5.363   7.012  15.521  0.00  0.00    +0.000 NA
ATOM     31  N   UNL     1       6.191   6.995  16.615  0.00  0.00    +0.000 NA
ATOM     32  C   UNL     1       6.619   5.757  16.793  0.00  0.00    +0.000 A 
ENDBRANCH  26  32
ENDBRANCH  24  26
ENDBRANCH  23  24
ENDBRANCH   1  23
TORSDOF 7
ENDMDL
MODEL 7
REMARK VINA RESULT:      -8.5      4.275      8.315
REMARK  Name = 
REMARK  8 active torsions:
REMARK  status: ('A' for Active; 'I' for Inactive)
REMARK    1  A    between atoms: C_1  and  N_2
REMARK    2  A    between atoms: C_6  and  C_7
REMARK    3  A    between atoms: C_7  and  N_8
REMARK    4  A    between atoms: N_8  and  C_9
REMARK    5  A    between atoms: C_9  and  C_10
REMARK    6  A    between atoms: C_12  and  O_13
REMARK    7  A    between atoms: C_15  and  N_16
REMARK    8  A    between atoms: C_23  and  C_24
REMARK                            x       y       z     vdW  Elec       q    Type
REMARK                         _______ _______ _______ _____ _____    ______ ____
ROOT
ATOM      1  C   UNL     1       0.435  10.596  20.176  0.00  0.00    +0.000 A 
ATOM      2  C   UNL     1       0.348  10.665  21.571  0.00  0.00    +0.000 A 
ATOM      3  C   UNL     1       0.779   9.585  22.329  0.00  0.00    +0.000 A 
ATOM      4  C   UNL     1       1.304   8.446  21.727  0.00  0.00    +0.000 A 
ATOM      5  C   UNL     1       1.437   8.367  20.338  0.00  0.00    +0.000 A 
ATOM      6  C   UNL     1       0.994   9.456  19.575  0.00  0.00    +0.000 A 
ENDROOT
BRANCH   5   7
ATOM      7  N   UNL     1       1.993   7.228  19.704  0.00  0.00    +0.000 N 
ATOM      8  C   UNL     1       1.697   5.872  20.146  0.00  0.00    +0.000 C 
ATOM      9  C   UNL     1       2.440   5.018  19.173  0.00  0.00    +0.000 A 
ATOM     10  C   UNL     1       3.118   5.834  18.273  0.00  0.00    +0.000 A 
ATOM     11  C   UNL     1       3.911   5.344  17.255  0.00  0.00    +0.000 A 
ATOM     12  C   UNL     1       4.026   3.961  17.144  0.00  0.00    +0.000 A 
ATOM     13  C   UNL     1       3.338   3.117  18.039  0.00  0.00    +0.000 A 
ATOM     14  C   UNL     1       2.529   3.633  19.072  0.00  0.00    +0.000 A 
ATOM     15  C   UNL     1       2.831   7.234  18.591  0.00  0.00    +0.000 C 
ATOM     16  O   UNL     1       3.300   8.145  17.936  0.00  0.00    +0.000 OA
BRANCH  14  17
ATOM     17  C   UNL     1       1.791   2.700  19.997  0.00  0.00    +0.000 C 
ATOM     18  F   UNL     1       0.478   3.022  20.166  0.00  0.00    +0.000 F 
ATOM     19  F   UNL     1       1.802   1.415  19.552  0.00  0.00    +0.000 F 
ATOM     20  F   UNL     1       2.331   2.673  21.245  0.00  0.00    +0.000 F 
ENDBRANCH  14  17
ENDBRANCH   5   7
BRANCH   3  21
ATOM     21  O   UNL     1       0.690   9.596  23.693  0.00  0.00    +0.000 OA
ATOM     22  H   UNL     1       1.535   9.893  24.058  0.00  0.00    +0.000 HD
ENDBRANCH   3  21
BRANCH   1  23
ATOM     23  C   UNL     1      -0.124  11.696  19.308  0.00  0.00    +0.000 C 
BRANCH  23  24
ATOM     24  N   UNL     1      -0.654  11.195  18.031  0.00  0.00    +0.000 NA
ATOM     25  H   UNL     1      -0.655  11.983  17.380  0.00  0.00    +0.000 HD
BRANCH  24  26
ATOM     26  C   UNL     1      -2.047  10.724  18.123  0.00  0.00    +0.000 C 
BRANCH  26  32
ATOM     27  C   UNL     1      -4.779  11.866  17.100  0.00  0.00    +0.000 C 
ATOM     28  N   UNL     1      -3.865  11.033  16.365  0.00  0.00    +0.000 N 
ATOM     29  C   UNL     1      -4.032  10.613  15.082  0.00  0.00    +0.000 A 
ATOM     30  N   UNL     1      -3.013   9.869  14.724  0.00  0.00    +0.000 NA
ATOM     31  N   UNL     1      -2.165   9.785  15.799  0.00  0.00    +0.000 NA
ATOM     32  C   UNL     1      -2.673  10.502  16.786  0.00  0.00    +0.000 A 
ENDBRANCH  26  32
ENDBRANCH  24  26
ENDBRANCH  23  24
ENDBRANCH   1  23
TORSDOF 7
ENDMDL
MODEL 8
REMARK VINA RESULT:      -8.5      1.787      2.495
REMARK  Name = 
REMARK  8 active torsions:
REMARK  status: ('A' for Active; 'I' for Inactive)
REMARK    1  A    between atoms: C_1  and  N_2
REMARK    2  A    between atoms: C_6  and  C_7
REMARK    3  A    between atoms: C_7  and  N_8
REMARK    4  A    between atoms: N_8  and  C_9
REMARK    5  A    between atoms: C_9  and  C_10
REMARK    6  A    between atoms: C_12  and  O_13
REMARK    7  A    between atoms: C_15  and  N_16
REMARK    8  A    between atoms: C_23  and  C_24
REMARK                            x       y       z     vdW  Elec       q    Type
REMARK                         _______ _______ _______ _____ _____    ______ ____
ROOT
ATOM      1  C   UNL     1       2.489   3.253  18.737  0.00  0.00    +0.000 A 
ATOM      2  C   UNL     1       2.561   2.562  19.951  0.00  0.00    +0.000 A 
ATOM      3  C   UNL     1       2.390   3.260  21.138  0.00  0.00    +0.000 A 
ATOM      4  C   UNL     1       2.135   4.628  21.140  0.00  0.00    +0.000 A 
ATOM      5  C   UNL     1       2.019   5.334  19.940  0.00  0.00    +0.000 A 
ATOM      6  C   UNL     1       2.201   4.628  18.743  0.00  0.00    +0.000 A 
ENDROOT
BRANCH   5   7
ATOM      7  N   UNL     1       1.735   6.723  19.914  0.00  0.00    +0.000 N 
ATOM      8  C   UNL     1       1.091   7.404  21.030  0.00  0.00    +0.000 C 
ATOM      9  C   UNL     1       1.046   8.829  20.590  0.00  0.00    +0.000 A 
ATOM     10  C   UNL     1       1.599   8.933  19.318  0.00  0.00    +0.000 A 
ATOM     11  C   UNL     1       1.690  10.124  18.627  0.00  0.00    +0.000 A 
ATOM     12  C   UNL     1       1.196  11.265  19.252  0.00  0.00    +0.000 A 
ATOM     13  C   UNL     1       0.643  11.183  20.545  0.00  0.00    +0.000 A 
ATOM     14  C   UNL     1       0.560   9.959  21.240  0.00  0.00    +0.000 A 
ATOM     15  C   UNL     1       2.050   7.608  18.886  0.00  0.00    +0.000 C 
ATOM     16  O   UNL     1       2.583   7.438  17.805  0.00  0.00    +0.000 OA
BRANCH  14  17
ATOM     17  C   UNL     1      -0.019   9.913  22.631  0.00  0.00    +0.000 C 
ATOM     18  F   UNL     1       0.869   9.504  23.580  0.00  0.00    +0.000 F 
ATOM     19  F   UNL     1      -0.468  11.129  23.044  0.00  0.00    +0.000 F 
ATOM     20  F   UNL     1      -1.078   9.066  22.724  0.00  0.00    +0.000 F 
ENDBRANCH  14  17
ENDBRANCH   5   7
BRANCH   3  21
ATOM     21  O   UNL     1       2.478   2.632  22.349  0.00  0.00    +0.000 OA
ATOM     22  H   UNL     1       1.906   3.092  22.981  0.00  0.00    +0.000 HD
ENDBRANCH   3  21
BRANCH   1  23
ATOM     23  C   UNL     1       2.781   2.559  17.430  0.00  0.00    +0.000 C 
BRANCH  23  24
ATOM     24  N   UNL     1       4.217   2.524  17.117  0.00  0.00    +0.000 NA
ATOM     25  H   UNL     1       4.705   2.297  17.987  0.00  0.00    +0.000 HD
BRANCH  24  26
ATOM     26  C   UNL     1       4.748   3.822  16.665  0.00  0.00    +0.000 C 
BRANCH  26  32
ATOM     27  C   UNL     1       7.444   5.128  15.751  0.00  0.00    +0.000 C 
ATOM     28  N   UNL     1       7.004   4.920  17.104  0.00  0.00    +0.000 N 
ATOM     29  C   UNL     1       7.690   5.276  18.224  0.00  0.00    +0.000 A 
ATOM     30  N   UNL     1       7.003   4.939  19.289  0.00  0.00    +0.000 NA
ATOM     31  N   UNL     1       5.848   4.334  18.861  0.00  0.00    +0.000 NA
ATOM     32  C   UNL     1       5.842   4.337  17.539  0.00  0.00    +0.000 A 
ENDBRANCH  26  32
ENDBRANCH  24  26
ENDBRANCH  23  24
ENDBRANCH   1  23
TORSDOF 7
ENDMDL
MODEL 9
REMARK VINA RESULT:      -8.4      3.269      5.236
REMARK  Name = 
REMARK  8 active torsions:
REMARK  status: ('A' for Active; 'I' for Inactive)
REMARK    1  A    between atoms: C_1  and  N_2
REMARK    2  A    between atoms: C_6  and  C_7
REMARK    3  A    between atoms: C_7  and  N_8
REMARK    4  A    between atoms: N_8  and  C_9
REMARK    5  A    between atoms: C_9  and  C_10
REMARK    6  A    between atoms: C_12  and  O_13
REMARK    7  A    between atoms: C_15  and  N_16
REMARK    8  A    between atoms: C_23  and  C_24
REMARK                            x       y       z     vdW  Elec       q    Type
REMARK                         _______ _______ _______ _____ _____    ______ ____
ROOT
ATOM      1  C   UNL     1       3.523   4.740  17.375  0.00  0.00    +0.000 A 
ATOM      2  C   UNL     1       4.596   5.283  16.660  0.00  0.00    +0.000 A 
ATOM      3  C   UNL     1       4.837   6.648  16.737  0.00  0.00    +0.000 A 
ATOM      4  C   UNL     1       4.042   7.478  17.521  0.00  0.00    +0.000 A 
ATOM      5  C   UNL     1       2.988   6.954  18.275  0.00  0.00    +0.000 A 
ATOM      6  C   UNL     1       2.742   5.577  18.190  0.00  0.00    +0.000 A 
ENDROOT
BRANCH   5   7
ATOM      7  N   UNL     1       2.180   7.776  19.101  0.00  0.00    +0.000 N 
ATOM      8  C   UNL     1       1.650   9.053  18.644  0.00  0.00    +0.000 C 
ATOM      9  C   UNL     1       0.833   9.526  19.801  0.00  0.00    +0.000 A 
ATOM     10  C   UNL     1       0.920   8.595  20.832  0.00  0.00    +0.000 A 
ATOM     11  C   UNL     1       0.284   8.752  22.047  0.00  0.00    +0.000 A 
ATOM     12  C   UNL     1      -0.474   9.905  22.229  0.00  0.00    +0.000 A 
ATOM     13  C   UNL     1      -0.583  10.854  21.192  0.00  0.00    +0.000 A 
ATOM     14  C   UNL     1       0.069  10.679  19.955  0.00  0.00    +0.000 A 
ATOM     15  C   UNL     1       1.759   7.479  20.395  0.00  0.00    +0.000 C 
ATOM     16  O   UNL     1       1.978   6.526  21.120  0.00  0.00    +0.000 OA
BRANCH  14  17
ATOM     17  C   UNL     1      -0.088  11.703  18.862  0.00  0.00    +0.000 C 
ATOM     18  F   UNL     1       1.096  12.172  18.375  0.00  0.00    +0.000 F 
ATOM     19  F   UNL     1      -0.762  11.213  17.786  0.00  0.00    +0.000 F 
ATOM     20  F   UNL     1      -0.780  12.799  19.274  0.00  0.00    +0.000 F 
ENDBRANCH  14  17
ENDBRANCH   5   7
BRANCH   3  21
ATOM     21  O   UNL     1       5.857   7.228  16.036  0.00  0.00    +0.000 OA
ATOM     22  H   UNL     1       5.636   7.212  15.094  0.00  0.00    +0.000 HD
ENDBRANCH   3  21
BRANCH   1  23
ATOM     23  C   UNL     1       3.153   3.284  17.234  0.00  0.00    +0.000 C 
BRANCH  23  24
ATOM     24  N   UNL     1       4.097   2.392  17.923  0.00  0.00    +0.000 NA
ATOM     25  H   UNL     1       4.551   1.826  17.202  0.00  0.00    +0.000 HD
BRANCH  24  26
ATOM     26  C   UNL     1       3.440   1.448  18.845  0.00  0.00    +0.000 C 
BRANCH  26  32
ATOM     27  C   UNL     1       0.489   2.465  19.108  0.00  0.00    +0.000 C 
ATOM     28  N   UNL     1       1.518   2.542  20.109  0.00  0.00    +0.000 N 
ATOM     29  C   UNL     1       1.372   3.062  21.358  0.00  0.00    +0.000 A 
ATOM     30  N   UNL     1       2.507   2.977  22.009  0.00  0.00    +0.000 NA
ATOM     31  N   UNL     1       3.424   2.401  21.166  0.00  0.00    +0.000 NA
ATOM     32  C   UNL     1       2.821   2.125  20.022  0.00  0.00    +0.000 A 
ENDBRANCH  26  32
ENDBRANCH  24  26
ENDBRANCH  23  24
ENDBRANCH   1  23
TORSDOF 7
ENDMDL
