MODEL 1
REMARK VINA RESULT:      -7.8      0.000      0.000
REMARK  Name = 
REMARK  10 active torsions:
REMARK  status: ('A' for Active; 'I' for Inactive)
REMARK    1  A    between atoms: C_1  and  C_2
REMARK    2  A    between atoms: C_3  and  C_4
REMARK    3  A    between atoms: C_5  and  C_6
REMARK    4  A    between atoms: C_6  and  N_7
REMARK    5  A    between atoms: N_7  and  C_8
REMARK    6  A    between atoms: C_8  and  C_9
REMARK    7  A    between atoms: N_12  and  C_13
REMARK    8  A    between atoms: C_13  and  C_14
REMARK    9  A    between atoms: N_24  and  C_25
REMARK   10  A    between atoms: N_28  and  C_29
REMARK                            x       y       z     vdW  Elec       q    Type
REMARK                         _______ _______ _______ _____ _____    ______ ____
ROOT
ATOM      1  C   UNL     1       0.824   9.705  21.256  0.00  0.00    +0.000 C 
ENDROOT
BRANCH   1   3
ATOM      2  C   UNL     1      -0.237  11.512  19.862  0.00  0.00    +0.000 C 
ATOM      3  C   UNL     1       0.252  10.059  19.874  0.00  0.00    +0.000 C 
ATOM      4  C   UNL     1       1.295   9.968  18.754  0.00  0.00    +0.000 C 
ATOM      5  C   UNL     1       1.678  11.391  18.483  0.00  0.00    +0.000 C 
ATOM      6  O   UNL     1       2.665  11.731  17.864  0.00  0.00    +0.000 OA
ATOM      7  N   UNL     1       0.708  12.214  19.016  0.00  0.00    +0.000 N 
ATOM      8  C   UNL     1       0.825  13.656  19.006  0.00  0.00    +0.000 C 
BRANCH   2  11
ATOM      9  C   UNL     1      -1.843  10.236  17.211  0.00  0.00    +0.000 C 
ATOM     10  C   UNL     1      -2.315  11.105  18.316  0.00  0.00    +0.000 A 
ATOM     11  C   UNL     1      -1.655  11.635  19.412  0.00  0.00    +0.000 A 
ATOM     12  C   UNL     1      -2.679  12.309  20.124  0.00  0.00    +0.000 A 
ATOM     13  N   UNL     1      -3.857  12.273  19.509  0.00  0.00    +0.000 NA
ATOM     14  N   UNL     1      -3.604  11.581  18.386  0.00  0.00    +0.000 N 
ATOM     15  C   UNL     1      -4.628  11.483  17.370  0.00  0.00    +0.000 C 
ENDBRANCH   2  11
ENDBRANCH   1   3
BRANCH   1  16
ATOM     16  N   UNL     1       1.717   8.564  21.126  0.00  0.00    +0.000 NA
ATOM     17  H   UNL     1       2.432   8.562  21.851  0.00  0.00    +0.000 HD
BRANCH  16  18
ATOM     18  C   UNL     1       1.010   7.299  21.210  0.00  0.00    +0.000 C 
BRANCH  18  19
ATOM     19  C   UNL     1       1.832   6.311  20.454  0.00  0.00    +0.000 A 
ATOM     20  C   UNL     1       2.132   4.980  20.856  0.00  0.00    +0.000 A 
ATOM     21  C   UNL     1       2.919   4.416  19.878  0.00  0.00    +0.000 A 
ATOM     22  N   UNL     1       3.102   5.347  18.888  0.00  0.00    +0.000 N 
ATOM     23  C   UNL     1       2.417   6.490  19.212  0.00  0.00    +0.000 A 
BRANCH  22  24
ATOM     24  C   UNL     1       3.976   5.192  17.733  0.00  0.00    +0.000 C 
BRANCH  24  25
ATOM     25  C   UNL     1       5.345   5.773  17.970  0.00  0.00    +0.000 A 
ATOM     26  C   UNL     1       5.809   6.848  17.200  0.00  0.00    +0.000 A 
ATOM     27  C   UNL     1       7.083   7.376  17.415  0.00  0.00    +0.000 A 
ATOM     28  C   UNL     1       7.906   6.834  18.400  0.00  0.00    +0.000 A 
ATOM     29  C   UNL     1       7.456   5.766  19.173  0.00  0.00    +0.000 A 
ATOM     30  C   UNL     1       6.183   5.236  18.958  0.00  0.00    +0.000 A 
ENDBRANCH  24  25
ENDBRANCH  22  24
ENDBRANCH  18  19
ENDBRANCH  16  18
ENDBRANCH   1  16
TORSDOF 7
ENDMDL
MODEL 2
REMARK VINA RESULT:      -7.7      2.426      9.026
REMARK  Name = 
REMARK  10 active torsions:
REMARK  status: ('A' for Active; 'I' for Inactive)
REMARK    1  A    between atoms: C_1  and  C_2
REMARK    2  A    between atoms: C_3  and  C_4
REMARK    3  A    between atoms: C_5  and  C_6
REMARK    4  A    between atoms: C_6  and  N_7
REMARK    5  A    between atoms: N_7  and  C_8
REMARK    6  A    between atoms: C_8  and  C_9
REMARK    7  A    between atoms: N_12  and  C_13
REMARK    8  A    between atoms: C_13  and  C_14
REMARK    9  A    between atoms: N_24  and  C_25
REMARK   10  A    between atoms: N_28  and  C_29
REMARK                            x       y       z     vdW  Elec       q    Type
REMARK                         _______ _______ _______ _____ _____    ______ ____
ROOT
ATOM      1  C   UNL     1       1.770   5.818  20.715  0.00  0.00    +0.000 C 
ENDROOT
BRANCH   1   3
ATOM      2  C   UNL     1       3.673   4.752  19.460  0.00  0.00    +0.000 C 
ATOM      3  C   UNL     1       2.242   5.292  19.350  0.00  0.00    +0.000 C 
ATOM      4  C   UNL     1       1.399   4.119  18.836  0.00  0.00    +0.000 C 
ATOM      5  C   UNL     1       2.238   2.907  19.110  0.00  0.00    +0.000 C 
ATOM      6  O   UNL     1       1.821   1.768  19.103  0.00  0.00    +0.000 OA
ATOM      7  N   UNL     1       3.538   3.315  19.324  0.00  0.00    +0.000 N 
ATOM      8  C   UNL     1       4.585   2.392  19.706  0.00  0.00    +0.000 C 
BRANCH   2  11
ATOM      9  C   UNL     1       6.950   5.447  19.597  0.00  0.00    +0.000 C 
ATOM     10  C   UNL     1       5.950   5.652  18.521  0.00  0.00    +0.000 A 
ATOM     11  C   UNL     1       4.596   5.367  18.461  0.00  0.00    +0.000 A 
ATOM     12  C   UNL     1       4.238   5.729  17.138  0.00  0.00    +0.000 A 
ATOM     13  N   UNL     1       5.244   6.258  16.447  0.00  0.00    +0.000 NA
ATOM     14  N   UNL     1       6.263   6.251  17.322  0.00  0.00    +0.000 N 
ATOM     15  C   UNL     1       7.499   6.915  16.973  0.00  0.00    +0.000 C 
ENDBRANCH   2  11
ENDBRANCH   1   3
BRANCH   1  16
ATOM     16  N   UNL     1       2.055   7.243  20.802  0.00  0.00    +0.000 NA
ATOM     17  H   UNL     1       2.993   7.416  21.161  0.00  0.00    +0.000 HD
BRANCH  16  18
ATOM     18  C   UNL     1       1.953   7.904  19.514  0.00  0.00    +0.000 C 
BRANCH  18  19
ATOM     19  C   UNL     1       1.048   9.071  19.716  0.00  0.00    +0.000 A 
ATOM     20  C   UNL     1       0.295   9.362  20.886  0.00  0.00    +0.000 A 
ATOM     21  C   UNL     1      -0.408  10.522  20.653  0.00  0.00    +0.000 A 
ATOM     22  N   UNL     1      -0.105  10.958  19.389  0.00  0.00    +0.000 N 
ATOM     23  C   UNL     1       0.806  10.103  18.824  0.00  0.00    +0.000 A 
BRANCH  22  24
ATOM     24  C   UNL     1      -0.732  12.083  18.709  0.00  0.00    +0.000 C 
BRANCH  24  25
ATOM     25  C   UNL     1      -2.106  11.745  18.193  0.00  0.00    +0.000 A 
ATOM     26  C   UNL     1      -3.242  11.973  18.983  0.00  0.00    +0.000 A 
ATOM     27  C   UNL     1      -4.513  11.647  18.506  0.00  0.00    +0.000 A 
ATOM     28  C   UNL     1      -4.661  11.090  17.238  0.00  0.00    +0.000 A 
ATOM     29  C   UNL     1      -3.540  10.860  16.443  0.00  0.00    +0.000 A 
ATOM     30  C   UNL     1      -2.268  11.184  16.918  0.00  0.00    +0.000 A 
ENDBRANCH  24  25
ENDBRANCH  22  24
ENDBRANCH  18  19
ENDBRANCH  16  18
ENDBRANCH   1  16
TORSDOF 7
ENDMDL
MODEL 3
REMARK VINA RESULT:      -7.6      2.609      9.215
REMARK  Name = 
REMARK  10 active torsions:
REMARK  status: ('A' for Active; 'I' for Inactive)
REMARK    1  A    between atoms: C_1  and  C_2
REMARK    2  A    between atoms: C_3  and  C_4
REMARK    3  A    between atoms: C_5  and  C_6
REMARK    4  A    between atoms: C_6  and  N_7
REMARK    5  A    between atoms: N_7  and  C_8
REMARK    6  A    between atoms: C_8  and  C_9
REMARK    7  A    between atoms: N_12  and  C_13
REMARK    8  A    between atoms: C_13  and  C_14
REMARK    9  A    between atoms: N_24  and  C_25
REMARK   10  A    between atoms: N_28  and  C_29
REMARK                            x       y       z     vdW  Elec       q    Type
REMARK                         _______ _______ _______ _____ _____    ______ ____
ROOT
ATOM      1  C   UNL     1       2.370   5.281  20.849  0.00  0.00    +0.000 C 
ENDROOT
BRANCH   1   3
ATOM      2  C   UNL     1       3.839   3.868  19.372  0.00  0.00    +0.000 C 
ATOM      3  C   UNL     1       2.779   4.977  19.400  0.00  0.00    +0.000 C 
ATOM      4  C   UNL     1       1.617   4.455  18.547  0.00  0.00    +0.000 C 
ATOM      5  C   UNL     1       1.846   2.976  18.467  0.00  0.00    +0.000 C 
ATOM      6  O   UNL     1       1.010   2.169  18.116  0.00  0.00    +0.000 OA
ATOM      7  N   UNL     1       3.155   2.717  18.816  0.00  0.00    +0.000 N 
ATOM      8  C   UNL     1       3.674   1.371  18.928  0.00  0.00    +0.000 C 
BRANCH   2  11
ATOM      9  C   UNL     1       4.403   4.218  16.086  0.00  0.00    +0.000 C 
ATOM     10  C   UNL     1       5.292   4.409  17.258  0.00  0.00    +0.000 A 
ATOM     11  C   UNL     1       5.063   4.265  18.617  0.00  0.00    +0.000 A 
ATOM     12  C   UNL     1       6.287   4.670  19.205  0.00  0.00    +0.000 A 
ATOM     13  N   UNL     1       7.225   4.973  18.313  0.00  0.00    +0.000 NA
ATOM     14  N   UNL     1       6.617   4.758  17.134  0.00  0.00    +0.000 N 
ATOM     15  C   UNL     1       7.393   4.824  15.916  0.00  0.00    +0.000 C 
ENDBRANCH   2  11
ENDBRANCH   1   3
BRANCH   1  16
ATOM     16  N   UNL     1       1.549   6.482  20.872  0.00  0.00    +0.000 NA
ATOM     17  H   UNL     1       1.413   6.825  21.821  0.00  0.00    +0.000 HD
BRANCH  16  18
ATOM     18  C   UNL     1       2.133   7.563  20.098  0.00  0.00    +0.000 C 
BRANCH  18  19
ATOM     19  C   UNL     1       1.186   8.710  20.204  0.00  0.00    +0.000 A 
ATOM     20  C   UNL     1       0.300   8.975  21.284  0.00  0.00    +0.000 A 
ATOM     21  C   UNL     1      -0.396  10.122  20.979  0.00  0.00    +0.000 A 
ATOM     22  N   UNL     1       0.038  10.576  19.761  0.00  0.00    +0.000 N 
ATOM     23  C   UNL     1       1.025   9.744  19.297  0.00  0.00    +0.000 A 
BRANCH  22  24
ATOM     24  C   UNL     1      -0.532  11.694  19.021  0.00  0.00    +0.000 C 
BRANCH  24  25
ATOM     25  C   UNL     1      -1.894  11.375  18.465  0.00  0.00    +0.000 A 
ATOM     26  C   UNL     1      -2.042  10.449  17.424  0.00  0.00    +0.000 A 
ATOM     27  C   UNL     1      -3.306  10.165  16.902  0.00  0.00    +0.000 A 
ATOM     28  C   UNL     1      -4.432  10.805  17.415  0.00  0.00    +0.000 A 
ATOM     29  C   UNL     1      -4.298  11.727  18.451  0.00  0.00    +0.000 A 
ATOM     30  C   UNL     1      -3.036  12.013  18.972  0.00  0.00    +0.000 A 
ENDBRANCH  24  25
ENDBRANCH  22  24
ENDBRANCH  18  19
ENDBRANCH  16  18
ENDBRANCH   1  16
TORSDOF 7
ENDMDL
MODEL 4
REMARK VINA RESULT:      -7.6      1.002      1.737
REMARK  Name = 
REMARK  10 active torsions:
REMARK  status: ('A' for Active; 'I' for Inactive)
REMARK    1  A    between atoms: C_1  and  C_2
REMARK    2  A    between atoms: C_3  and  C_4
REMARK    3  A    between atoms: C_5  and  C_6
REMARK    4  A    between atoms: C_6  and  N_7
REMARK    5  A    between atoms: N_7  and  C_8
REMARK    6  A    between atoms: C_8  and  C_9
REMARK    7  A    between atoms: N_12  and  C_13
REMARK    8  A    between atoms: C_13  and  C_14
REMARK    9  A    between atoms: N_24  and  C_25
REMARK   10  A    between atoms: N_28  and  C_29
REMARK                            x       y       z     vdW  Elec       q    Type
REMARK                         _______ _______ _______ _____ _____    ______ ____
ROOT
ATOM      1  C   UNL     1      -0.128   9.403  20.381  0.00  0.00    +0.000 C 
ENDROOT
BRANCH   1   3
ATOM      2  C   UNL     1      -1.292  11.434  19.456  0.00  0.00    +0.000 C 
ATOM      3  C   UNL     1      -0.398  10.235  19.117  0.00  0.00    +0.000 C 
ATOM      4  C   UNL     1       0.877  10.833  18.510  0.00  0.00    +0.000 C 
ATOM      5  C   UNL     1       0.857  12.270  18.938  0.00  0.00    +0.000 C 
ATOM      6  O   UNL     1       1.816  13.012  18.896  0.00  0.00    +0.000 OA
ATOM      7  N   UNL     1      -0.424  12.589  19.337  0.00  0.00    +0.000 N 
ATOM      8  C   UNL     1      -0.761  13.880  19.896  0.00  0.00    +0.000 C 
BRANCH   2  11
ATOM      9  C   UNL     1      -4.381  12.588  20.063  0.00  0.00    +0.000 C 
ATOM     10  C   UNL     1      -3.783  11.982  18.849  0.00  0.00    +0.000 A 
ATOM     11  C   UNL     1      -2.509  11.503  18.594  0.00  0.00    +0.000 A 
ATOM     12  C   UNL     1      -2.560  11.131  17.228  0.00  0.00    +0.000 A 
ATOM     13  N   UNL     1      -3.763  11.289  16.684  0.00  0.00    +0.000 NA
ATOM     14  N   UNL     1      -4.507  11.758  17.700  0.00  0.00    +0.000 N 
ATOM     15  C   UNL     1      -5.935  11.893  17.526  0.00  0.00    +0.000 C 
ENDBRANCH   2  11
ENDBRANCH   1   3
BRANCH   1  16
ATOM     16  N   UNL     1       1.226   8.874  20.323  0.00  0.00    +0.000 NA
ATOM     17  H   UNL     1       1.915   9.576  20.591  0.00  0.00    +0.000 HD
BRANCH  16  18
ATOM     18  C   UNL     1       1.408   7.731  21.200  0.00  0.00    +0.000 C 
BRANCH  18  19
ATOM     19  C   UNL     1       1.951   6.635  20.348  0.00  0.00    +0.000 A 
ATOM     20  C   UNL     1       1.741   5.241  20.531  0.00  0.00    +0.000 A 
ATOM     21  C   UNL     1       2.421   4.582  19.533  0.00  0.00    +0.000 A 
ATOM     22  N   UNL     1       3.028   5.519  18.738  0.00  0.00    +0.000 N 
ATOM     23  C   UNL     1       2.721   6.771  19.204  0.00  0.00    +0.000 A 
BRANCH  22  24
ATOM     24  C   UNL     1       3.947   5.234  17.644  0.00  0.00    +0.000 C 
BRANCH  24  25
ATOM     25  C   UNL     1       5.336   5.747  17.915  0.00  0.00    +0.000 A 
ATOM     26  C   UNL     1       6.104   5.213  18.959  0.00  0.00    +0.000 A 
ATOM     27  C   UNL     1       7.387   5.701  19.216  0.00  0.00    +0.000 A 
ATOM     28  C   UNL     1       7.914   6.726  18.433  0.00  0.00    +0.000 A 
ATOM     29  C   UNL     1       7.160   7.264  17.392  0.00  0.00    +0.000 A 
ATOM     30  C   UNL     1       5.877   6.780  17.135  0.00  0.00    +0.000 A 
ENDBRANCH  24  25
ENDBRANCH  22  24
ENDBRANCH  18  19
ENDBRANCH  16  18
ENDBRANCH   1  16
TORSDOF 7
ENDMDL
MODEL 5
REMARK VINA RESULT:      -7.5      2.575      9.063
REMARK  Name = 
REMARK  10 active torsions:
REMARK  status: ('A' for Active; 'I' for Inactive)
REMARK    1  A    between atoms: C_1  and  C_2
REMARK    2  A    between atoms: C_3  and  C_4
REMARK    3  A    between atoms: C_5  and  C_6
REMARK    4  A    between atoms: C_6  and  N_7
REMARK    5  A    between atoms: N_7  and  C_8
REMARK    6  A    between atoms: C_8  and  C_9
REMARK    7  A    between atoms: N_12  and  C_13
REMARK    8  A    between atoms: C_13  and  C_14
REMARK    9  A    between atoms: N_24  and  C_25
REMARK   10  A    between atoms: N_28  and  C_29
REMARK                            x       y       z     vdW  Elec       q    Type
REMARK                         _______ _______ _______ _____ _____    ______ ____
ROOT
ATOM      1  C   UNL     1       1.839   5.894  20.421  0.00  0.00    +0.000 C 
ENDROOT
BRANCH   1   3
ATOM      2  C   UNL     1       3.664   4.399  19.543  0.00  0.00    +0.000 C 
ATOM      3  C   UNL     1       2.432   5.232  19.167  0.00  0.00    +0.000 C 
ATOM      4  C   UNL     1       1.464   4.252  18.493  0.00  0.00    +0.000 C 
ATOM      5  C   UNL     1       1.951   2.898  18.912  0.00  0.00    +0.000 C 
ATOM      6  O   UNL     1       1.304   1.876  18.816  0.00  0.00    +0.000 OA
ATOM      7  N   UNL     1       3.245   3.022  19.372  0.00  0.00    +0.000 N 
ATOM      8  C   UNL     1       3.974   1.908  19.939  0.00  0.00    +0.000 C 
BRANCH   2  11
ATOM      9  C   UNL     1       4.392   3.961  16.300  0.00  0.00    +0.000 C 
ATOM     10  C   UNL     1       5.165   4.584  17.401  0.00  0.00    +0.000 A 
ATOM     11  C   UNL     1       4.869   4.766  18.742  0.00  0.00    +0.000 A 
ATOM     12  C   UNL     1       5.982   5.491  19.234  0.00  0.00    +0.000 A 
ATOM     13  N   UNL     1       6.926   5.690  18.319  0.00  0.00    +0.000 NA
ATOM     14  N   UNL     1       6.434   5.086  17.224  0.00  0.00    +0.000 N 
ATOM     15  C   UNL     1       7.273   4.949  16.055  0.00  0.00    +0.000 C 
ENDBRANCH   2  11
ENDBRANCH   1   3
BRANCH   1  16
ATOM     16  N   UNL     1       2.035   7.333  20.339  0.00  0.00    +0.000 NA
ATOM     17  H   UNL     1       1.547   7.733  19.539  0.00  0.00    +0.000 HD
BRANCH  16  18
ATOM     18  C   UNL     1       1.559   8.022  21.526  0.00  0.00    +0.000 C 
BRANCH  18  19
ATOM     19  C   UNL     1       0.744   9.172  21.042  0.00  0.00    +0.000 A 
ATOM     20  C   UNL     1      -0.278   9.845  21.765  0.00  0.00    +0.000 A 
ATOM     21  C   UNL     1      -0.777  10.839  20.954  0.00  0.00    +0.000 A 
ATOM     22  N   UNL     1      -0.091  10.808  19.768  0.00  0.00    +0.000 N 
ATOM     23  C   UNL     1       0.860   9.821  19.824  0.00  0.00    +0.000 A 
BRANCH  22  24
ATOM     24  C   UNL     1      -0.395  11.613  18.593  0.00  0.00    +0.000 C 
BRANCH  24  25
ATOM     25  C   UNL     1      -1.755  11.304  18.025  0.00  0.00    +0.000 A 
ATOM     26  C   UNL     1      -2.898  11.956  18.510  0.00  0.00    +0.000 A 
ATOM     27  C   UNL     1      -4.158  11.657  17.989  0.00  0.00    +0.000 A 
ATOM     28  C   UNL     1      -4.289  10.705  16.980  0.00  0.00    +0.000 A 
ATOM     29  C   UNL     1      -3.160  10.051  16.489  0.00  0.00    +0.000 A 
ATOM     30  C   UNL     1      -1.900  10.347  17.010  0.00  0.00    +0.000 A 
ENDBRANCH  24  25
ENDBRANCH  22  24
ENDBRANCH  18  19
ENDBRANCH  16  18
ENDBRANCH   1  16
TORSDOF 7
ENDMDL
MODEL 6
REMARK VINA RESULT:      -7.5      2.433      8.828
REMARK  Name = 
REMARK  10 active torsions:
REMARK  status: ('A' for Active; 'I' for Inactive)
REMARK    1  A    between atoms: C_1  and  C_2
REMARK    2  A    between atoms: C_3  and  C_4
REMARK    3  A    between atoms: C_5  and  C_6
REMARK    4  A    between atoms: C_6  and  N_7
REMARK    5  A    between atoms: N_7  and  C_8
REMARK    6  A    between atoms: C_8  and  C_9
REMARK    7  A    between atoms: N_12  and  C_13
REMARK    8  A    between atoms: C_13  and  C_14
REMARK    9  A    between atoms: N_24  and  C_25
REMARK   10  A    between atoms: N_28  and  C_29
REMARK                            x       y       z     vdW  Elec       q    Type
REMARK                         _______ _______ _______ _____ _____    ______ ____
ROOT
ATOM      1  C   UNL     1       1.619   5.975  20.463  0.00  0.00    +0.000 C 
ENDROOT
BRANCH   1   3
ATOM      2  C   UNL     1       3.650   4.964  19.375  0.00  0.00    +0.000 C 
ATOM      3  C   UNL     1       2.204   5.423  19.154  0.00  0.00    +0.000 C 
ATOM      4  C   UNL     1       1.456   4.189  18.636  0.00  0.00    +0.000 C 
ATOM      5  C   UNL     1       2.335   3.034  19.012  0.00  0.00    +0.000 C 
ATOM      6  O   UNL     1       1.977   1.875  19.025  0.00  0.00    +0.000 OA
ATOM      7  N   UNL     1       3.596   3.517  19.290  0.00  0.00    +0.000 N 
ATOM      8  C   UNL     1       4.661   2.666  19.775  0.00  0.00    +0.000 C 
BRANCH   2  11
ATOM      9  C   UNL     1       6.965   5.445  19.529  0.00  0.00    +0.000 C 
ATOM     10  C   UNL     1       5.974   5.784  18.479  0.00  0.00    +0.000 A 
ATOM     11  C   UNL     1       4.604   5.588  18.412  0.00  0.00    +0.000 A 
ATOM     12  C   UNL     1       4.263   6.062  17.121  0.00  0.00    +0.000 A 
ATOM     13  N   UNL     1       5.296   6.574  16.459  0.00  0.00    +0.000 NA
ATOM     14  N   UNL     1       6.317   6.444  17.321  0.00  0.00    +0.000 N 
ATOM     15  C   UNL     1       7.590   7.053  17.007  0.00  0.00    +0.000 C 
ENDBRANCH   2  11
ENDBRANCH   1   3
BRANCH   1  16
ATOM     16  N   UNL     1       1.957   7.385  20.581  0.00  0.00    +0.000 NA
ATOM     17  H   UNL     1       1.656   7.913  19.763  0.00  0.00    +0.000 HD
BRANCH  16  18
ATOM     18  C   UNL     1       1.346   8.002  21.745  0.00  0.00    +0.000 C 
BRANCH  18  19
ATOM     19  C   UNL     1       0.710   9.261  21.263  0.00  0.00    +0.000 A 
ATOM     20  C   UNL     1       0.015  10.213  22.058  0.00  0.00    +0.000 A 
ATOM     21  C   UNL     1      -0.416  11.219  21.223  0.00  0.00    +0.000 A 
ATOM     22  N   UNL     1      -0.002  10.924  19.950  0.00  0.00    +0.000 N 
ATOM     23  C   UNL     1       0.713   9.755  19.969  0.00  0.00    +0.000 A 
BRANCH  22  24
ATOM     24  C   UNL     1      -0.359  11.670  18.751  0.00  0.00    +0.000 C 
BRANCH  24  25
ATOM     25  C   UNL     1      -1.708  11.273  18.212  0.00  0.00    +0.000 A 
ATOM     26  C   UNL     1      -1.825  10.241  17.270  0.00  0.00    +0.000 A 
ATOM     27  C   UNL     1      -3.077   9.885  16.763  0.00  0.00    +0.000 A 
ATOM     28  C   UNL     1      -4.220  10.555  17.191  0.00  0.00    +0.000 A 
ATOM     29  C   UNL     1      -4.116  11.581  18.128  0.00  0.00    +0.000 A 
ATOM     30  C   UNL     1      -2.866  11.940  18.634  0.00  0.00    +0.000 A 
ENDBRANCH  24  25
ENDBRANCH  22  24
ENDBRANCH  18  19
ENDBRANCH  16  18
ENDBRANCH   1  16
TORSDOF 7
ENDMDL
MODEL 7
REMARK VINA RESULT:      -7.5      2.638      9.260
REMARK  Name = 
REMARK  10 active torsions:
REMARK  status: ('A' for Active; 'I' for Inactive)
REMARK    1  A    between atoms: C_1  and  C_2
REMARK    2  A    between atoms: C_3  and  C_4
REMARK    3  A    between atoms: C_5  and  C_6
REMARK    4  A    between atoms: C_6  and  N_7
REMARK    5  A    between atoms: N_7  and  C_8
REMARK    6  A    between atoms: C_8  and  C_9
REMARK    7  A    between atoms: N_12  and  C_13
REMARK    8  A    between atoms: C_13  and  C_14
REMARK    9  A    between atoms: N_24  and  C_25
REMARK   10  A    between atoms: N_28  and  C_29
REMARK                            x       y       z     vdW  Elec       q    Type
REMARK                         _______ _______ _______ _____ _____    ______ ____
ROOT
ATOM      1  C   UNL     1       2.202   5.480  20.286  0.00  0.00    +0.000 C 
ENDROOT
BRANCH   1   3
ATOM      2  C   UNL     1       3.537   3.898  18.855  0.00  0.00    +0.000 C 
ATOM      3  C   UNL     1       2.372   4.895  18.875  0.00  0.00    +0.000 C 
ATOM      4  C   UNL     1       1.146   4.103  18.404  0.00  0.00    +0.000 C 
ATOM      5  C   UNL     1       1.538   2.667  18.580  0.00  0.00    +0.000 C 
ATOM      6  O   UNL     1       0.758   1.737  18.580  0.00  0.00    +0.000 OA
ATOM      7  N   UNL     1       2.910   2.600  18.697  0.00  0.00    +0.000 N 
ATOM      8  C   UNL     1       3.604   1.360  18.970  0.00  0.00    +0.000 C 
BRANCH   2  11
ATOM      9  C   UNL     1       6.559   5.339  19.028  0.00  0.00    +0.000 C 
ATOM     10  C   UNL     1       5.791   4.809  17.875  0.00  0.00    +0.000 A 
ATOM     11  C   UNL     1       4.543   4.214  17.799  0.00  0.00    +0.000 A 
ATOM     12  C   UNL     1       4.423   3.866  16.430  0.00  0.00    +0.000 A 
ATOM     13  N   UNL     1       5.457   4.262  15.695  0.00  0.00    +0.000 NA
ATOM     14  N   UNL     1       6.255   4.880  16.581  0.00  0.00    +0.000 N 
ATOM     15  C   UNL     1       7.416   5.597  16.107  0.00  0.00    +0.000 C 
ENDBRANCH   2  11
ENDBRANCH   1   3
BRANCH   1  16
ATOM     16  N   UNL     1       2.530   6.898  20.257  0.00  0.00    +0.000 NA
ATOM     17  H   UNL     1       2.628   7.241  19.303  0.00  0.00    +0.000 HD
BRANCH  16  18
ATOM     18  C   UNL     1       1.517   7.710  20.908  0.00  0.00    +0.000 C 
BRANCH  18  19
ATOM     19  C   UNL     1       1.151   8.778  19.934  0.00  0.00    +0.000 A 
ATOM     20  C   UNL     1       1.733   8.988  18.654  0.00  0.00    +0.000 A 
ATOM     21  C   UNL     1       1.112  10.077  18.087  0.00  0.00    +0.000 A 
ATOM     22  N   UNL     1       0.164  10.534  18.966  0.00  0.00    +0.000 N 
ATOM     23  C   UNL     1       0.156   9.731  20.077  0.00  0.00    +0.000 A 
BRANCH  22  24
ATOM     24  C   UNL     1      -0.629  11.745  18.802  0.00  0.00    +0.000 C 
BRANCH  24  25
ATOM     25  C   UNL     1      -2.033  11.451  18.346  0.00  0.00    +0.000 A 
ATOM     26  C   UNL     1      -2.266  10.631  17.232  0.00  0.00    +0.000 A 
ATOM     27  C   UNL     1      -3.569  10.371  16.805  0.00  0.00    +0.000 A 
ATOM     28  C   UNL     1      -4.651  10.927  17.484  0.00  0.00    +0.000 A 
ATOM     29  C   UNL     1      -4.432  11.742  18.593  0.00  0.00    +0.000 A 
ATOM     30  C   UNL     1      -3.130  12.005  19.020  0.00  0.00    +0.000 A 
ENDBRANCH  24  25
ENDBRANCH  22  24
ENDBRANCH  18  19
ENDBRANCH  16  18
ENDBRANCH   1  16
TORSDOF 7
ENDMDL
MODEL 8
REMARK VINA RESULT:      -7.5      2.390      8.893
REMARK  Name = 
REMARK  10 active torsions:
REMARK  status: ('A' for Active; 'I' for Inactive)
REMARK    1  A    between atoms: C_1  and  C_2
REMARK    2  A    between atoms: C_3  and  C_4
REMARK    3  A    between atoms: C_5  and  C_6
REMARK    4  A    between atoms: C_6  and  N_7
REMARK    5  A    between atoms: N_7  and  C_8
REMARK    6  A    between atoms: C_8  and  C_9
REMARK    7  A    between atoms: N_12  and  C_13
REMARK    8  A    between atoms: C_13  and  C_14
REMARK    9  A    between atoms: N_24  and  C_25
REMARK   10  A    between atoms: N_28  and  C_29
REMARK                            x       y       z     vdW  Elec       q    Type
REMARK                         _______ _______ _______ _____ _____    ______ ____
ROOT
ATOM      1  C   UNL     1       1.759   6.098  20.379  0.00  0.00    +0.000 C 
ENDROOT
BRANCH   1   3
ATOM      2  C   UNL     1       3.743   5.067  19.224  0.00  0.00    +0.000 C 
ATOM      3  C   UNL     1       2.320   5.605  19.036  0.00  0.00    +0.000 C 
ATOM      4  C   UNL     1       1.516   4.441  18.443  0.00  0.00    +0.000 C 
ATOM      5  C   UNL     1       2.341   3.226  18.743  0.00  0.00    +0.000 C 
ATOM      6  O   UNL     1       1.930   2.086  18.683  0.00  0.00    +0.000 OA
ATOM      7  N   UNL     1       3.622   3.633  19.048  0.00  0.00    +0.000 N 
ATOM      8  C   UNL     1       4.648   2.705  19.475  0.00  0.00    +0.000 C 
BRANCH   2  11
ATOM      9  C   UNL     1       7.046   5.573  19.497  0.00  0.00    +0.000 C 
ATOM     10  C   UNL     1       6.089   5.913  18.416  0.00  0.00    +0.000 A 
ATOM     11  C   UNL     1       4.725   5.707  18.300  0.00  0.00    +0.000 A 
ATOM     12  C   UNL     1       4.425   6.189  17.001  0.00  0.00    +0.000 A 
ATOM     13  N   UNL     1       5.476   6.715  16.380  0.00  0.00    +0.000 NA
ATOM     14  N   UNL     1       6.468   6.585  17.276  0.00  0.00    +0.000 N 
ATOM     15  C   UNL     1       7.745   7.207  17.012  0.00  0.00    +0.000 C 
ENDBRANCH   2  11
ENDBRANCH   1   3
BRANCH   1  16
ATOM     16  N   UNL     1       2.129   7.493  20.567  0.00  0.00    +0.000 NA
ATOM     17  H   UNL     1       2.243   7.975  19.677  0.00  0.00    +0.000 HD
BRANCH  16  18
ATOM     18  C   UNL     1       1.139   8.226  21.335  0.00  0.00    +0.000 C 
BRANCH  18  19
ATOM     19  C   UNL     1       0.658   9.326  20.451  0.00  0.00    +0.000 A 
ATOM     20  C   UNL     1       1.441  10.069  19.525  0.00  0.00    +0.000 A 
ATOM     21  C   UNL     1       0.614  10.987  18.921  0.00  0.00    +0.000 A 
ATOM     22  N   UNL     1      -0.648  10.827  19.432  0.00  0.00    +0.000 N 
ATOM     23  C   UNL     1      -0.640   9.797  20.337  0.00  0.00    +0.000 A 
BRANCH  22  24
ATOM     24  C   UNL     1      -1.791  11.685  19.148  0.00  0.00    +0.000 C 
BRANCH  24  25
ATOM     25  C   UNL     1      -2.544  11.245  17.922  0.00  0.00    +0.000 A 
ATOM     26  C   UNL     1      -3.841  11.715  17.672  0.00  0.00    +0.000 A 
ATOM     27  C   UNL     1      -4.542  11.295  16.540  0.00  0.00    +0.000 A 
ATOM     28  C   UNL     1      -3.954  10.401  15.647  0.00  0.00    +0.000 A 
ATOM     29  C   UNL     1      -2.665   9.928  15.883  0.00  0.00    +0.000 A 
ATOM     30  C   UNL     1      -1.964  10.345  17.016  0.00  0.00    +0.000 A 
ENDBRANCH  24  25
ENDBRANCH  22  24
ENDBRANCH  18  19
ENDBRANCH  16  18
ENDBRANCH   1  16
TORSDOF 7
ENDMDL
MODEL 9
REMARK VINA RESULT:      -7.5      2.567      9.237
REMARK  Name = 
REMARK  10 active torsions:
REMARK  status: ('A' for Active; 'I' for Inactive)
REMARK    1  A    between atoms: C_1  and  C_2
REMARK    2  A    between atoms: C_3  and  C_4
REMARK    3  A    between atoms: C_5  and  C_6
REMARK    4  A    between atoms: C_6  and  N_7
REMARK    5  A    between atoms: N_7  and  C_8
REMARK    6  A    between atoms: C_8  and  C_9
REMARK    7  A    between atoms: N_12  and  C_13
REMARK    8  A    between atoms: C_13  and  C_14
REMARK    9  A    between atoms: N_24  and  C_25
REMARK   10  A    between atoms: N_28  and  C_29
REMARK                            x       y       z     vdW  Elec       q    Type
REMARK                         _______ _______ _______ _____ _____    ______ ____
ROOT
ATOM      1  C   UNL     1       2.065   6.028  20.416  0.00  0.00    +0.000 C 
ENDROOT
BRANCH   1   3
ATOM      2  C   UNL     1       3.898   4.496  19.625  0.00  0.00    +0.000 C 
ATOM      3  C   UNL     1       2.638   5.265  19.211  0.00  0.00    +0.000 C 
ATOM      4  C   UNL     1       1.674   4.207  18.660  0.00  0.00    +0.000 C 
ATOM      5  C   UNL     1       2.204   2.908  19.187  0.00  0.00    +0.000 C 
ATOM      6  O   UNL     1       1.578   1.868  19.206  0.00  0.00    +0.000 OA
ATOM      7  N   UNL     1       3.507   3.101  19.595  0.00  0.00    +0.000 N 
ATOM      8  C   UNL     1       4.278   2.060  20.240  0.00  0.00    +0.000 C 
BRANCH   2  11
ATOM      9  C   UNL     1       4.425   4.031  16.347  0.00  0.00    +0.000 C 
ATOM     10  C   UNL     1       5.285   4.619  17.403  0.00  0.00    +0.000 A 
ATOM     11  C   UNL     1       5.071   4.811  18.758  0.00  0.00    +0.000 A 
ATOM     12  C   UNL     1       6.241   5.487  19.186  0.00  0.00    +0.000 A 
ATOM     13  N   UNL     1       7.140   5.646  18.219  0.00  0.00    +0.000 NA
ATOM     14  N   UNL     1       6.563   5.065  17.155  0.00  0.00    +0.000 N 
ATOM     15  C   UNL     1       7.328   4.893  15.941  0.00  0.00    +0.000 C 
ENDBRANCH   2  11
ENDBRANCH   1   3
BRANCH   1  16
ATOM     16  N   UNL     1       2.205   7.459  20.185  0.00  0.00    +0.000 NA
ATOM     17  H   UNL     1       3.107   7.804  20.512  0.00  0.00    +0.000 HD
BRANCH  16  18
ATOM     18  C   UNL     1       2.090   7.803  18.780  0.00  0.00    +0.000 C 
BRANCH  18  19
ATOM     19  C   UNL     1       1.528   9.184  18.735  0.00  0.00    +0.000 A 
ATOM     20  C   UNL     1       2.181  10.344  18.234  0.00  0.00    +0.000 A 
ATOM     21  C   UNL     1       1.317  11.405  18.383  0.00  0.00    +0.000 A 
ATOM     22  N   UNL     1       0.157  10.936  18.945  0.00  0.00    +0.000 N 
ATOM     23  C   UNL     1       0.262   9.582  19.130  0.00  0.00    +0.000 A 
BRANCH  22  24
ATOM     24  C   UNL     1      -0.964  11.758  19.381  0.00  0.00    +0.000 C 
BRANCH  24  25
ATOM     25  C   UNL     1      -2.175  11.584  18.504  0.00  0.00    +0.000 A 
ATOM     26  C   UNL     1      -2.038  11.174  17.170  0.00  0.00    +0.000 A 
ATOM     27  C   UNL     1      -3.163  11.026  16.356  0.00  0.00    +0.000 A 
ATOM     28  C   UNL     1      -4.433  11.287  16.866  0.00  0.00    +0.000 A 
ATOM     29  C   UNL     1      -4.582  11.694  18.191  0.00  0.00    +0.000 A 
ATOM     30  C   UNL     1      -3.459  11.844  19.005  0.00  0.00    +0.000 A 
ENDBRANCH  24  25
ENDBRANCH  22  24
ENDBRANCH  18  19
ENDBRANCH  16  18
ENDBRANCH   1  16
TORSDOF 7
ENDMDL
