MODEL 1
REMARK VINA RESULT:      -7.7      0.000      0.000
REMARK  Name = 
REMARK  9 active torsions:
REMARK  status: ('A' for Active; 'I' for Inactive)
REMARK    1  A    between atoms: C_2  and  C_3
REMARK    2  A    between atoms: C_3  and  O_4
REMARK    3  A    between atoms: O_4  and  C_5
REMARK    4  A    between atoms: C_8  and  S_9
REMARK    5  A    between atoms: S_9  and  N_12
REMARK    6  A    between atoms: N_20  and  C_21
REMARK    7  A    between atoms: C_24  and  O_25
REMARK    8  A    between atoms: O_25  and  C_26
REMARK    9  A    between atoms: C_26  and  C_27
REMARK                            x       y       z     vdW  Elec       q    Type
REMARK                         _______ _______ _______ _____ _____    ______ ____
ROOT
ATOM      1  O   UNL     1       8.371   6.548  18.940  0.00  0.00    +0.000 OA
ATOM      2  C   UNL     1       7.970   7.517  18.298  0.00  0.00    +0.000 C 
ATOM      3  N   UNL     1       6.864   7.531  17.461  0.00  0.00    +0.000 N 
ATOM      4  H   UNL     1       6.703   8.378  16.930  0.00  0.00    +0.000 HD
ENDROOT
BRANCH   3   5
ATOM      5  C   UNL     1       5.952   6.468  17.232  0.00  0.00    +0.000 A 
ATOM      6  C   UNL     1       6.251   5.280  16.551  0.00  0.00    +0.000 A 
ATOM      7  C   UNL     1       5.282   4.283  16.384  0.00  0.00    +0.000 A 
ATOM      8  C   UNL     1       3.999   4.443  16.913  0.00  0.00    +0.000 A 
ATOM      9  C   UNL     1       3.689   5.630  17.574  0.00  0.00    +0.000 A 
ATOM     10  C   UNL     1       4.658   6.623  17.744  0.00  0.00    +0.000 A 
BRANCH   8  11
ATOM     11  O   UNL     1       3.128   3.403  16.731  0.00  0.00    +0.000 OA
BRANCH  11  12
ATOM     12  C   UNL     1       3.309   2.294  17.619  0.00  0.00    +0.000 C 
BRANCH  12  13
ATOM     13  C   UNL     1       2.636   2.503  18.956  0.00  0.00    +0.000 A 
ATOM     14  C   UNL     1       3.342   2.468  20.166  0.00  0.00    +0.000 A 
ATOM     15  C   UNL     1       2.696   2.762  21.372  0.00  0.00    +0.000 A 
ATOM     16  C   UNL     1       1.349   3.105  21.380  0.00  0.00    +0.000 A 
ATOM     17  C   UNL     1       0.636   3.155  20.184  0.00  0.00    +0.000 A 
ATOM     18  C   UNL     1       1.275   2.855  18.980  0.00  0.00    +0.000 A 
ENDBRANCH  12  13
ENDBRANCH  11  12
ENDBRANCH   8  11
ENDBRANCH   3   5
BRANCH   2  19
ATOM     19  C   UNL     1       8.669   8.883  18.436  0.00  0.00    +0.000 C 
BRANCH  19  20
ATOM     20  O   UNL     1       8.055   9.928  17.685  0.00  0.00    +0.000 OA
BRANCH  20  21
ATOM     21  C   UNL     1       8.677  11.156  17.732  0.00  0.00    +0.000 A 
ATOM     22  C   UNL     1      10.033  11.357  18.006  0.00  0.00    +0.000 A 
ATOM     23  C   UNL     1      10.558  12.653  18.087  0.00  0.00    +0.000 A 
ATOM     24  C   UNL     1       9.733  13.766  17.895  0.00  0.00    +0.000 A 
ATOM     25  C   UNL     1       8.389  13.582  17.570  0.00  0.00    +0.000 A 
ATOM     26  C   UNL     1       7.873  12.275  17.472  0.00  0.00    +0.000 A 
BRANCH  24  27
ATOM     27  S   UNL     1      10.358  15.378  18.326  0.00  0.00    +0.000 S 
ATOM     28  O   UNL     1      11.802  15.291  18.239  0.00  0.00    +0.000 OA
ATOM     29  O   UNL     1       9.647  16.342  17.509  0.00  0.00    +0.000 OA
BRANCH  27  30
ATOM     30  N   UNL     1       9.964  15.675  19.957  0.00  0.00    +0.000 NA
ATOM     31  C   UNL     1       9.027  16.795  20.272  0.00  0.00    +0.000 C 
ATOM     32  C   UNL     1       9.703  18.167  20.159  0.00  0.00    +0.000 C 
ATOM     33  O   UNL     1      10.879  18.255  20.976  0.00  0.00    +0.000 OA
ATOM     34  C   UNL     1      11.822  17.214  20.677  0.00  0.00    +0.000 C 
ATOM     35  C   UNL     1      11.183  15.826  20.837  0.00  0.00    +0.000 C 
ENDBRANCH  27  30
ENDBRANCH  24  27
ENDBRANCH  20  21
ENDBRANCH  19  20
ENDBRANCH   2  19
TORSDOF 9
ENDMDL
MODEL 2
REMARK VINA RESULT:      -7.6      8.342     10.936
REMARK  Name = 
REMARK  9 active torsions:
REMARK  status: ('A' for Active; 'I' for Inactive)
REMARK    1  A    between atoms: C_2  and  C_3
REMARK    2  A    between atoms: C_3  and  O_4
REMARK    3  A    between atoms: O_4  and  C_5
REMARK    4  A    between atoms: C_8  and  S_9
REMARK    5  A    between atoms: S_9  and  N_12
REMARK    6  A    between atoms: N_20  and  C_21
REMARK    7  A    between atoms: C_24  and  O_25
REMARK    8  A    between atoms: O_25  and  C_26
REMARK    9  A    between atoms: C_26  and  C_27
REMARK                            x       y       z     vdW  Elec       q    Type
REMARK                         _______ _______ _______ _____ _____    ______ ____
ROOT
ATOM      1  O   UNL     1       1.046   8.689  19.141  0.00  0.00    +0.000 OA
ATOM      2  C   UNL     1       1.459   8.210  20.194  0.00  0.00    +0.000 C 
ATOM      3  N   UNL     1       2.293   7.107  20.308  0.00  0.00    +0.000 N 
ATOM      4  H   UNL     1       2.484   6.772  21.245  0.00  0.00    +0.000 HD
ENDROOT
BRANCH   3   5
ATOM      5  C   UNL     1       2.879   6.365  19.250  0.00  0.00    +0.000 A 
ATOM      6  C   UNL     1       3.984   6.776  18.491  0.00  0.00    +0.000 A 
ATOM      7  C   UNL     1       4.496   5.967  17.469  0.00  0.00    +0.000 A 
ATOM      8  C   UNL     1       3.928   4.718  17.199  0.00  0.00    +0.000 A 
ATOM      9  C   UNL     1       2.818   4.313  17.937  0.00  0.00    +0.000 A 
ATOM     10  C   UNL     1       2.309   5.120  18.960  0.00  0.00    +0.000 A 
BRANCH   8  11
ATOM     11  O   UNL     1       4.515   3.981  16.207  0.00  0.00    +0.000 OA
BRANCH  11  12
ATOM     12  C   UNL     1       5.928   4.167  16.064  0.00  0.00    +0.000 C 
BRANCH  12  13
ATOM     13  C   UNL     1       6.371   4.167  14.619  0.00  0.00    +0.000 A 
ATOM     14  C   UNL     1       5.735   3.394  13.638  0.00  0.00    +0.000 A 
ATOM     15  C   UNL     1       6.117   3.499  12.296  0.00  0.00    +0.000 A 
ATOM     16  C   UNL     1       7.123   4.382  11.921  0.00  0.00    +0.000 A 
ATOM     17  C   UNL     1       7.757   5.165  12.883  0.00  0.00    +0.000 A 
ATOM     18  C   UNL     1       7.384   5.058  14.223  0.00  0.00    +0.000 A 
ENDBRANCH  12  13
ENDBRANCH  11  12
ENDBRANCH   8  11
ENDBRANCH   3   5
BRANCH   2  19
ATOM     19  C   UNL     1       1.114   8.876  21.540  0.00  0.00    +0.000 C 
BRANCH  19  20
ATOM     20  O   UNL     1       1.145  10.302  21.507  0.00  0.00    +0.000 OA
BRANCH  20  21
ATOM     21  C   UNL     1      -0.001  10.944  21.920  0.00  0.00    +0.000 A 
ATOM     22  C   UNL     1      -0.800  10.544  22.996  0.00  0.00    +0.000 A 
ATOM     23  C   UNL     1      -1.981  11.233  23.300  0.00  0.00    +0.000 A 
ATOM     24  C   UNL     1      -2.378  12.332  22.532  0.00  0.00    +0.000 A 
ATOM     25  C   UNL     1      -1.566  12.776  21.488  0.00  0.00    +0.000 A 
ATOM     26  C   UNL     1      -0.371  12.088  21.201  0.00  0.00    +0.000 A 
BRANCH  24  27
ATOM     27  S   UNL     1      -4.028  12.971  22.743  0.00  0.00    +0.000 S 
ATOM     28  O   UNL     1      -4.555  12.349  23.941  0.00  0.00    +0.000 OA
ATOM     29  O   UNL     1      -3.939  14.416  22.665  0.00  0.00    +0.000 OA
BRANCH  27  30
ATOM     30  N   UNL     1      -4.972  12.429  21.432  0.00  0.00    +0.000 NA
ATOM     31  C   UNL     1      -4.878  13.161  20.133  0.00  0.00    +0.000 C 
ATOM     32  C   UNL     1      -5.637  14.493  20.161  0.00  0.00    +0.000 C 
ATOM     33  O   UNL     1      -7.010  14.321  20.539  0.00  0.00    +0.000 OA
ATOM     34  C   UNL     1      -7.142  13.651  21.802  0.00  0.00    +0.000 C 
ATOM     35  C   UNL     1      -6.435  12.287  21.781  0.00  0.00    +0.000 C 
ENDBRANCH  27  30
ENDBRANCH  24  27
ENDBRANCH  20  21
ENDBRANCH  19  20
ENDBRANCH   2  19
TORSDOF 9
ENDMDL
MODEL 3
REMARK VINA RESULT:      -7.6      3.404     12.142
REMARK  Name = 
REMARK  9 active torsions:
REMARK  status: ('A' for Active; 'I' for Inactive)
REMARK    1  A    between atoms: C_2  and  C_3
REMARK    2  A    between atoms: C_3  and  O_4
REMARK    3  A    between atoms: O_4  and  C_5
REMARK    4  A    between atoms: C_8  and  S_9
REMARK    5  A    between atoms: S_9  and  N_12
REMARK    6  A    between atoms: N_20  and  C_21
REMARK    7  A    between atoms: C_24  and  O_25
REMARK    8  A    between atoms: O_25  and  C_26
REMARK    9  A    between atoms: C_26  and  C_27
REMARK                            x       y       z     vdW  Elec       q    Type
REMARK                         _______ _______ _______ _____ _____    ______ ____
ROOT
ATOM      1  O   UNL     1       7.708   9.903  17.603  0.00  0.00    +0.000 OA
ATOM      2  C   UNL     1       8.369   9.099  18.257  0.00  0.00    +0.000 C 
ATOM      3  N   UNL     1       9.365   9.423  19.167  0.00  0.00    +0.000 N 
ATOM      4  H   UNL     1       9.885   8.653  19.570  0.00  0.00    +0.000 HD
ENDROOT
BRANCH   3   5
ATOM      5  C   UNL     1       9.767  10.723  19.567  0.00  0.00    +0.000 A 
ATOM      6  C   UNL     1      10.540  11.603  18.795  0.00  0.00    +0.000 A 
ATOM      7  C   UNL     1      10.879  12.874  19.275  0.00  0.00    +0.000 A 
ATOM      8  C   UNL     1      10.435  13.302  20.529  0.00  0.00    +0.000 A 
ATOM      9  C   UNL     1       9.683  12.426  21.309  0.00  0.00    +0.000 A 
ATOM     10  C   UNL     1       9.342  11.158  20.828  0.00  0.00    +0.000 A 
BRANCH   8  11
ATOM     11  O   UNL     1      10.785  14.571  20.902  0.00  0.00    +0.000 OA
BRANCH  11  12
ATOM     12  C   UNL     1       9.980  15.147  21.936  0.00  0.00    +0.000 C 
BRANCH  12  13
ATOM     13  C   UNL     1       8.821  15.951  21.392  0.00  0.00    +0.000 A 
ATOM     14  C   UNL     1       7.544  15.912  21.968  0.00  0.00    +0.000 A 
ATOM     15  C   UNL     1       6.526  16.746  21.491  0.00  0.00    +0.000 A 
ATOM     16  C   UNL     1       6.776  17.631  20.449  0.00  0.00    +0.000 A 
ATOM     17  C   UNL     1       8.044  17.689  19.874  0.00  0.00    +0.000 A 
ATOM     18  C   UNL     1       9.059  16.855  20.342  0.00  0.00    +0.000 A 
ENDBRANCH  12  13
ENDBRANCH  11  12
ENDBRANCH   8  11
ENDBRANCH   3   5
BRANCH   2  19
ATOM     19  C   UNL     1       8.079   7.590  18.156  0.00  0.00    +0.000 C 
BRANCH  19  20
ATOM     20  O   UNL     1       7.173   7.241  17.112  0.00  0.00    +0.000 OA
BRANCH  20  21
ATOM     21  C   UNL     1       6.404   6.118  17.325  0.00  0.00    +0.000 A 
ATOM     22  C   UNL     1       5.634   5.477  16.349  0.00  0.00    +0.000 A 
ATOM     23  C   UNL     1       4.840   4.373  16.681  0.00  0.00    +0.000 A 
ATOM     24  C   UNL     1       4.805   3.893  17.994  0.00  0.00    +0.000 A 
ATOM     25  C   UNL     1       5.607   4.489  18.969  0.00  0.00    +0.000 A 
ATOM     26  C   UNL     1       6.417   5.587  18.622  0.00  0.00    +0.000 A 
BRANCH  24  27
ATOM     27  S   UNL     1       3.550   2.710  18.440  0.00  0.00    +0.000 S 
ATOM     28  O   UNL     1       3.600   1.666  17.437  0.00  0.00    +0.000 OA
ATOM     29  O   UNL     1       3.757   2.375  19.836  0.00  0.00    +0.000 OA
BRANCH  27  30
ATOM     30  N   UNL     1       2.034   3.476  18.300  0.00  0.00    +0.000 NA
ATOM     31  C   UNL     1       1.960   4.955  18.499  0.00  0.00    +0.000 C 
ATOM     32  C   UNL     1       2.050   5.347  19.979  0.00  0.00    +0.000 C 
ATOM     33  O   UNL     1       1.052   4.686  20.771  0.00  0.00    +0.000 OA
ATOM     34  C   UNL     1       1.115   3.258  20.634  0.00  0.00    +0.000 C 
ATOM     35  C   UNL     1       0.971   2.837  19.163  0.00  0.00    +0.000 C 
ENDBRANCH  27  30
ENDBRANCH  24  27
ENDBRANCH  20  21
ENDBRANCH  19  20
ENDBRANCH   2  19
TORSDOF 9
ENDMDL
MODEL 4
REMARK VINA RESULT:      -7.5      8.863     11.162
REMARK  Name = 
REMARK  9 active torsions:
REMARK  status: ('A' for Active; 'I' for Inactive)
REMARK    1  A    between atoms: C_2  and  C_3
REMARK    2  A    between atoms: C_3  and  O_4
REMARK    3  A    between atoms: O_4  and  C_5
REMARK    4  A    between atoms: C_8  and  S_9
REMARK    5  A    between atoms: S_9  and  N_12
REMARK    6  A    between atoms: N_20  and  C_21
REMARK    7  A    between atoms: C_24  and  O_25
REMARK    8  A    between atoms: O_25  and  C_26
REMARK    9  A    between atoms: C_26  and  C_27
REMARK                            x       y       z     vdW  Elec       q    Type
REMARK                         _______ _______ _______ _____ _____    ______ ____
ROOT
ATOM      1  O   UNL     1       0.600   9.642  17.787  0.00  0.00    +0.000 OA
ATOM      2  C   UNL     1       0.928   9.917  18.939  0.00  0.00    +0.000 C 
ATOM      3  N   UNL     1       1.555   9.055  19.828  0.00  0.00    +0.000 N 
ATOM      4  H   UNL     1       1.689   9.392  20.774  0.00  0.00    +0.000 HD
ENDROOT
BRANCH   3   5
ATOM      5  C   UNL     1       1.994   7.731  19.569  0.00  0.00    +0.000 A 
ATOM      6  C   UNL     1       1.761   6.626  20.401  0.00  0.00    +0.000 A 
ATOM      7  C   UNL     1       2.229   5.353  20.054  0.00  0.00    +0.000 A 
ATOM      8  C   UNL     1       2.920   5.152  18.856  0.00  0.00    +0.000 A 
ATOM      9  C   UNL     1       3.172   6.249  18.035  0.00  0.00    +0.000 A 
ATOM     10  C   UNL     1       2.702   7.520  18.380  0.00  0.00    +0.000 A 
BRANCH   8  11
ATOM     11  O   UNL     1       3.310   3.869  18.582  0.00  0.00    +0.000 OA
BRANCH  11  12
ATOM     12  C   UNL     1       4.713   3.617  18.715  0.00  0.00    +0.000 C 
BRANCH  12  13
ATOM     13  C   UNL     1       5.505   4.090  17.519  0.00  0.00    +0.000 A 
ATOM     14  C   UNL     1       6.690   4.828  17.647  0.00  0.00    +0.000 A 
ATOM     15  C   UNL     1       7.442   5.163  16.515  0.00  0.00    +0.000 A 
ATOM     16  C   UNL     1       7.027   4.755  15.252  0.00  0.00    +0.000 A 
ATOM     17  C   UNL     1       5.857   4.011  15.110  0.00  0.00    +0.000 A 
ATOM     18  C   UNL     1       5.102   3.682  16.235  0.00  0.00    +0.000 A 
ENDBRANCH  12  13
ENDBRANCH  11  12
ENDBRANCH   8  11
ENDBRANCH   3   5
BRANCH   2  19
ATOM     19  C   UNL     1       0.714  11.339  19.490  0.00  0.00    +0.000 C 
BRANCH  19  20
ATOM     20  O   UNL     1       0.637  11.406  20.913  0.00  0.00    +0.000 OA
BRANCH  20  21
ATOM     21  C   UNL     1      -0.604  11.684  21.442  0.00  0.00    +0.000 A 
ATOM     22  C   UNL     1      -1.675  12.231  20.728  0.00  0.00    +0.000 A 
ATOM     23  C   UNL     1      -2.881  12.531  21.373  0.00  0.00    +0.000 A 
ATOM     24  C   UNL     1      -3.032  12.288  22.742  0.00  0.00    +0.000 A 
ATOM     25  C   UNL     1      -1.992  11.695  23.458  0.00  0.00    +0.000 A 
ATOM     26  C   UNL     1      -0.789  11.379  22.797  0.00  0.00    +0.000 A 
BRANCH  24  27
ATOM     27  S   UNL     1      -4.445  12.978  23.582  0.00  0.00    +0.000 S 
ATOM     28  O   UNL     1      -4.659  12.159  24.758  0.00  0.00    +0.000 OA
ATOM     29  O   UNL     1      -4.198  14.399  23.732  0.00  0.00    +0.000 OA
BRANCH  27  30
ATOM     30  N   UNL     1      -5.803  12.782  22.572  0.00  0.00    +0.000 NA
ATOM     31  C   UNL     1      -6.108  13.848  21.571  0.00  0.00    +0.000 C 
ATOM     32  C   UNL     1      -6.736  15.089  22.217  0.00  0.00    +0.000 C 
ATOM     33  O   UNL     1      -7.911  14.763  22.975  0.00  0.00    +0.000 OA
ATOM     34  C   UNL     1      -7.649  13.766  23.973  0.00  0.00    +0.000 C 
ATOM     35  C   UNL     1      -7.070  12.490  23.342  0.00  0.00    +0.000 C 
ENDBRANCH  27  30
ENDBRANCH  24  27
ENDBRANCH  20  21
ENDBRANCH  19  20
ENDBRANCH   2  19
TORSDOF 9
ENDMDL
MODEL 5
REMARK VINA RESULT:      -7.4      8.989     10.630
REMARK  Name = 
REMARK  9 active torsions:
REMARK  status: ('A' for Active; 'I' for Inactive)
REMARK    1  A    between atoms: C_2  and  C_3
REMARK    2  A    between atoms: C_3  and  O_4
REMARK    3  A    between atoms: O_4  and  C_5
REMARK    4  A    between atoms: C_8  and  S_9
REMARK    5  A    between atoms: S_9  and  N_12
REMARK    6  A    between atoms: N_20  and  C_21
REMARK    7  A    between atoms: C_24  and  O_25
REMARK    8  A    between atoms: O_25  and  C_26
REMARK    9  A    between atoms: C_26  and  C_27
REMARK                            x       y       z     vdW  Elec       q    Type
REMARK                         _______ _______ _______ _____ _____    ______ ____
ROOT
ATOM      1  O   UNL     1       0.679   9.365  19.728  0.00  0.00    +0.000 OA
ATOM      2  C   UNL     1       1.055   8.824  20.765  0.00  0.00    +0.000 C 
ATOM      3  N   UNL     1       1.801   7.656  20.843  0.00  0.00    +0.000 N 
ATOM      4  H   UNL     1       1.966   7.280  21.768  0.00  0.00    +0.000 HD
ENDROOT
BRANCH   3   5
ATOM      5  C   UNL     1       2.325   6.904  19.761  0.00  0.00    +0.000 A 
ATOM      6  C   UNL     1       2.850   7.446  18.579  0.00  0.00    +0.000 A 
ATOM      7  C   UNL     1       3.354   6.618  17.569  0.00  0.00    +0.000 A 
ATOM      8  C   UNL     1       3.365   5.229  17.727  0.00  0.00    +0.000 A 
ATOM      9  C   UNL     1       2.826   4.683  18.891  0.00  0.00    +0.000 A 
ATOM     10  C   UNL     1       2.327   5.510  19.901  0.00  0.00    +0.000 A 
BRANCH   8  11
ATOM     11  O   UNL     1       3.907   4.500  16.704  0.00  0.00    +0.000 OA
BRANCH  11  12
ATOM     12  C   UNL     1       5.177   3.904  16.988  0.00  0.00    +0.000 C 
BRANCH  12  13
ATOM     13  C   UNL     1       6.202   4.911  17.456  0.00  0.00    +0.000 A 
ATOM     14  C   UNL     1       6.653   5.958  16.640  0.00  0.00    +0.000 A 
ATOM     15  C   UNL     1       7.530   6.923  17.147  0.00  0.00    +0.000 A 
ATOM     16  C   UNL     1       7.952   6.861  18.470  0.00  0.00    +0.000 A 
ATOM     17  C   UNL     1       7.503   5.833  19.297  0.00  0.00    +0.000 A 
ATOM     18  C   UNL     1       6.635   4.865  18.793  0.00  0.00    +0.000 A 
ENDBRANCH  12  13
ENDBRANCH  11  12
ENDBRANCH   8  11
ENDBRANCH   3   5
BRANCH   2  19
ATOM     19  C   UNL     1       0.764   9.474  22.131  0.00  0.00    +0.000 C 
BRANCH  19  20
ATOM     20  O   UNL     1       0.717  10.899  22.098  0.00  0.00    +0.000 OA
BRANCH  20  21
ATOM     21  C   UNL     1      -0.537  11.463  22.022  0.00  0.00    +0.000 A 
ATOM     22  C   UNL     1      -1.045  12.142  20.909  0.00  0.00    +0.000 A 
ATOM     23  C   UNL     1      -2.314  12.731  20.953  0.00  0.00    +0.000 A 
ATOM     24  C   UNL     1      -3.094  12.650  22.111  0.00  0.00    +0.000 A 
ATOM     25  C   UNL     1      -2.624  11.933  23.213  0.00  0.00    +0.000 A 
ATOM     26  C   UNL     1      -1.354  11.328  23.153  0.00  0.00    +0.000 A 
BRANCH  24  27
ATOM     27  S   UNL     1      -4.543  13.679  22.240  0.00  0.00    +0.000 S 
ATOM     28  O   UNL     1      -5.044  13.846  20.891  0.00  0.00    +0.000 OA
ATOM     29  O   UNL     1      -5.396  13.088  23.253  0.00  0.00    +0.000 OA
BRANCH  27  30
ATOM     30  N   UNL     1      -4.051  15.213  22.794  0.00  0.00    +0.000 NA
ATOM     31  C   UNL     1      -4.592  15.710  24.094  0.00  0.00    +0.000 C 
ATOM     32  C   UNL     1      -6.043  16.192  23.973  0.00  0.00    +0.000 C 
ATOM     33  O   UNL     1      -6.194  17.191  22.954  0.00  0.00    +0.000 OA
ATOM     34  C   UNL     1      -5.717  16.737  21.679  0.00  0.00    +0.000 C 
ATOM     35  C   UNL     1      -4.246  16.300  21.762  0.00  0.00    +0.000 C 
ENDBRANCH  27  30
ENDBRANCH  24  27
ENDBRANCH  20  21
ENDBRANCH  19  20
ENDBRANCH   2  19
TORSDOF 9
ENDMDL
MODEL 6
REMARK VINA RESULT:      -7.4      8.170     10.043
REMARK  Name = 
REMARK  9 active torsions:
REMARK  status: ('A' for Active; 'I' for Inactive)
REMARK    1  A    between atoms: C_2  and  C_3
REMARK    2  A    between atoms: C_3  and  O_4
REMARK    3  A    between atoms: O_4  and  C_5
REMARK    4  A    between atoms: C_8  and  S_9
REMARK    5  A    between atoms: S_9  and  N_12
REMARK    6  A    between atoms: N_20  and  C_21
REMARK    7  A    between atoms: C_24  and  O_25
REMARK    8  A    between atoms: O_25  and  C_26
REMARK    9  A    between atoms: C_26  and  C_27
REMARK                            x       y       z     vdW  Elec       q    Type
REMARK                         _______ _______ _______ _____ _____    ______ ____
ROOT
ATOM      1  O   UNL     1       1.719   8.886  19.742  0.00  0.00    +0.000 OA
ATOM      2  C   UNL     1       1.458   8.197  20.725  0.00  0.00    +0.000 C 
ATOM      3  N   UNL     1       1.682   6.832  20.839  0.00  0.00    +0.000 N 
ATOM      4  H   UNL     1       1.338   6.380  21.677  0.00  0.00    +0.000 HD
ENDROOT
BRANCH   3   5
ATOM      5  C   UNL     1       2.307   5.987  19.887  0.00  0.00    +0.000 A 
ATOM      6  C   UNL     1       2.226   6.140  18.495  0.00  0.00    +0.000 A 
ATOM      7  C   UNL     1       2.888   5.256  17.634  0.00  0.00    +0.000 A 
ATOM      8  C   UNL     1       3.663   4.212  18.146  0.00  0.00    +0.000 A 
ATOM      9  C   UNL     1       3.732   4.042  19.528  0.00  0.00    +0.000 A 
ATOM     10  C   UNL     1       3.074   4.927  20.387  0.00  0.00    +0.000 A 
BRANCH   8  11
ATOM     11  O   UNL     1       4.302   3.418  17.232  0.00  0.00    +0.000 OA
BRANCH  11  12
ATOM     12  C   UNL     1       5.101   4.117  16.271  0.00  0.00    +0.000 C 
BRANCH  12  13
ATOM     13  C   UNL     1       6.082   5.070  16.914  0.00  0.00    +0.000 A 
ATOM     14  C   UNL     1       6.030   6.455  16.705  0.00  0.00    +0.000 A 
ATOM     15  C   UNL     1       6.898   7.308  17.396  0.00  0.00    +0.000 A 
ATOM     16  C   UNL     1       7.812   6.791  18.307  0.00  0.00    +0.000 A 
ATOM     17  C   UNL     1       7.868   5.417  18.533  0.00  0.00    +0.000 A 
ATOM     18  C   UNL     1       7.009   4.563  17.841  0.00  0.00    +0.000 A 
ENDBRANCH  12  13
ENDBRANCH  11  12
ENDBRANCH   8  11
ENDBRANCH   3   5
BRANCH   2  19
ATOM     19  C   UNL     1       0.889   8.847  22.001  0.00  0.00    +0.000 C 
BRANCH  19  20
ATOM     20  O   UNL     1       1.013  10.267  22.034  0.00  0.00    +0.000 OA
BRANCH  20  21
ATOM     21  C   UNL     1      -0.161  10.982  21.943  0.00  0.00    +0.000 A 
ATOM     22  C   UNL     1      -1.040  11.217  23.005  0.00  0.00    +0.000 A 
ATOM     23  C   UNL     1      -2.240  11.908  22.796  0.00  0.00    +0.000 A 
ATOM     24  C   UNL     1      -2.578  12.373  21.520  0.00  0.00    +0.000 A 
ATOM     25  C   UNL     1      -1.688  12.191  20.460  0.00  0.00    +0.000 A 
ATOM     26  C   UNL     1      -0.475  11.512  20.684  0.00  0.00    +0.000 A 
BRANCH  24  27
ATOM     27  S   UNL     1      -4.239  12.949  21.233  0.00  0.00    +0.000 S 
ATOM     28  O   UNL     1      -4.550  12.624  19.856  0.00  0.00    +0.000 OA
ATOM     29  O   UNL     1      -5.065  12.416  22.299  0.00  0.00    +0.000 OA
BRANCH  27  30
ATOM     30  N   UNL     1      -4.236  14.648  21.366  0.00  0.00    +0.000 NA
ATOM     31  C   UNL     1      -2.926  15.365  21.324  0.00  0.00    +0.000 C 
ATOM     32  C   UNL     1      -2.150  15.234  22.641  0.00  0.00    +0.000 C 
ATOM     33  O   UNL     1      -2.925  15.674  23.766  0.00  0.00    +0.000 OA
ATOM     34  C   UNL     1      -4.178  14.981  23.862  0.00  0.00    +0.000 C 
ATOM     35  C   UNL     1      -4.999  15.143  22.573  0.00  0.00    +0.000 C 
ENDBRANCH  27  30
ENDBRANCH  24  27
ENDBRANCH  20  21
ENDBRANCH  19  20
ENDBRANCH   2  19
TORSDOF 9
ENDMDL
MODEL 7
REMARK VINA RESULT:      -7.4      3.014     12.591
REMARK  Name = 
REMARK  9 active torsions:
REMARK  status: ('A' for Active; 'I' for Inactive)
REMARK    1  A    between atoms: C_2  and  C_3
REMARK    2  A    between atoms: C_3  and  O_4
REMARK    3  A    between atoms: O_4  and  C_5
REMARK    4  A    between atoms: C_8  and  S_9
REMARK    5  A    between atoms: S_9  and  N_12
REMARK    6  A    between atoms: N_20  and  C_21
REMARK    7  A    between atoms: C_24  and  O_25
REMARK    8  A    between atoms: O_25  and  C_26
REMARK    9  A    between atoms: C_26  and  C_27
REMARK                            x       y       z     vdW  Elec       q    Type
REMARK                         _______ _______ _______ _____ _____    ______ ____
ROOT
ATOM      1  O   UNL     1       9.103  10.668  20.400  0.00  0.00    +0.000 OA
ATOM      2  C   UNL     1       9.350  10.208  19.287  0.00  0.00    +0.000 C 
ATOM      3  N   UNL     1      10.035  10.865  18.275  0.00  0.00    +0.000 N 
ATOM      4  H   UNL     1      10.090  10.394  17.380  0.00  0.00    +0.000 HD
ENDROOT
BRANCH   3   5
ATOM      5  C   UNL     1      10.634  12.149  18.342  0.00  0.00    +0.000 A 
ATOM      6  C   UNL     1      11.745  12.481  19.131  0.00  0.00    +0.000 A 
ATOM      7  C   UNL     1      12.271  13.779  19.122  0.00  0.00    +0.000 A 
ATOM      8  C   UNL     1      11.712  14.768  18.308  0.00  0.00    +0.000 A 
ATOM      9  C   UNL     1      10.596  14.449  17.536  0.00  0.00    +0.000 A 
ATOM     10  C   UNL     1      10.074  13.152  17.542  0.00  0.00    +0.000 A 
BRANCH   8  11
ATOM     11  O   UNL     1      12.313  15.997  18.338  0.00  0.00    +0.000 OA
BRANCH  11  12
ATOM     12  C   UNL     1      11.449  17.088  18.675  0.00  0.00    +0.000 C 
BRANCH  12  13
ATOM     13  C   UNL     1      11.162  17.167  20.156  0.00  0.00    +0.000 A 
ATOM     14  C   UNL     1       9.869  17.030  20.679  0.00  0.00    +0.000 A 
ATOM     15  C   UNL     1       9.662  17.013  22.063  0.00  0.00    +0.000 A 
ATOM     16  C   UNL     1      10.740  17.119  22.934  0.00  0.00    +0.000 A 
ATOM     17  C   UNL     1      12.033  17.245  22.430  0.00  0.00    +0.000 A 
ATOM     18  C   UNL     1      12.242  17.269  21.050  0.00  0.00    +0.000 A 
ENDBRANCH  12  13
ENDBRANCH  11  12
ENDBRANCH   8  11
ENDBRANCH   3   5
BRANCH   2  19
ATOM     19  C   UNL     1       8.950   8.762  18.937  0.00  0.00    +0.000 C 
BRANCH  19  20
ATOM     20  O   UNL     1       8.067   8.657  17.822  0.00  0.00    +0.000 OA
BRANCH  20  21
ATOM     21  C   UNL     1       7.249   7.549  17.797  0.00  0.00    +0.000 A 
ATOM     22  C   UNL     1       6.047   7.456  17.089  0.00  0.00    +0.000 A 
ATOM     23  C   UNL     1       5.258   6.303  17.176  0.00  0.00    +0.000 A 
ATOM     24  C   UNL     1       5.660   5.226  17.972  0.00  0.00    +0.000 A 
ATOM     25  C   UNL     1       6.882   5.282  18.644  0.00  0.00    +0.000 A 
ATOM     26  C   UNL     1       7.678   6.438  18.536  0.00  0.00    +0.000 A 
BRANCH  24  27
ATOM     27  S   UNL     1       4.488   3.928  18.312  0.00  0.00    +0.000 S 
ATOM     28  O   UNL     1       4.308   3.206  17.069  0.00  0.00    +0.000 OA
ATOM     29  O   UNL     1       4.961   3.224  19.488  0.00  0.00    +0.000 OA
BRANCH  27  30
ATOM     30  N   UNL     1       2.996   4.657  18.696  0.00  0.00    +0.000 NA
ATOM     31  C   UNL     1       2.629   4.815  20.136  0.00  0.00    +0.000 C 
ATOM     32  C   UNL     1       2.175   3.493  20.768  0.00  0.00    +0.000 C 
ATOM     33  O   UNL     1       1.094   2.893  20.039  0.00  0.00    +0.000 OA
ATOM     34  C   UNL     1       1.422   2.691  18.656  0.00  0.00    +0.000 C 
ATOM     35  C   UNL     1       1.828   4.013  17.986  0.00  0.00    +0.000 C 
ENDBRANCH  27  30
ENDBRANCH  24  27
ENDBRANCH  20  21
ENDBRANCH  19  20
ENDBRANCH   2  19
TORSDOF 9
ENDMDL
MODEL 8
REMARK VINA RESULT:      -7.3      0.891      1.568
REMARK  Name = 
REMARK  9 active torsions:
REMARK  status: ('A' for Active; 'I' for Inactive)
REMARK    1  A    between atoms: C_2  and  C_3
REMARK    2  A    between atoms: C_3  and  O_4
REMARK    3  A    between atoms: O_4  and  C_5
REMARK    4  A    between atoms: C_8  and  S_9
REMARK    5  A    between atoms: S_9  and  N_12
REMARK    6  A    between atoms: N_20  and  C_21
REMARK    7  A    between atoms: C_24  and  O_25
REMARK    8  A    between atoms: O_25  and  C_26
REMARK    9  A    between atoms: C_26  and  C_27
REMARK                            x       y       z     vdW  Elec       q    Type
REMARK                         _______ _______ _______ _____ _____    ______ ____
ROOT
ATOM      1  O   UNL     1       8.566   7.437  19.060  0.00  0.00    +0.000 OA
ATOM      2  C   UNL     1       8.305   8.244  18.170  0.00  0.00    +0.000 C 
ATOM      3  N   UNL     1       7.321   8.090  17.203  0.00  0.00    +0.000 N 
ATOM      4  H   UNL     1       7.276   8.798  16.481  0.00  0.00    +0.000 HD
ENDROOT
BRANCH   3   5
ATOM      5  C   UNL     1       6.394   7.023  17.090  0.00  0.00    +0.000 A 
ATOM      6  C   UNL     1       5.026   7.106  17.391  0.00  0.00    +0.000 A 
ATOM      7  C   UNL     1       4.187   5.996  17.237  0.00  0.00    +0.000 A 
ATOM      8  C   UNL     1       4.692   4.784  16.758  0.00  0.00    +0.000 A 
ATOM      9  C   UNL     1       6.054   4.689  16.476  0.00  0.00    +0.000 A 
ATOM     10  C   UNL     1       6.891   5.799  16.626  0.00  0.00    +0.000 A 
BRANCH   8  11
ATOM     11  O   UNL     1       3.793   3.763  16.607  0.00  0.00    +0.000 OA
BRANCH  11  12
ATOM     12  C   UNL     1       3.871   2.731  17.597  0.00  0.00    +0.000 C 
BRANCH  12  13
ATOM     13  C   UNL     1       2.887   2.932  18.726  0.00  0.00    +0.000 A 
ATOM     14  C   UNL     1       1.513   2.699  18.575  0.00  0.00    +0.000 A 
ATOM     15  C   UNL     1       0.652   2.805  19.673  0.00  0.00    +0.000 A 
ATOM     16  C   UNL     1       1.153   3.130  20.928  0.00  0.00    +0.000 A 
ATOM     17  C   UNL     1       2.518   3.354  21.096  0.00  0.00    +0.000 A 
ATOM     18  C   UNL     1       3.378   3.256  20.002  0.00  0.00    +0.000 A 
ENDBRANCH  12  13
ENDBRANCH  11  12
ENDBRANCH   8  11
ENDBRANCH   3   5
BRANCH   2  19
ATOM     19  C   UNL     1       9.050   9.590  18.098  0.00  0.00    +0.000 C 
BRANCH  19  20
ATOM     20  O   UNL     1       8.197  10.716  17.901  0.00  0.00    +0.000 OA
BRANCH  20  21
ATOM     21  C   UNL     1       8.819  11.942  17.818  0.00  0.00    +0.000 A 
ATOM     22  C   UNL     1      10.193  12.134  17.643  0.00  0.00    +0.000 A 
ATOM     23  C   UNL     1      10.735  13.424  17.630  0.00  0.00    +0.000 A 
ATOM     24  C   UNL     1       9.911  14.542  17.793  0.00  0.00    +0.000 A 
ATOM     25  C   UNL     1       8.531  14.371  17.918  0.00  0.00    +0.000 A 
ATOM     26  C   UNL     1       7.992  13.070  17.911  0.00  0.00    +0.000 A 
BRANCH  24  27
ATOM     27  S   UNL     1      10.668  16.126  18.096  0.00  0.00    +0.000 S 
ATOM     28  O   UNL     1      11.661  16.308  17.058  0.00  0.00    +0.000 OA
ATOM     29  O   UNL     1       9.594  17.091  18.239  0.00  0.00    +0.000 OA
BRANCH  27  30
ATOM     30  N   UNL     1      11.496  16.036  19.583  0.00  0.00    +0.000 NA
ATOM     31  C   UNL     1      10.825  15.362  20.735  0.00  0.00    +0.000 C 
ATOM     32  C   UNL     1       9.736  16.239  21.366  0.00  0.00    +0.000 C 
ATOM     33  O   UNL     1      10.243  17.521  21.763  0.00  0.00    +0.000 OA
ATOM     34  C   UNL     1      10.866  18.217  20.672  0.00  0.00    +0.000 C 
ATOM     35  C   UNL     1      11.998  17.380  20.057  0.00  0.00    +0.000 C 
ENDBRANCH  27  30
ENDBRANCH  24  27
ENDBRANCH  20  21
ENDBRANCH  19  20
ENDBRANCH   2  19
TORSDOF 9
ENDMDL
MODEL 9
REMARK VINA RESULT:      -7.3      8.490     10.834
REMARK  Name = 
REMARK  9 active torsions:
REMARK  status: ('A' for Active; 'I' for Inactive)
REMARK    1  A    between atoms: C_2  and  C_3
REMARK    2  A    between atoms: C_3  and  O_4
REMARK    3  A    between atoms: O_4  and  C_5
REMARK    4  A    between atoms: C_8  and  S_9
REMARK    5  A    between atoms: S_9  and  N_12
REMARK    6  A    between atoms: N_20  and  C_21
REMARK    7  A    between atoms: C_24  and  O_25
REMARK    8  A    between atoms: O_25  and  C_26
REMARK    9  A    between atoms: C_26  and  C_27
REMARK                            x       y       z     vdW  Elec       q    Type
REMARK                         _______ _______ _______ _____ _____    ______ ____
ROOT
ATOM      1  O   UNL     1       1.140   9.154  19.723  0.00  0.00    +0.000 OA
ATOM      2  C   UNL     1       1.140   8.507  20.768  0.00  0.00    +0.000 C 
ATOM      3  N   UNL     1       1.656   7.229  20.927  0.00  0.00    +0.000 N 
ATOM      4  H   UNL     1       1.511   6.785  21.825  0.00  0.00    +0.000 HD
ENDROOT
BRANCH   3   5
ATOM      5  C   UNL     1       2.333   6.453  19.951  0.00  0.00    +0.000 A 
ATOM      6  C   UNL     1       2.743   5.122  20.119  0.00  0.00    +0.000 A 
ATOM      7  C   UNL     1       3.399   4.436  19.090  0.00  0.00    +0.000 A 
ATOM      8  C   UNL     1       3.639   5.057  17.861  0.00  0.00    +0.000 A 
ATOM      9  C   UNL     1       3.252   6.385  17.694  0.00  0.00    +0.000 A 
ATOM     10  C   UNL     1       2.594   7.069  18.721  0.00  0.00    +0.000 A 
BRANCH   8  11
ATOM     11  O   UNL     1       4.254   4.299  16.902  0.00  0.00    +0.000 OA
BRANCH  11  12
ATOM     12  C   UNL     1       5.233   4.988  16.116  0.00  0.00    +0.000 C 
BRANCH  12  13
ATOM     13  C   UNL     1       6.304   5.639  16.961  0.00  0.00    +0.000 A 
ATOM     14  C   UNL     1       6.658   6.988  16.816  0.00  0.00    +0.000 A 
ATOM     15  C   UNL     1       7.587   7.573  17.685  0.00  0.00    +0.000 A 
ATOM     16  C   UNL     1       8.157   6.825  18.708  0.00  0.00    +0.000 A 
ATOM     17  C   UNL     1       7.807   5.487  18.872  0.00  0.00    +0.000 A 
ATOM     18  C   UNL     1       6.887   4.898  18.004  0.00  0.00    +0.000 A 
ENDBRANCH  12  13
ENDBRANCH  11  12
ENDBRANCH   8  11
ENDBRANCH   3   5
BRANCH   2  19
ATOM     19  C   UNL     1       0.595   9.129  22.067  0.00  0.00    +0.000 C 
BRANCH  19  20
ATOM     20  O   UNL     1       0.780  10.540  22.158  0.00  0.00    +0.000 OA
BRANCH  20  21
ATOM     21  C   UNL     1      -0.349  11.312  22.000  0.00  0.00    +0.000 A 
ATOM     22  C   UNL     1      -0.623  12.112  20.886  0.00  0.00    +0.000 A 
ATOM     23  C   UNL     1      -1.776  12.907  20.848  0.00  0.00    +0.000 A 
ATOM     24  C   UNL     1      -2.670  12.912  21.923  0.00  0.00    +0.000 A 
ATOM     25  C   UNL     1      -2.438  12.081  23.019  0.00  0.00    +0.000 A 
ATOM     26  C   UNL     1      -1.286  11.271  23.042  0.00  0.00    +0.000 A 
BRANCH  24  27
ATOM     27  S   UNL     1      -3.935  14.166  21.976  0.00  0.00    +0.000 S 
ATOM     28  O   UNL     1      -4.689  13.932  23.191  0.00  0.00    +0.000 OA
ATOM     29  O   UNL     1      -3.277  15.443  21.775  0.00  0.00    +0.000 OA
BRANCH  27  30
ATOM     30  N   UNL     1      -4.990  13.904  20.664  0.00  0.00    +0.000 NA
ATOM     31  C   UNL     1      -6.080  14.895  20.415  0.00  0.00    +0.000 C 
ATOM     32  C   UNL     1      -7.238  14.746  21.409  0.00  0.00    +0.000 C 
ATOM     33  O   UNL     1      -7.768  13.413  21.421  0.00  0.00    +0.000 OA
ATOM     34  C   UNL     1      -6.756  12.433  21.693  0.00  0.00    +0.000 C 
ATOM     35  C   UNL     1      -5.608  12.525  20.675  0.00  0.00    +0.000 C 
ENDBRANCH  27  30
ENDBRANCH  24  27
ENDBRANCH  20  21
ENDBRANCH  19  20
ENDBRANCH   2  19
TORSDOF 9
ENDMDL
