MODEL 1
REMARK VINA RESULT:      -9.1      0.000      0.000
REMARK  Name = 
REMARK  5 active torsions:
REMARK  status: ('A' for Active; 'I' for Inactive)
REMARK    1  A    between atoms: C_2  and  C_4
REMARK    2  A    between atoms: C_8  and  C_9
REMARK    3  A    between atoms: C_16  and  C_17
REMARK    4  A    between atoms: N_19  and  C_20
REMARK    5  A    between atoms: C_20  and  C_21
REMARK                            x       y       z     vdW  Elec       q    Type
REMARK                         _______ _______ _______ _____ _____    ______ ____
ROOT
ATOM      1  C   UNL     1       2.936   3.512  19.978  0.00  0.00    +0.000 A 
ATOM      2  N   UNL     1       3.816   2.532  19.520  0.00  0.00    +0.000 NA
ATOM      3  C   UNL     1       4.435   3.075  18.496  0.00  0.00    +0.000 A 
ATOM      4  N   UNL     1       4.012   4.357  18.249  0.00  0.00    +0.000 N 
ATOM      5  C   UNL     1       4.401   5.272  17.268  0.00  0.00    +0.000 A 
ATOM      6  C   UNL     1       3.832   6.492  17.264  0.00  0.00    +0.000 A 
ATOM      7  C   UNL     1       2.804   6.757  18.327  0.00  0.00    +0.000 A 
ATOM      8  N   UNL     1       2.427   5.895  19.234  0.00  0.00    +0.000 NA
ATOM      9  C   UNL     1       3.041   4.666  19.204  0.00  0.00    +0.000 A 
ENDROOT
BRANCH   5  10
ATOM     10  C   UNL     1       5.383   4.970  16.213  0.00  0.00    +0.000 A 
ATOM     11  C   UNL     1       6.701   5.433  16.300  0.00  0.00    +0.000 A 
ATOM     12  C   UNL     1       7.586   5.248  15.233  0.00  0.00    +0.000 A 
ATOM     13  C   UNL     1       7.158   4.604  14.074  0.00  0.00    +0.000 A 
ATOM     14  C   UNL     1       5.853   4.122  13.986  0.00  0.00    +0.000 A 
ATOM     15  C   UNL     1       4.969   4.298  15.052  0.00  0.00    +0.000 A 
ENDBRANCH   5  10
BRANCH   1  17
ATOM     16  N   UNL     1       0.724   3.442  20.848  0.00  0.00    +0.000 N 
ATOM     17  C   UNL     1       2.057   3.295  21.124  0.00  0.00    +0.000 C 
ATOM     18  O   UNL     1       2.429   3.003  22.261  0.00  0.00    +0.000 OA
ATOM     19  H   UNL     1       0.059   3.289  21.591  0.00  0.00    +0.000 HD
ATOM     20  H   UNL     1       0.416   3.681  19.915  0.00  0.00    +0.000 HD
ENDBRANCH   1  17
BRANCH   7  21
ATOM     21  C   UNL     1       2.190   8.167  18.322  0.00  0.00    +0.000 C 
ATOM     22  O   UNL     1       2.360   8.882  17.340  0.00  0.00    +0.000 OA
ATOM     23  N   UNL     1       1.498   8.558  19.446  0.00  0.00    +0.000 N 
ATOM     24  H   UNL     1       1.311   7.870  20.175  0.00  0.00    +0.000 HD
BRANCH  23  25
ATOM     25  C   UNL     1       0.910   9.883  19.549  0.00  0.00    +0.000 C 
BRANCH  25  26
ATOM     26  C   UNL     1       0.125  10.130  20.821  0.00  0.00    +0.000 A 
ATOM     27  C   UNL     1       0.285   9.298  21.929  0.00  0.00    +0.000 A 
ATOM     28  C   UNL     1      -0.345   9.634  23.127  0.00  0.00    +0.000 A 
ATOM     29  C   UNL     1      -1.123  10.783  23.191  0.00  0.00    +0.000 A 
ATOM     30  C   UNL     1      -1.256  11.541  22.041  0.00  0.00    +0.000 A 
ATOM     31  N   UNL     1      -0.650  11.246  20.867  0.00  0.00    +0.000 NA
ENDBRANCH  25  26
ENDBRANCH  23  25
ENDBRANCH   7  21
TORSDOF 5
ENDMDL
MODEL 2
REMARK VINA RESULT:      -8.7      0.562      1.308
REMARK  Name = 
REMARK  5 active torsions:
REMARK  status: ('A' for Active; 'I' for Inactive)
REMARK    1  A    between atoms: C_2  and  C_4
REMARK    2  A    between atoms: C_8  and  C_9
REMARK    3  A    between atoms: C_16  and  C_17
REMARK    4  A    between atoms: N_19  and  C_20
REMARK    5  A    between atoms: C_20  and  C_21
REMARK                            x       y       z     vdW  Elec       q    Type
REMARK                         _______ _______ _______ _____ _____    ______ ____
ROOT
ATOM      1  C   UNL     1       2.822   3.701  19.898  0.00  0.00    +0.000 A 
ATOM      2  N   UNL     1       3.702   2.727  19.427  0.00  0.00    +0.000 NA
ATOM      3  C   UNL     1       4.329   3.289  18.417  0.00  0.00    +0.000 A 
ATOM      4  N   UNL     1       3.910   4.576  18.192  0.00  0.00    +0.000 N 
ATOM      5  C   UNL     1       4.307   5.509  17.231  0.00  0.00    +0.000 A 
ATOM      6  C   UNL     1       3.742   6.730  17.248  0.00  0.00    +0.000 A 
ATOM      7  C   UNL     1       2.708   6.978  18.310  0.00  0.00    +0.000 A 
ATOM      8  N   UNL     1       2.324   6.099  19.198  0.00  0.00    +0.000 NA
ATOM      9  C   UNL     1       2.935   4.869  19.148  0.00  0.00    +0.000 A 
ENDROOT
BRANCH   5  10
ATOM     10  C   UNL     1       5.294   5.224  16.176  0.00  0.00    +0.000 A 
ATOM     11  C   UNL     1       4.928   4.537  15.012  0.00  0.00    +0.000 A 
ATOM     12  C   UNL     1       5.900   4.161  14.080  0.00  0.00    +0.000 A 
ATOM     13  C   UNL     1       7.241   4.466  14.307  0.00  0.00    +0.000 A 
ATOM     14  C   UNL     1       7.612   5.167  15.453  0.00  0.00    +0.000 A 
ATOM     15  C   UNL     1       6.643   5.551  16.382  0.00  0.00    +0.000 A 
ENDBRANCH   5  10
BRANCH   1  17
ATOM     16  N   UNL     1       0.630   3.232  20.694  0.00  0.00    +0.000 N 
ATOM     17  C   UNL     1       1.935   3.464  21.035  0.00  0.00    +0.000 C 
ATOM     18  O   UNL     1       2.281   3.462  22.217  0.00  0.00    +0.000 OA
ATOM     19  H   UNL     1      -0.034   3.044  21.430  0.00  0.00    +0.000 HD
ATOM     20  H   UNL     1       0.346   3.233  19.723  0.00  0.00    +0.000 HD
ENDBRANCH   1  17
BRANCH   7  21
ATOM     21  C   UNL     1       2.097   8.389  18.329  0.00  0.00    +0.000 C 
ATOM     22  O   UNL     1       2.166   9.076  17.315  0.00  0.00    +0.000 OA
ATOM     23  N   UNL     1       1.526   8.814  19.507  0.00  0.00    +0.000 N 
ATOM     24  H   UNL     1       1.414   8.147  20.270  0.00  0.00    +0.000 HD
BRANCH  23  25
ATOM     25  C   UNL     1       0.952  10.143  19.632  0.00  0.00    +0.000 C 
BRANCH  25  26
ATOM     26  C   UNL     1       0.252  10.409  20.950  0.00  0.00    +0.000 A 
ATOM     27  C   UNL     1      -0.597  11.506  21.096  0.00  0.00    +0.000 A 
ATOM     28  C   UNL     1      -1.332  11.643  22.274  0.00  0.00    +0.000 A 
ATOM     29  C   UNL     1      -1.198  10.692  23.277  0.00  0.00    +0.000 A 
ATOM     30  C   UNL     1      -0.314   9.648  23.068  0.00  0.00    +0.000 A 
ATOM     31  N   UNL     1       0.406   9.483  21.933  0.00  0.00    +0.000 NA
ENDBRANCH  25  26
ENDBRANCH  23  25
ENDBRANCH   7  21
TORSDOF 5
ENDMDL
MODEL 3
REMARK VINA RESULT:      -8.5      5.077      7.698
REMARK  Name = 
REMARK  5 active torsions:
REMARK  status: ('A' for Active; 'I' for Inactive)
REMARK    1  A    between atoms: C_2  and  C_4
REMARK    2  A    between atoms: C_8  and  C_9
REMARK    3  A    between atoms: C_16  and  C_17
REMARK    4  A    between atoms: N_19  and  C_20
REMARK    5  A    between atoms: C_20  and  C_21
REMARK                            x       y       z     vdW  Elec       q    Type
REMARK                         _______ _______ _______ _____ _____    ______ ____
ROOT
ATOM      1  C   UNL     1       6.695   4.812  13.930  0.00  0.00    +0.000 A 
ATOM      2  N   UNL     1       5.594   4.025  13.590  0.00  0.00    +0.000 NA
ATOM      3  C   UNL     1       4.893   3.918  14.697  0.00  0.00    +0.000 A 
ATOM      4  N   UNL     1       5.469   4.585  15.748  0.00  0.00    +0.000 N 
ATOM      5  C   UNL     1       5.060   4.719  17.078  0.00  0.00    +0.000 A 
ATOM      6  C   UNL     1       5.812   5.461  17.911  0.00  0.00    +0.000 A 
ATOM      7  C   UNL     1       7.051   6.080  17.327  0.00  0.00    +0.000 A 
ATOM      8  N   UNL     1       7.443   5.940  16.088  0.00  0.00    +0.000 NA
ATOM      9  C   UNL     1       6.639   5.181  15.272  0.00  0.00    +0.000 A 
ENDROOT
BRANCH   5  10
ATOM     10  C   UNL     1       3.862   4.067  17.633  0.00  0.00    +0.000 A 
ATOM     11  C   UNL     1       3.897   2.733  18.057  0.00  0.00    +0.000 A 
ATOM     12  C   UNL     1       2.722   2.091  18.460  0.00  0.00    +0.000 A 
ATOM     13  C   UNL     1       1.508   2.774  18.438  0.00  0.00    +0.000 A 
ATOM     14  C   UNL     1       1.467   4.108  18.036  0.00  0.00    +0.000 A 
ATOM     15  C   UNL     1       2.639   4.756  17.640  0.00  0.00    +0.000 A 
ENDBRANCH   5  10
BRANCH   1  17
ATOM     16  N   UNL     1       8.757   5.906  13.475  0.00  0.00    +0.000 N 
ATOM     17  C   UNL     1       7.725   5.170  12.958  0.00  0.00    +0.000 C 
ATOM     18  O   UNL     1       7.716   4.862  11.766  0.00  0.00    +0.000 OA
ATOM     19  H   UNL     1       9.512   6.173  12.863  0.00  0.00    +0.000 HD
ATOM     20  H   UNL     1       8.766   6.159  14.455  0.00  0.00    +0.000 HD
ENDBRANCH   1  17
BRANCH   7  21
ATOM     21  C   UNL     1       7.879   6.948  18.289  0.00  0.00    +0.000 C 
ATOM     22  O   UNL     1       8.284   6.450  19.334  0.00  0.00    +0.000 OA
ATOM     23  N   UNL     1       8.096   8.258  17.928  0.00  0.00    +0.000 N 
ATOM     24  H   UNL     1       7.818   8.567  16.997  0.00  0.00    +0.000 HD
BRANCH  23  25
ATOM     25  C   UNL     1       8.839   9.165  18.788  0.00  0.00    +0.000 C 
BRANCH  25  26
ATOM     26  C   UNL     1       9.082  10.540  18.197  0.00  0.00    +0.000 A 
ATOM     27  C   UNL     1       8.011  11.354  17.825  0.00  0.00    +0.000 A 
ATOM     28  C   UNL     1       8.265  12.664  17.417  0.00  0.00    +0.000 A 
ATOM     29  C   UNL     1       9.573  13.126  17.381  0.00  0.00    +0.000 A 
ATOM     30  C   UNL     1      10.583  12.250  17.737  0.00  0.00    +0.000 A 
ATOM     31  N   UNL     1      10.368  10.977  18.147  0.00  0.00    +0.000 NA
ENDBRANCH  25  26
ENDBRANCH  23  25
ENDBRANCH   7  21
TORSDOF 5
ENDMDL
MODEL 4
REMARK VINA RESULT:      -8.5      2.385      8.126
REMARK  Name = 
REMARK  5 active torsions:
REMARK  status: ('A' for Active; 'I' for Inactive)
REMARK    1  A    between atoms: C_2  and  C_4
REMARK    2  A    between atoms: C_8  and  C_9
REMARK    3  A    between atoms: C_16  and  C_17
REMARK    4  A    between atoms: N_19  and  C_20
REMARK    5  A    between atoms: C_20  and  C_21
REMARK                            x       y       z     vdW  Elec       q    Type
REMARK                         _______ _______ _______ _____ _____    ______ ____
ROOT
ATOM      1  C   UNL     1       3.787   3.367  19.726  0.00  0.00    +0.000 A 
ATOM      2  N   UNL     1       2.874   3.777  20.697  0.00  0.00    +0.000 NA
ATOM      3  C   UNL     1       2.523   4.995  20.349  0.00  0.00    +0.000 A 
ATOM      4  N   UNL     1       3.155   5.414  19.206  0.00  0.00    +0.000 N 
ATOM      5  C   UNL     1       3.072   6.623  18.510  0.00  0.00    +0.000 A 
ATOM      6  C   UNL     1       3.794   6.768  17.384  0.00  0.00    +0.000 A 
ATOM      7  C   UNL     1       4.647   5.599  16.977  0.00  0.00    +0.000 A 
ATOM      8  N   UNL     1       4.739   4.475  17.638  0.00  0.00    +0.000 NA
ATOM      9  C   UNL     1       3.977   4.370  18.778  0.00  0.00    +0.000 A 
ENDROOT
BRANCH   5  10
ATOM     10  C   UNL     1       2.257   7.767  18.954  0.00  0.00    +0.000 A 
ATOM     11  C   UNL     1       1.795   7.854  20.273  0.00  0.00    +0.000 A 
ATOM     12  C   UNL     1       0.917   8.876  20.646  0.00  0.00    +0.000 A 
ATOM     13  C   UNL     1       0.495   9.813  19.705  0.00  0.00    +0.000 A 
ATOM     14  C   UNL     1       0.965   9.746  18.395  0.00  0.00    +0.000 A 
ATOM     15  C   UNL     1       1.848   8.731  18.020  0.00  0.00    +0.000 A 
ENDBRANCH   5  10
BRANCH   1  17
ATOM     16  N   UNL     1       4.139   1.270  18.662  0.00  0.00    +0.000 N 
ATOM     17  C   UNL     1       4.415   2.049  19.753  0.00  0.00    +0.000 C 
ATOM     18  O   UNL     1       5.139   1.624  20.655  0.00  0.00    +0.000 OA
ATOM     19  H   UNL     1       4.554   0.352  18.608  0.00  0.00    +0.000 HD
ATOM     20  H   UNL     1       3.544   1.617  17.921  0.00  0.00    +0.000 HD
ENDBRANCH   1  17
BRANCH   7  21
ATOM     21  C   UNL     1       5.441   5.776  15.672  0.00  0.00    +0.000 C 
ATOM     22  O   UNL     1       5.375   6.849  15.082  0.00  0.00    +0.000 OA
ATOM     23  N   UNL     1       6.165   4.695  15.223  0.00  0.00    +0.000 N 
ATOM     24  H   UNL     1       6.253   3.876  15.823  0.00  0.00    +0.000 HD
BRANCH  23  25
ATOM     25  C   UNL     1       6.920   4.754  13.982  0.00  0.00    +0.000 C 
BRANCH  25  26
ATOM     26  C   UNL     1       6.383   3.874  12.872  0.00  0.00    +0.000 A 
ATOM     27  C   UNL     1       7.236   3.042  12.146  0.00  0.00    +0.000 A 
ATOM     28  C   UNL     1       6.691   2.144  11.229  0.00  0.00    +0.000 A 
ATOM     29  C   UNL     1       5.314   2.102  11.050  0.00  0.00    +0.000 A 
ATOM     30  C   UNL     1       4.537   2.979  11.786  0.00  0.00    +0.000 A 
ATOM     31  N   UNL     1       5.036   3.855  12.690  0.00  0.00    +0.000 NA
ENDBRANCH  25  26
ENDBRANCH  23  25
ENDBRANCH   7  21
TORSDOF 5
ENDMDL
MODEL 5
REMARK VINA RESULT:      -8.4      1.829      2.349
REMARK  Name = 
REMARK  5 active torsions:
REMARK  status: ('A' for Active; 'I' for Inactive)
REMARK    1  A    between atoms: C_2  and  C_4
REMARK    2  A    between atoms: C_8  and  C_9
REMARK    3  A    between atoms: C_16  and  C_17
REMARK    4  A    between atoms: N_19  and  C_20
REMARK    5  A    between atoms: C_20  and  C_21
REMARK                            x       y       z     vdW  Elec       q    Type
REMARK                         _______ _______ _______ _____ _____    ______ ____
ROOT
ATOM      1  C   UNL     1       2.838   3.204  20.086  0.00  0.00    +0.000 A 
ATOM      2  N   UNL     1       3.676   2.301  19.432  0.00  0.00    +0.000 NA
ATOM      3  C   UNL     1       4.253   2.996  18.477  0.00  0.00    +0.000 A 
ATOM      4  N   UNL     1       3.841   4.305  18.461  0.00  0.00    +0.000 N 
ATOM      5  C   UNL     1       4.197   5.363  17.620  0.00  0.00    +0.000 A 
ATOM      6  C   UNL     1       3.652   6.572  17.842  0.00  0.00    +0.000 A 
ATOM      7  C   UNL     1       2.684   6.674  18.987  0.00  0.00    +0.000 A 
ATOM      8  N   UNL     1       2.337   5.680  19.762  0.00  0.00    +0.000 NA
ATOM      9  C   UNL     1       2.926   4.466  19.503  0.00  0.00    +0.000 A 
ENDROOT
BRANCH   5  10
ATOM     10  C   UNL     1       5.119   5.224  16.480  0.00  0.00    +0.000 A 
ATOM     11  C   UNL     1       4.729   4.551  15.315  0.00  0.00    +0.000 A 
ATOM     12  C   UNL     1       5.655   4.315  14.294  0.00  0.00    +0.000 A 
ATOM     13  C   UNL     1       6.973   4.746  14.432  0.00  0.00    +0.000 A 
ATOM     14  C   UNL     1       7.365   5.434  15.579  0.00  0.00    +0.000 A 
ATOM     15  C   UNL     1       6.441   5.678  16.597  0.00  0.00    +0.000 A 
ENDBRANCH   5  10
BRANCH   1  17
ATOM     16  N   UNL     1       0.667   2.935  21.019  0.00  0.00    +0.000 N 
ATOM     17  C   UNL     1       2.014   2.814  21.228  0.00  0.00    +0.000 C 
ATOM     18  O   UNL     1       2.443   2.405  22.308  0.00  0.00    +0.000 OA
ATOM     19  H   UNL     1       0.038   2.667  21.760  0.00  0.00    +0.000 HD
ATOM     20  H   UNL     1       0.314   3.271  20.132  0.00  0.00    +0.000 HD
ENDBRANCH   1  17
BRANCH   7  21
ATOM     21  C   UNL     1       2.096   8.072  19.240  0.00  0.00    +0.000 C 
ATOM     22  O   UNL     1       1.628   8.325  20.345  0.00  0.00    +0.000 OA
ATOM     23  N   UNL     1       2.106   8.961  18.189  0.00  0.00    +0.000 N 
ATOM     24  H   UNL     1       2.608   8.712  17.337  0.00  0.00    +0.000 HD
BRANCH  23  25
ATOM     25  C   UNL     1       1.543  10.294  18.321  0.00  0.00    +0.000 C 
BRANCH  25  26
ATOM     26  C   UNL     1       0.029  10.348  18.292  0.00  0.00    +0.000 A 
ATOM     27  C   UNL     1      -0.671  11.171  19.175  0.00  0.00    +0.000 A 
ATOM     28  C   UNL     1      -2.052  11.303  19.030  0.00  0.00    +0.000 A 
ATOM     29  C   UNL     1      -2.701  10.609  18.017  0.00  0.00    +0.000 A 
ATOM     30  C   UNL     1      -1.941   9.790  17.200  0.00  0.00    +0.000 A 
ATOM     31  N   UNL     1      -0.599   9.649  17.310  0.00  0.00    +0.000 NA
ENDBRANCH  25  26
ENDBRANCH  23  25
ENDBRANCH   7  21
TORSDOF 5
ENDMDL
MODEL 6
REMARK VINA RESULT:      -8.3      1.496      2.228
REMARK  Name = 
REMARK  5 active torsions:
REMARK  status: ('A' for Active; 'I' for Inactive)
REMARK    1  A    between atoms: C_2  and  C_4
REMARK    2  A    between atoms: C_8  and  C_9
REMARK    3  A    between atoms: C_16  and  C_17
REMARK    4  A    between atoms: N_19  and  C_20
REMARK    5  A    between atoms: C_20  and  C_21
REMARK                            x       y       z     vdW  Elec       q    Type
REMARK                         _______ _______ _______ _____ _____    ______ ____
ROOT
ATOM      1  C   UNL     1       2.739   3.855  19.821  0.00  0.00    +0.000 A 
ATOM      2  N   UNL     1       3.568   2.847  19.330  0.00  0.00    +0.000 NA
ATOM      3  C   UNL     1       4.219   3.394  18.327  0.00  0.00    +0.000 A 
ATOM      4  N   UNL     1       3.864   4.704  18.126  0.00  0.00    +0.000 N 
ATOM      5  C   UNL     1       4.304   5.633  17.179  0.00  0.00    +0.000 A 
ATOM      6  C   UNL     1       3.801   6.880  17.219  0.00  0.00    +0.000 A 
ATOM      7  C   UNL     1       2.785   7.160  18.290  0.00  0.00    +0.000 A 
ATOM      8  N   UNL     1       2.360   6.287  19.164  0.00  0.00    +0.000 NA
ATOM      9  C   UNL     1       2.908   5.029  19.090  0.00  0.00    +0.000 A 
ENDROOT
BRANCH   5  10
ATOM     10  C   UNL     1       5.273   5.317  16.115  0.00  0.00    +0.000 A 
ATOM     11  C   UNL     1       4.875   4.642  14.955  0.00  0.00    +0.000 A 
ATOM     12  C   UNL     1       5.826   4.236  14.014  0.00  0.00    +0.000 A 
ATOM     13  C   UNL     1       7.178   4.499  14.229  0.00  0.00    +0.000 A 
ATOM     14  C   UNL     1       7.581   5.188  15.371  0.00  0.00    +0.000 A 
ATOM     15  C   UNL     1       6.633   5.601  16.309  0.00  0.00    +0.000 A 
ENDBRANCH   5  10
BRANCH   1  17
ATOM     16  N   UNL     1       0.519   3.821  20.672  0.00  0.00    +0.000 N 
ATOM     17  C   UNL     1       1.846   3.643  20.958  0.00  0.00    +0.000 C 
ATOM     18  O   UNL     1       2.203   3.330  22.094  0.00  0.00    +0.000 OA
ATOM     19  H   UNL     1      -0.156   3.674  21.408  0.00  0.00    +0.000 HD
ATOM     20  H   UNL     1       0.224   4.077  19.739  0.00  0.00    +0.000 HD
ENDBRANCH   1  17
BRANCH   7  21
ATOM     21  C   UNL     1       2.245   8.600  18.335  0.00  0.00    +0.000 C 
ATOM     22  O   UNL     1       2.631   9.402  17.491  0.00  0.00    +0.000 OA
ATOM     23  N   UNL     1       1.371   8.914  19.351  0.00  0.00    +0.000 N 
ATOM     24  H   UNL     1       1.018   8.167  19.948  0.00  0.00    +0.000 HD
BRANCH  23  25
ATOM     25  C   UNL     1       0.833  10.257  19.496  0.00  0.00    +0.000 C 
BRANCH  25  26
ATOM     26  C   UNL     1      -0.483  10.492  18.782  0.00  0.00    +0.000 A 
ATOM     27  C   UNL     1      -0.841   9.720  17.676  0.00  0.00    +0.000 A 
ATOM     28  C   UNL     1      -2.116   9.867  17.130  0.00  0.00    +0.000 A 
ATOM     29  C   UNL     1      -2.997  10.782  17.690  0.00  0.00    +0.000 A 
ATOM     30  C   UNL     1      -2.558  11.532  18.767  0.00  0.00    +0.000 A 
ATOM     31  N   UNL     1      -1.331  11.405  19.325  0.00  0.00    +0.000 NA
ENDBRANCH  25  26
ENDBRANCH  23  25
ENDBRANCH   7  21
TORSDOF 5
ENDMDL
MODEL 7
REMARK VINA RESULT:      -8.2      2.866      5.235
REMARK  Name = 
REMARK  5 active torsions:
REMARK  status: ('A' for Active; 'I' for Inactive)
REMARK    1  A    between atoms: C_2  and  C_4
REMARK    2  A    between atoms: C_8  and  C_9
REMARK    3  A    between atoms: C_16  and  C_17
REMARK    4  A    between atoms: N_19  and  C_20
REMARK    5  A    between atoms: C_20  and  C_21
REMARK                            x       y       z     vdW  Elec       q    Type
REMARK                         _______ _______ _______ _____ _____    ______ ____
ROOT
ATOM      1  C   UNL     1       5.918   5.788  17.348  0.00  0.00    +0.000 A 
ATOM      2  N   UNL     1       6.025   4.464  17.774  0.00  0.00    +0.000 NA
ATOM      3  C   UNL     1       4.930   4.234  18.463  0.00  0.00    +0.000 A 
ATOM      4  N   UNL     1       4.107   5.330  18.519  0.00  0.00    +0.000 N 
ATOM      5  C   UNL     1       2.869   5.510  19.143  0.00  0.00    +0.000 A 
ATOM      6  C   UNL     1       2.254   6.700  19.020  0.00  0.00    +0.000 A 
ATOM      7  C   UNL     1       2.973   7.749  18.218  0.00  0.00    +0.000 A 
ATOM      8  N   UNL     1       4.139   7.586  17.650  0.00  0.00    +0.000 NA
ATOM      9  C   UNL     1       4.725   6.352  17.795  0.00  0.00    +0.000 A 
ENDROOT
BRANCH   5  10
ATOM     10  C   UNL     1       2.207   4.476  19.956  0.00  0.00    +0.000 A 
ATOM     11  C   UNL     1       2.564   4.273  21.295  0.00  0.00    +0.000 A 
ATOM     12  C   UNL     1       2.020   3.206  22.015  0.00  0.00    +0.000 A 
ATOM     13  C   UNL     1       1.120   2.335  21.403  0.00  0.00    +0.000 A 
ATOM     14  C   UNL     1       0.745   2.541  20.077  0.00  0.00    +0.000 A 
ATOM     15  C   UNL     1       1.280   3.610  19.356  0.00  0.00    +0.000 A 
ENDBRANCH   5  10
BRANCH   1  17
ATOM     16  N   UNL     1       7.360   7.649  17.011  0.00  0.00    +0.000 N 
ATOM     17  C   UNL     1       6.949   6.432  16.538  0.00  0.00    +0.000 C 
ATOM     18  O   UNL     1       7.441   5.963  15.511  0.00  0.00    +0.000 OA
ATOM     19  H   UNL     1       8.083   8.141  16.509  0.00  0.00    +0.000 HD
ATOM     20  H   UNL     1       6.956   8.034  17.855  0.00  0.00    +0.000 HD
ENDBRANCH   1  17
BRANCH   7  21
ATOM     21  C   UNL     1       2.238   9.091  18.066  0.00  0.00    +0.000 C 
ATOM     22  O   UNL     1       2.571   9.848  17.160  0.00  0.00    +0.000 OA
ATOM     23  N   UNL     1       1.255   9.380  18.985  0.00  0.00    +0.000 N 
ATOM     24  H   UNL     1       0.965   8.656  19.642  0.00  0.00    +0.000 HD
BRANCH  23  25
ATOM     25  C   UNL     1       0.527  10.638  18.944  0.00  0.00    +0.000 C 
BRANCH  25  26
ATOM     26  C   UNL     1      -0.887  10.533  18.409  0.00  0.00    +0.000 A 
ATOM     27  C   UNL     1      -1.914  11.301  18.958  0.00  0.00    +0.000 A 
ATOM     28  C   UNL     1      -3.171  11.285  18.352  0.00  0.00    +0.000 A 
ATOM     29  C   UNL     1      -3.375  10.502  17.224  0.00  0.00    +0.000 A 
ATOM     30  C   UNL     1      -2.315   9.747  16.756  0.00  0.00    +0.000 A 
ATOM     31  N   UNL     1      -1.082   9.748  17.316  0.00  0.00    +0.000 NA
ENDBRANCH  25  26
ENDBRANCH  23  25
ENDBRANCH   7  21
TORSDOF 5
ENDMDL
MODEL 8
REMARK VINA RESULT:      -8.2      4.994      7.590
REMARK  Name = 
REMARK  5 active torsions:
REMARK  status: ('A' for Active; 'I' for Inactive)
REMARK    1  A    between atoms: C_2  and  C_4
REMARK    2  A    between atoms: C_8  and  C_9
REMARK    3  A    between atoms: C_16  and  C_17
REMARK    4  A    between atoms: N_19  and  C_20
REMARK    5  A    between atoms: C_20  and  C_21
REMARK                            x       y       z     vdW  Elec       q    Type
REMARK                         _______ _______ _______ _____ _____    ______ ____
ROOT
ATOM      1  C   UNL     1       6.691   4.806  13.846  0.00  0.00    +0.000 A 
ATOM      2  N   UNL     1       5.582   4.055  13.457  0.00  0.00    +0.000 NA
ATOM      3  C   UNL     1       4.857   3.923  14.545  0.00  0.00    +0.000 A 
ATOM      4  N   UNL     1       5.425   4.539  15.631  0.00  0.00    +0.000 N 
ATOM      5  C   UNL     1       4.993   4.633  16.956  0.00  0.00    +0.000 A 
ATOM      6  C   UNL     1       5.742   5.329  17.830  0.00  0.00    +0.000 A 
ATOM      7  C   UNL     1       7.005   5.942  17.293  0.00  0.00    +0.000 A 
ATOM      8  N   UNL     1       7.418   5.840  16.058  0.00  0.00    +0.000 NA
ATOM      9  C   UNL     1       6.616   5.127  15.199  0.00  0.00    +0.000 A 
ENDROOT
BRANCH   5  10
ATOM     10  C   UNL     1       3.770   3.987  17.463  0.00  0.00    +0.000 A 
ATOM     11  C   UNL     1       2.615   4.734  17.725  0.00  0.00    +0.000 A 
ATOM     12  C   UNL     1       1.506   4.130  18.325  0.00  0.00    +0.000 A 
ATOM     13  C   UNL     1       1.546   2.780  18.671  0.00  0.00    +0.000 A 
ATOM     14  C   UNL     1       2.685   2.024  18.396  0.00  0.00    +0.000 A 
ATOM     15  C   UNL     1       3.791   2.622  17.789  0.00  0.00    +0.000 A 
ENDBRANCH   5  10
BRANCH   1  17
ATOM     16  N   UNL     1       8.771   5.895  13.467  0.00  0.00    +0.000 N 
ATOM     17  C   UNL     1       7.748   5.178  12.908  0.00  0.00    +0.000 C 
ATOM     18  O   UNL     1       7.766   4.895  11.709  0.00  0.00    +0.000 OA
ATOM     19  H   UNL     1       9.544   6.170  12.879  0.00  0.00    +0.000 HD
ATOM     20  H   UNL     1       8.758   6.127  14.451  0.00  0.00    +0.000 HD
ENDBRANCH   1  17
BRANCH   7  21
ATOM     21  C   UNL     1       7.830   6.758  18.303  0.00  0.00    +0.000 C 
ATOM     22  O   UNL     1       8.190   6.219  19.344  0.00  0.00    +0.000 OA
ATOM     23  N   UNL     1       8.097   8.070  17.985  0.00  0.00    +0.000 N 
ATOM     24  H   UNL     1       7.856   8.413  17.056  0.00  0.00    +0.000 HD
BRANCH  23  25
ATOM     25  C   UNL     1       8.842   8.930  18.890  0.00  0.00    +0.000 C 
BRANCH  25  26
ATOM     26  C   UNL     1       8.914  10.383  18.466  0.00  0.00    +0.000 A 
ATOM     27  C   UNL     1      10.054  11.145  18.728  0.00  0.00    +0.000 A 
ATOM     28  C   UNL     1      10.143  12.434  18.202  0.00  0.00    +0.000 A 
ATOM     29  C   UNL     1       9.097  12.934  17.438  0.00  0.00    +0.000 A 
ATOM     30  C   UNL     1       7.989  12.128  17.247  0.00  0.00    +0.000 A 
ATOM     31  N   UNL     1       7.876  10.871  17.736  0.00  0.00    +0.000 NA
ENDBRANCH  25  26
ENDBRANCH  23  25
ENDBRANCH   7  21
TORSDOF 5
ENDMDL
MODEL 9
REMARK VINA RESULT:      -8.1      5.055      7.604
REMARK  Name = 
REMARK  5 active torsions:
REMARK  status: ('A' for Active; 'I' for Inactive)
REMARK    1  A    between atoms: C_2  and  C_4
REMARK    2  A    between atoms: C_8  and  C_9
REMARK    3  A    between atoms: C_16  and  C_17
REMARK    4  A    between atoms: N_19  and  C_20
REMARK    5  A    between atoms: C_20  and  C_21
REMARK                            x       y       z     vdW  Elec       q    Type
REMARK                         _______ _______ _______ _____ _____    ______ ____
ROOT
ATOM      1  C   UNL     1       6.772   4.864  13.998  0.00  0.00    +0.000 A 
ATOM      2  N   UNL     1       5.664   4.102  13.628  0.00  0.00    +0.000 NA
ATOM      3  C   UNL     1       4.955   3.970  14.727  0.00  0.00    +0.000 A 
ATOM      4  N   UNL     1       5.532   4.599  15.801  0.00  0.00    +0.000 N 
ATOM      5  C   UNL     1       5.117   4.697  17.132  0.00  0.00    +0.000 A 
ATOM      6  C   UNL     1       5.872   5.405  17.991  0.00  0.00    +0.000 A 
ATOM      7  C   UNL     1       7.122   6.026  17.434  0.00  0.00    +0.000 A 
ATOM      8  N   UNL     1       7.520   5.919  16.193  0.00  0.00    +0.000 NA
ATOM      9  C   UNL     1       6.712   5.194  15.350  0.00  0.00    +0.000 A 
ENDROOT
BRANCH   5  10
ATOM     10  C   UNL     1       3.907   4.044  17.659  0.00  0.00    +0.000 A 
ATOM     11  C   UNL     1       3.932   2.706  18.074  0.00  0.00    +0.000 A 
ATOM     12  C   UNL     1       2.749   2.063  18.450  0.00  0.00    +0.000 A 
ATOM     13  C   UNL     1       1.537   2.749  18.412  0.00  0.00    +0.000 A 
ATOM     14  C   UNL     1       1.505   4.086  18.020  0.00  0.00    +0.000 A 
ATOM     15  C   UNL     1       2.686   4.734  17.650  0.00  0.00    +0.000 A 
ENDBRANCH   5  10
BRANCH   1  17
ATOM     16  N   UNL     1       7.637   4.725  11.787  0.00  0.00    +0.000 N 
ATOM     17  C   UNL     1       7.813   5.239  13.044  0.00  0.00    +0.000 C 
ATOM     18  O   UNL     1       8.784   5.954  13.295  0.00  0.00    +0.000 OA
ATOM     19  H   UNL     1       8.310   4.958  11.073  0.00  0.00    +0.000 HD
ATOM     20  H   UNL     1       6.840   4.138  11.580  0.00  0.00    +0.000 HD
ENDBRANCH   1  17
BRANCH   7  21
ATOM     21  C   UNL     1       7.954   6.855  18.426  0.00  0.00    +0.000 C 
ATOM     22  O   UNL     1       8.340   6.323  19.462  0.00  0.00    +0.000 OA
ATOM     23  N   UNL     1       8.196   8.171  18.102  0.00  0.00    +0.000 N 
ATOM     24  H   UNL     1       7.932   8.508  17.177  0.00  0.00    +0.000 HD
BRANCH  23  25
ATOM     25  C   UNL     1       8.944   9.043  18.992  0.00  0.00    +0.000 C 
BRANCH  25  26
ATOM     26  C   UNL     1       9.052  10.481  18.526  0.00  0.00    +0.000 A 
ATOM     27  C   UNL     1      10.247  11.187  18.666  0.00  0.00    +0.000 A 
ATOM     28  C   UNL     1      10.355  12.458  18.101  0.00  0.00    +0.000 A 
ATOM     29  C   UNL     1       9.271  12.996  17.420  0.00  0.00    +0.000 A 
ATOM     30  C   UNL     1       8.111  12.246  17.349  0.00  0.00    +0.000 A 
ATOM     31  N   UNL     1       7.979  11.007  17.878  0.00  0.00    +0.000 NA
ENDBRANCH  25  26
ENDBRANCH  23  25
ENDBRANCH   7  21
TORSDOF 5
ENDMDL
