MODEL 1
REMARK VINA RESULT:      -8.3      0.000      0.000
REMARK  Name = 
REMARK  6 active torsions:
REMARK  status: ('A' for Active; 'I' for Inactive)
REMARK    1  A    between atoms: N_3  and  C_4
REMARK    2  A    between atoms: C_4  and  C_5
REMARK    3  A    between atoms: C_10  and  O_11
REMARK    4  A    between atoms: O_11  and  C_12
REMARK    5  A    between atoms: N_18  and  C_19
REMARK    6  A    between atoms: C_21  and  C_22
REMARK                            x       y       z     vdW  Elec       q    Type
REMARK                         _______ _______ _______ _____ _____    ______ ____
ROOT
ATOM      1  O   UNL     1       1.747   8.708  19.664  0.00  0.00    +0.000 OA
ATOM      2  C   UNL     1       1.650   8.904  18.462  0.00  0.00    +0.000 C 
ATOM      3  N   UNL     1       2.499   8.362  17.531  0.00  0.00    +0.000 N 
ATOM      4  N   UNL     1       0.713   9.725  17.860  0.00  0.00    +0.000 N 
ATOM      5  H   UNL     1       2.105   8.175  16.623  0.00  0.00    +0.000 HD
ATOM      6  H   UNL     1       0.794   9.876  16.866  0.00  0.00    +0.000 HD
ENDROOT
BRANCH   4   7
ATOM      7  C   UNL     1      -0.440  10.254  18.523  0.00  0.00    +0.000 C 
ATOM      8  C   UNL     1      -1.239  11.393  17.956  0.00  0.00    +0.000 C 
ATOM      9  C   UNL     1      -0.449  11.606  19.218  0.00  0.00    +0.000 C 
BRANCH   9  10
ATOM     10  C   UNL     1      -1.009  11.610  20.622  0.00  0.00    +0.000 A 
ATOM     11  C   UNL     1      -2.062  12.437  21.061  0.00  0.00    +0.000 A 
ATOM     12  C   UNL     1      -2.523  12.388  22.383  0.00  0.00    +0.000 A 
ATOM     13  C   UNL     1      -1.941  11.512  23.297  0.00  0.00    +0.000 A 
ATOM     14  C   UNL     1      -0.904  10.695  22.880  0.00  0.00    +0.000 A 
ATOM     15  F   UNL     1      -0.338   9.849  23.750  0.00  0.00    +0.000 F 
ATOM     16  C   UNL     1      -0.445  10.738  21.568  0.00  0.00    +0.000 A 
ENDBRANCH   9  10
ENDBRANCH   4   7
BRANCH   3  17
ATOM     17  C   UNL     1       3.670   7.573  17.894  0.00  0.00    +0.000 C 
BRANCH  17  18
ATOM     18  C   UNL     1       3.435   6.076  17.746  0.00  0.00    +0.000 A 
ATOM     19  C   UNL     1       2.305   5.509  18.386  0.00  0.00    +0.000 A 
ATOM     20  C   UNL     1       2.099   4.149  18.347  0.00  0.00    +0.000 A 
ATOM     21  C   UNL     1       2.940   3.318  17.663  0.00  0.00    +0.000 A 
ATOM     22  C   UNL     1       4.037   3.812  16.993  0.00  0.00    +0.000 A 
ATOM     23  C   UNL     1       4.296   5.200  17.027  0.00  0.00    +0.000 A 
ATOM     24  O   UNL     1       2.570   2.016  17.756  0.00  0.00    +0.000 OA
ATOM     25  C   UNL     1       1.412   2.123  18.611  0.00  0.00    +0.000 C 
ATOM     26  O   UNL     1       1.096   3.482  18.976  0.00  0.00    +0.000 OA
BRANCH  23  27
ATOM     27  O   UNL     1       5.488   5.501  16.429  0.00  0.00    +0.000 OA
BRANCH  27  28
ATOM     28  C   UNL     1       6.681   5.003  16.998  0.00  0.00    +0.000 C 
ATOM     29  F   UNL     1       7.415   4.454  16.000  0.00  0.00    +0.000 F 
ATOM     30  F   UNL     1       7.386   6.072  17.450  0.00  0.00    +0.000 F 
ENDBRANCH  27  28
ENDBRANCH  23  27
ENDBRANCH  17  18
ENDBRANCH   3  17
TORSDOF 6
ENDMDL
MODEL 2
REMARK VINA RESULT:      -8.3      2.538      9.381
REMARK  Name = 
REMARK  6 active torsions:
REMARK  status: ('A' for Active; 'I' for Inactive)
REMARK    1  A    between atoms: N_3  and  C_4
REMARK    2  A    between atoms: C_4  and  C_5
REMARK    3  A    between atoms: C_10  and  O_11
REMARK    4  A    between atoms: O_11  and  C_12
REMARK    5  A    between atoms: N_18  and  C_19
REMARK    6  A    between atoms: C_21  and  C_22
REMARK                            x       y       z     vdW  Elec       q    Type
REMARK                         _______ _______ _______ _____ _____    ______ ____
ROOT
ATOM      1  O   UNL     1       1.993   9.360  17.351  0.00  0.00    +0.000 OA
ATOM      2  C   UNL     1       1.758   8.949  18.478  0.00  0.00    +0.000 C 
ATOM      3  N   UNL     1       1.023   9.644  19.404  0.00  0.00    +0.000 N 
ATOM      4  N   UNL     1       2.225   7.760  19.006  0.00  0.00    +0.000 N 
ATOM      5  H   UNL     1       0.498   9.091  20.063  0.00  0.00    +0.000 HD
ATOM      6  H   UNL     1       2.036   7.575  19.981  0.00  0.00    +0.000 HD
ENDROOT
BRANCH   4   7
ATOM      7  C   UNL     1       2.827   6.715  18.235  0.00  0.00    +0.000 C 
ATOM      8  C   UNL     1       2.225   5.342  18.135  0.00  0.00    +0.000 C 
ATOM      9  C   UNL     1       3.530   5.521  18.861  0.00  0.00    +0.000 C 
BRANCH   9  10
ATOM     10  C   UNL     1       4.900   5.211  18.306  0.00  0.00    +0.000 A 
ATOM     11  C   UNL     1       6.114   5.534  18.944  0.00  0.00    +0.000 A 
ATOM     12  C   UNL     1       7.349   5.219  18.362  0.00  0.00    +0.000 A 
ATOM     13  C   UNL     1       7.399   4.577  17.127  0.00  0.00    +0.000 A 
ATOM     14  C   UNL     1       6.215   4.256  16.486  0.00  0.00    +0.000 A 
ATOM     15  F   UNL     1       6.250   3.638  15.299  0.00  0.00    +0.000 F 
ATOM     16  C   UNL     1       4.986   4.564  17.062  0.00  0.00    +0.000 A 
ENDBRANCH   9  10
ENDBRANCH   4   7
BRANCH   3  17
ATOM     17  C   UNL     1       0.528  10.995  19.168  0.00  0.00    +0.000 C 
BRANCH  17  18
ATOM     18  C   UNL     1      -0.549  11.405  20.163  0.00  0.00    +0.000 A 
ATOM     19  C   UNL     1      -1.683  12.101  19.675  0.00  0.00    +0.000 A 
ATOM     20  C   UNL     1      -2.640  12.562  20.550  0.00  0.00    +0.000 A 
ATOM     21  C   UNL     1      -2.552  12.330  21.892  0.00  0.00    +0.000 A 
ATOM     22  C   UNL     1      -1.491  11.632  22.424  0.00  0.00    +0.000 A 
ATOM     23  C   UNL     1      -0.476  11.161  21.564  0.00  0.00    +0.000 A 
ATOM     24  O   UNL     1      -3.587  12.875  22.581  0.00  0.00    +0.000 OA
ATOM     25  C   UNL     1      -4.321  13.508  21.512  0.00  0.00    +0.000 C 
ATOM     26  O   UNL     1      -3.732  13.296  20.212  0.00  0.00    +0.000 OA
BRANCH  23  27
ATOM     27  O   UNL     1       0.561  10.612  22.266  0.00  0.00    +0.000 OA
BRANCH  27  28
ATOM     28  C   UNL     1       0.423   9.300  22.770  0.00  0.00    +0.000 C 
ATOM     29  F   UNL     1       1.534   8.607  22.422  0.00  0.00    +0.000 F 
ATOM     30  F   UNL     1       0.434   9.388  24.125  0.00  0.00    +0.000 F 
ENDBRANCH  27  28
ENDBRANCH  23  27
ENDBRANCH  17  18
ENDBRANCH   3  17
TORSDOF 6
ENDMDL
MODEL 3
REMARK VINA RESULT:      -8.2      6.450     10.005
REMARK  Name = 
REMARK  6 active torsions:
REMARK  status: ('A' for Active; 'I' for Inactive)
REMARK    1  A    between atoms: N_3  and  C_4
REMARK    2  A    between atoms: C_4  and  C_5
REMARK    3  A    between atoms: C_10  and  O_11
REMARK    4  A    between atoms: O_11  and  C_12
REMARK    5  A    between atoms: N_18  and  C_19
REMARK    6  A    between atoms: C_21  and  C_22
REMARK                            x       y       z     vdW  Elec       q    Type
REMARK                         _______ _______ _______ _____ _____    ______ ____
ROOT
ATOM      1  O   UNL     1       8.183   6.999  18.766  0.00  0.00    +0.000 OA
ATOM      2  C   UNL     1       7.759   7.888  18.042  0.00  0.00    +0.000 C 
ATOM      3  N   UNL     1       8.271   9.161  18.019  0.00  0.00    +0.000 N 
ATOM      4  N   UNL     1       6.686   7.770  17.179  0.00  0.00    +0.000 N 
ATOM      5  H   UNL     1       8.216   9.648  17.139  0.00  0.00    +0.000 HD
ATOM      6  H   UNL     1       6.375   8.603  16.702  0.00  0.00    +0.000 HD
ENDROOT
BRANCH   4   7
ATOM      7  C   UNL     1       6.081   6.527  16.808  0.00  0.00    +0.000 C 
ATOM      8  C   UNL     1       5.335   6.349  15.516  0.00  0.00    +0.000 C 
ATOM      9  C   UNL     1       4.578   6.300  16.815  0.00  0.00    +0.000 C 
BRANCH   9  10
ATOM     10  C   UNL     1       4.113   5.047  17.520  0.00  0.00    +0.000 A 
ATOM     11  C   UNL     1       4.085   3.765  16.938  0.00  0.00    +0.000 A 
ATOM     12  C   UNL     1       3.634   2.649  17.656  0.00  0.00    +0.000 A 
ATOM     13  C   UNL     1       3.198   2.790  18.971  0.00  0.00    +0.000 A 
ATOM     14  C   UNL     1       3.217   4.045  19.555  0.00  0.00    +0.000 A 
ATOM     15  F   UNL     1       2.801   4.193  20.819  0.00  0.00    +0.000 F 
ATOM     16  C   UNL     1       3.667   5.155  18.848  0.00  0.00    +0.000 A 
ENDBRANCH   9  10
ENDBRANCH   4   7
BRANCH   3  17
ATOM     17  C   UNL     1       9.315   9.610  18.933  0.00  0.00    +0.000 C 
BRANCH  17  18
ATOM     18  C   UNL     1       9.588  11.104  18.820  0.00  0.00    +0.000 A 
ATOM     19  C   UNL     1      10.262  11.576  17.666  0.00  0.00    +0.000 A 
ATOM     20  C   UNL     1      10.602  12.906  17.561  0.00  0.00    +0.000 A 
ATOM     21  C   UNL     1      10.266  13.808  18.529  0.00  0.00    +0.000 A 
ATOM     22  C   UNL     1       9.582  13.416  19.658  0.00  0.00    +0.000 A 
ATOM     23  C   UNL     1       9.234  12.057  19.816  0.00  0.00    +0.000 A 
ATOM     24  O   UNL     1      10.700  15.061  18.242  0.00  0.00    +0.000 OA
ATOM     25  C   UNL     1      11.381  14.833  16.990  0.00  0.00    +0.000 C 
ATOM     26  O   UNL     1      11.305  13.464  16.542  0.00  0.00    +0.000 OA
BRANCH  23  27
ATOM     27  O   UNL     1       8.683  11.820  21.044  0.00  0.00    +0.000 OA
BRANCH  27  28
ATOM     28  C   UNL     1       8.761  12.827  22.032  0.00  0.00    +0.000 C 
ATOM     29  F   UNL     1       7.503  13.271  22.267  0.00  0.00    +0.000 F 
ATOM     30  F   UNL     1       9.179  12.232  23.179  0.00  0.00    +0.000 F 
ENDBRANCH  27  28
ENDBRANCH  23  27
ENDBRANCH  17  18
ENDBRANCH   3  17
TORSDOF 6
ENDMDL
MODEL 4
REMARK VINA RESULT:      -8.1      1.241      1.544
REMARK  Name = 
REMARK  6 active torsions:
REMARK  status: ('A' for Active; 'I' for Inactive)
REMARK    1  A    between atoms: N_3  and  C_4
REMARK    2  A    between atoms: C_4  and  C_5
REMARK    3  A    between atoms: C_10  and  O_11
REMARK    4  A    between atoms: O_11  and  C_12
REMARK    5  A    between atoms: N_18  and  C_19
REMARK    6  A    between atoms: C_21  and  C_22
REMARK                            x       y       z     vdW  Elec       q    Type
REMARK                         _______ _______ _______ _____ _____    ______ ____
ROOT
ATOM      1  O   UNL     1       1.498   9.177  19.689  0.00  0.00    +0.000 OA
ATOM      2  C   UNL     1       1.316   9.203  18.480  0.00  0.00    +0.000 C 
ATOM      3  N   UNL     1       2.138   8.586  17.572  0.00  0.00    +0.000 N 
ATOM      4  N   UNL     1       0.297   9.886  17.842  0.00  0.00    +0.000 N 
ATOM      5  H   UNL     1       1.701   8.257  16.726  0.00  0.00    +0.000 HD
ATOM      6  H   UNL     1       0.307   9.905  16.833  0.00  0.00    +0.000 HD
ENDROOT
BRANCH   4   7
ATOM      7  C   UNL     1      -0.843  10.440  18.506  0.00  0.00    +0.000 C 
ATOM      8  C   UNL     1      -1.656  11.556  17.912  0.00  0.00    +0.000 C 
ATOM      9  C   UNL     1      -0.841  11.818  19.148  0.00  0.00    +0.000 C 
BRANCH   9  10
ATOM     10  C   UNL     1      -1.372  11.877  20.562  0.00  0.00    +0.000 A 
ATOM     11  C   UNL     1      -0.719  11.331  21.685  0.00  0.00    +0.000 A 
ATOM     12  C   UNL     1      -1.280  11.419  22.966  0.00  0.00    +0.000 A 
ATOM     13  C   UNL     1      -2.506  12.052  23.154  0.00  0.00    +0.000 A 
ATOM     14  C   UNL     1      -3.161  12.590  22.059  0.00  0.00    +0.000 A 
ATOM     15  F   UNL     1      -4.340  13.201  22.227  0.00  0.00    +0.000 F 
ATOM     16  C   UNL     1      -2.607  12.508  20.786  0.00  0.00    +0.000 A 
ENDBRANCH   9  10
ENDBRANCH   4   7
BRANCH   3  17
ATOM     17  C   UNL     1       3.375   7.914  17.955  0.00  0.00    +0.000 C 
BRANCH  17  18
ATOM     18  C   UNL     1       3.303   6.405  17.764  0.00  0.00    +0.000 A 
ATOM     19  C   UNL     1       2.198   5.712  18.317  0.00  0.00    +0.000 A 
ATOM     20  C   UNL     1       2.135   4.339  18.240  0.00  0.00    +0.000 A 
ATOM     21  C   UNL     1       3.098   3.615  17.599  0.00  0.00    +0.000 A 
ATOM     22  C   UNL     1       4.180   4.233  17.013  0.00  0.00    +0.000 A 
ATOM     23  C   UNL     1       4.294   5.638  17.089  0.00  0.00    +0.000 A 
ATOM     24  O   UNL     1       2.858   2.279  17.643  0.00  0.00    +0.000 OA
ATOM     25  C   UNL     1       1.642   2.248  18.421  0.00  0.00    +0.000 C 
ATOM     26  O   UNL     1       1.166   3.560  18.788  0.00  0.00    +0.000 OA
BRANCH  23  27
ATOM     27  O   UNL     1       5.486   6.072  16.578  0.00  0.00    +0.000 OA
BRANCH  27  28
ATOM     28  C   UNL     1       6.671   5.822  17.304  0.00  0.00    +0.000 C 
ATOM     29  F   UNL     1       7.587   6.745  16.927  0.00  0.00    +0.000 F 
ATOM     30  F   UNL     1       6.398   6.064  18.612  0.00  0.00    +0.000 F 
ENDBRANCH  27  28
ENDBRANCH  23  27
ENDBRANCH  17  18
ENDBRANCH   3  17
TORSDOF 6
ENDMDL
MODEL 5
REMARK VINA RESULT:      -8.1      2.527      9.380
REMARK  Name = 
REMARK  6 active torsions:
REMARK  status: ('A' for Active; 'I' for Inactive)
REMARK    1  A    between atoms: N_3  and  C_4
REMARK    2  A    between atoms: C_4  and  C_5
REMARK    3  A    between atoms: C_10  and  O_11
REMARK    4  A    between atoms: O_11  and  C_12
REMARK    5  A    between atoms: N_18  and  C_19
REMARK    6  A    between atoms: C_21  and  C_22
REMARK                            x       y       z     vdW  Elec       q    Type
REMARK                         _______ _______ _______ _____ _____    ______ ____
ROOT
ATOM      1  O   UNL     1       2.298   9.054  17.453  0.00  0.00    +0.000 OA
ATOM      2  C   UNL     1       1.943   8.555  18.511  0.00  0.00    +0.000 C 
ATOM      3  N   UNL     1       1.255   9.238  19.482  0.00  0.00    +0.000 N 
ATOM      4  N   UNL     1       2.213   7.260  18.912  0.00  0.00    +0.000 N 
ATOM      5  H   UNL     1       0.623   8.694  20.047  0.00  0.00    +0.000 HD
ATOM      6  H   UNL     1       1.944   6.995  19.848  0.00  0.00    +0.000 HD
ENDROOT
BRANCH   4   7
ATOM      7  C   UNL     1       2.712   6.234  18.048  0.00  0.00    +0.000 C 
ATOM      8  C   UNL     1       2.176   4.831  18.073  0.00  0.00    +0.000 C 
ATOM      9  C   UNL     1       3.584   5.089  18.536  0.00  0.00    +0.000 C 
BRANCH   9  10
ATOM     10  C   UNL     1       4.839   4.840  17.732  0.00  0.00    +0.000 A 
ATOM     11  C   UNL     1       6.149   4.954  18.237  0.00  0.00    +0.000 A 
ATOM     12  C   UNL     1       7.266   4.713  17.426  0.00  0.00    +0.000 A 
ATOM     13  C   UNL     1       7.099   4.355  16.090  0.00  0.00    +0.000 A 
ATOM     14  C   UNL     1       5.817   4.242  15.579  0.00  0.00    +0.000 A 
ATOM     15  F   UNL     1       5.644   3.898  14.296  0.00  0.00    +0.000 F 
ATOM     16  C   UNL     1       4.705   4.477  16.381  0.00  0.00    +0.000 A 
ENDBRANCH   9  10
ENDBRANCH   4   7
BRANCH   3  17
ATOM     17  C   UNL     1       0.963  10.664  19.389  0.00  0.00    +0.000 C 
BRANCH  17  18
ATOM     18  C   UNL     1      -0.486  10.939  19.012  0.00  0.00    +0.000 A 
ATOM     19  C   UNL     1      -0.966  10.428  17.780  0.00  0.00    +0.000 A 
ATOM     20  C   UNL     1      -2.244  10.723  17.362  0.00  0.00    +0.000 A 
ATOM     21  C   UNL     1      -3.092  11.470  18.128  0.00  0.00    +0.000 A 
ATOM     22  C   UNL     1      -2.695  11.968  19.348  0.00  0.00    +0.000 A 
ATOM     23  C   UNL     1      -1.385  11.707  19.805  0.00  0.00    +0.000 A 
ATOM     24  O   UNL     1      -4.299  11.655  17.533  0.00  0.00    +0.000 OA
ATOM     25  C   UNL     1      -4.095  10.963  16.284  0.00  0.00    +0.000 C 
ATOM     26  O   UNL     1      -2.793  10.351  16.176  0.00  0.00    +0.000 OA
BRANCH  23  27
ATOM     27  O   UNL     1      -1.114  12.382  20.963  0.00  0.00    +0.000 OA
BRANCH  27  28
ATOM     28  C   UNL     1      -1.497  11.804  22.193  0.00  0.00    +0.000 C 
ATOM     29  F   UNL     1      -1.034  10.531  22.210  0.00  0.00    +0.000 F 
ATOM     30  F   UNL     1      -0.830  12.468  23.172  0.00  0.00    +0.000 F 
ENDBRANCH  27  28
ENDBRANCH  23  27
ENDBRANCH  17  18
ENDBRANCH   3  17
TORSDOF 6
ENDMDL
MODEL 6
REMARK VINA RESULT:      -8.1      2.587      3.491
REMARK  Name = 
REMARK  6 active torsions:
REMARK  status: ('A' for Active; 'I' for Inactive)
REMARK    1  A    between atoms: N_3  and  C_4
REMARK    2  A    between atoms: C_4  and  C_5
REMARK    3  A    between atoms: C_10  and  O_11
REMARK    4  A    between atoms: O_11  and  C_12
REMARK    5  A    between atoms: N_18  and  C_19
REMARK    6  A    between atoms: C_21  and  C_22
REMARK                            x       y       z     vdW  Elec       q    Type
REMARK                         _______ _______ _______ _____ _____    ______ ____
ROOT
ATOM      1  O   UNL     1       1.216   8.573  17.070  0.00  0.00    +0.000 OA
ATOM      2  C   UNL     1       1.812   8.840  18.104  0.00  0.00    +0.000 C 
ATOM      3  N   UNL     1       3.026   8.298  18.444  0.00  0.00    +0.000 N 
ATOM      4  N   UNL     1       1.347   9.678  19.100  0.00  0.00    +0.000 N 
ATOM      5  H   UNL     1       3.631   8.877  19.004  0.00  0.00    +0.000 HD
ATOM      6  H   UNL     1       1.891   9.746  19.947  0.00  0.00    +0.000 HD
ENDROOT
BRANCH   4   7
ATOM      7  C   UNL     1       0.230  10.562  18.954  0.00  0.00    +0.000 C 
ATOM      8  C   UNL     1      -0.530  11.098  20.134  0.00  0.00    +0.000 C 
ATOM      9  C   UNL     1      -1.206  10.131  19.202  0.00  0.00    +0.000 C 
BRANCH   9  10
ATOM     10  C   UNL     1      -2.190  10.494  18.113  0.00  0.00    +0.000 A 
ATOM     11  C   UNL     1      -3.271  11.383  18.276  0.00  0.00    +0.000 A 
ATOM     12  C   UNL     1      -4.146  11.665  17.218  0.00  0.00    +0.000 A 
ATOM     13  C   UNL     1      -3.962  11.065  15.976  0.00  0.00    +0.000 A 
ATOM     14  C   UNL     1      -2.905  10.187  15.802  0.00  0.00    +0.000 A 
ATOM     15  F   UNL     1      -2.718   9.603  14.611  0.00  0.00    +0.000 F 
ATOM     16  C   UNL     1      -2.032   9.906  16.848  0.00  0.00    +0.000 A 
ENDBRANCH   9  10
ENDBRANCH   4   7
BRANCH   3  17
ATOM     17  C   UNL     1       3.684   7.269  17.648  0.00  0.00    +0.000 C 
BRANCH  17  18
ATOM     18  C   UNL     1       3.739   5.925  18.360  0.00  0.00    +0.000 A 
ATOM     19  C   UNL     1       2.710   5.613  19.284  0.00  0.00    +0.000 A 
ATOM     20  C   UNL     1       2.764   4.445  20.010  0.00  0.00    +0.000 A 
ATOM     21  C   UNL     1       3.772   3.541  19.834  0.00  0.00    +0.000 A 
ATOM     22  C   UNL     1       4.783   3.771  18.929  0.00  0.00    +0.000 A 
ATOM     23  C   UNL     1       4.777   4.968  18.180  0.00  0.00    +0.000 A 
ATOM     24  O   UNL     1       3.649   2.464  20.651  0.00  0.00    +0.000 OA
ATOM     25  C   UNL     1       2.458   2.815  21.387  0.00  0.00    +0.000 C 
ATOM     26  O   UNL     1       1.879   4.069  20.969  0.00  0.00    +0.000 OA
BRANCH  23  27
ATOM     27  O   UNL     1       5.915   5.096  17.432  0.00  0.00    +0.000 OA
BRANCH  27  28
ATOM     28  C   UNL     1       7.162   5.153  18.093  0.00  0.00    +0.000 C 
ATOM     29  F   UNL     1       7.978   4.243  17.510  0.00  0.00    +0.000 F 
ATOM     30  F   UNL     1       7.699   6.373  17.833  0.00  0.00    +0.000 F 
ENDBRANCH  27  28
ENDBRANCH  23  27
ENDBRANCH  17  18
ENDBRANCH   3  17
TORSDOF 6
ENDMDL
MODEL 7
REMARK VINA RESULT:      -8.1      3.098      4.602
REMARK  Name = 
REMARK  6 active torsions:
REMARK  status: ('A' for Active; 'I' for Inactive)
REMARK    1  A    between atoms: N_3  and  C_4
REMARK    2  A    between atoms: C_4  and  C_5
REMARK    3  A    between atoms: C_10  and  O_11
REMARK    4  A    between atoms: O_11  and  C_12
REMARK    5  A    between atoms: N_18  and  C_19
REMARK    6  A    between atoms: C_21  and  C_22
REMARK                            x       y       z     vdW  Elec       q    Type
REMARK                         _______ _______ _______ _____ _____    ______ ____
ROOT
ATOM      1  O   UNL     1       1.387   8.543  19.815  0.00  0.00    +0.000 OA
ATOM      2  C   UNL     1       1.801   8.720  18.678  0.00  0.00    +0.000 C 
ATOM      3  N   UNL     1       2.748   7.928  18.080  0.00  0.00    +0.000 N 
ATOM      4  N   UNL     1       1.423   9.757  17.845  0.00  0.00    +0.000 N 
ATOM      5  H   UNL     1       2.683   7.834  17.079  0.00  0.00    +0.000 HD
ATOM      6  H   UNL     1       1.905   9.847  16.963  0.00  0.00    +0.000 HD
ENDROOT
BRANCH   4   7
ATOM      7  C   UNL     1       0.304  10.617  18.083  0.00  0.00    +0.000 C 
ATOM      8  C   UNL     1      -0.112  11.030  19.466  0.00  0.00    +0.000 C 
ATOM      9  C   UNL     1      -1.010  10.126  18.668  0.00  0.00    +0.000 C 
BRANCH   9  10
ATOM     10  C   UNL     1      -2.252  10.551  17.919  0.00  0.00    +0.000 A 
ATOM     11  C   UNL     1      -3.211  11.459  18.410  0.00  0.00    +0.000 A 
ATOM     12  C   UNL     1      -4.343  11.800  17.658  0.00  0.00    +0.000 A 
ATOM     13  C   UNL     1      -4.544  11.239  16.399  0.00  0.00    +0.000 A 
ATOM     14  C   UNL     1      -3.612  10.343  15.905  0.00  0.00    +0.000 A 
ATOM     15  F   UNL     1      -3.795   9.798  14.696  0.00  0.00    +0.000 F 
ATOM     16  C   UNL     1      -2.485  10.004  16.646  0.00  0.00    +0.000 A 
ENDBRANCH   9  10
ENDBRANCH   4   7
BRANCH   3  17
ATOM     17  C   UNL     1       3.431   6.846  18.780  0.00  0.00    +0.000 C 
BRANCH  17  18
ATOM     18  C   UNL     1       4.106   5.869  17.828  0.00  0.00    +0.000 A 
ATOM     19  C   UNL     1       5.032   6.381  16.886  0.00  0.00    +0.000 A 
ATOM     20  C   UNL     1       5.602   5.545  15.954  0.00  0.00    +0.000 A 
ATOM     21  C   UNL     1       5.333   4.207  15.933  0.00  0.00    +0.000 A 
ATOM     22  C   UNL     1       4.466   3.644  16.843  0.00  0.00    +0.000 A 
ATOM     23  C   UNL     1       3.842   4.470  17.802  0.00  0.00    +0.000 A 
ATOM     24  O   UNL     1       5.985   3.563  14.933  0.00  0.00    +0.000 OA
ATOM     25  C   UNL     1       6.673   4.664  14.303  0.00  0.00    +0.000 C 
ATOM     26  O   UNL     1       6.448   5.928  14.961  0.00  0.00    +0.000 OA
BRANCH  23  27
ATOM     27  O   UNL     1       2.918   3.777  18.534  0.00  0.00    +0.000 OA
BRANCH  27  28
ATOM     28  C   UNL     1       1.669   3.478  17.947  0.00  0.00    +0.000 C 
ATOM     29  F   UNL     1       0.821   3.123  18.942  0.00  0.00    +0.000 F 
ATOM     30  F   UNL     1       1.184   4.635  17.425  0.00  0.00    +0.000 F 
ENDBRANCH  27  28
ENDBRANCH  23  27
ENDBRANCH  17  18
ENDBRANCH   3  17
TORSDOF 6
ENDMDL
MODEL 8
REMARK VINA RESULT:      -8.1      2.560      9.327
REMARK  Name = 
REMARK  6 active torsions:
REMARK  status: ('A' for Active; 'I' for Inactive)
REMARK    1  A    between atoms: N_3  and  C_4
REMARK    2  A    between atoms: C_4  and  C_5
REMARK    3  A    between atoms: C_10  and  O_11
REMARK    4  A    between atoms: O_11  and  C_12
REMARK    5  A    between atoms: N_18  and  C_19
REMARK    6  A    between atoms: C_21  and  C_22
REMARK                            x       y       z     vdW  Elec       q    Type
REMARK                         _______ _______ _______ _____ _____    ______ ____
ROOT
ATOM      1  O   UNL     1       1.866   9.450  17.350  0.00  0.00    +0.000 OA
ATOM      2  C   UNL     1       1.657   9.008  18.470  0.00  0.00    +0.000 C 
ATOM      3  N   UNL     1       1.014   9.710  19.458  0.00  0.00    +0.000 N 
ATOM      4  N   UNL     1       2.069   7.771  18.929  0.00  0.00    +0.000 N 
ATOM      5  H   UNL     1       0.485   9.165  20.120  0.00  0.00    +0.000 HD
ATOM      6  H   UNL     1       1.914   7.558  19.904  0.00  0.00    +0.000 HD
ENDROOT
BRANCH   4   7
ATOM      7  C   UNL     1       2.564   6.722  18.090  0.00  0.00    +0.000 C 
ATOM      8  C   UNL     1       2.170   5.285  18.283  0.00  0.00    +0.000 C 
ATOM      9  C   UNL     1       3.590   5.702  18.554  0.00  0.00    +0.000 C 
BRANCH   9  10
ATOM     10  C   UNL     1       4.765   5.495  17.626  0.00  0.00    +0.000 A 
ATOM     11  C   UNL     1       4.859   4.461  16.674  0.00  0.00    +0.000 A 
ATOM     12  C   UNL     1       5.986   4.329  15.852  0.00  0.00    +0.000 A 
ATOM     13  C   UNL     1       7.045   5.226  15.964  0.00  0.00    +0.000 A 
ATOM     14  C   UNL     1       6.968   6.246  16.898  0.00  0.00    +0.000 A 
ATOM     15  F   UNL     1       7.980   7.115  17.015  0.00  0.00    +0.000 F 
ATOM     16  C   UNL     1       5.850   6.382  17.714  0.00  0.00    +0.000 A 
ENDBRANCH   9  10
ENDBRANCH   4   7
BRANCH   3  17
ATOM     17  C   UNL     1       0.599  11.099  19.299  0.00  0.00    +0.000 C 
BRANCH  17  18
ATOM     18  C   UNL     1      -0.493  11.499  20.281  0.00  0.00    +0.000 A 
ATOM     19  C   UNL     1      -1.610  12.217  19.786  0.00  0.00    +0.000 A 
ATOM     20  C   UNL     1      -2.579  12.669  20.653  0.00  0.00    +0.000 A 
ATOM     21  C   UNL     1      -2.520  12.407  21.991  0.00  0.00    +0.000 A 
ATOM     22  C   UNL     1      -1.477  11.687  22.528  0.00  0.00    +0.000 A 
ATOM     23  C   UNL     1      -0.450  11.224  21.678  0.00  0.00    +0.000 A 
ATOM     24  O   UNL     1      -3.563  12.949  22.671  0.00  0.00    +0.000 OA
ATOM     25  C   UNL     1      -4.268  13.613  21.602  0.00  0.00    +0.000 C 
ATOM     26  O   UNL     1      -3.656  13.423  20.310  0.00  0.00    +0.000 OA
BRANCH  23  27
ATOM     27  O   UNL     1       0.567  10.648  22.387  0.00  0.00    +0.000 OA
BRANCH  27  28
ATOM     28  C   UNL     1       0.397   9.334  22.877  0.00  0.00    +0.000 C 
ATOM     29  F   UNL     1      -0.556   8.735  22.124  0.00  0.00    +0.000 F 
ATOM     30  F   UNL     1       1.554   8.664  22.637  0.00  0.00    +0.000 F 
ENDBRANCH  27  28
ENDBRANCH  23  27
ENDBRANCH  17  18
ENDBRANCH   3  17
TORSDOF 6
ENDMDL
MODEL 9
REMARK VINA RESULT:      -8.1      3.032      9.376
REMARK  Name = 
REMARK  6 active torsions:
REMARK  status: ('A' for Active; 'I' for Inactive)
REMARK    1  A    between atoms: N_3  and  C_4
REMARK    2  A    between atoms: C_4  and  C_5
REMARK    3  A    between atoms: C_10  and  O_11
REMARK    4  A    between atoms: O_11  and  C_12
REMARK    5  A    between atoms: N_18  and  C_19
REMARK    6  A    between atoms: C_21  and  C_22
REMARK                            x       y       z     vdW  Elec       q    Type
REMARK                         _______ _______ _______ _____ _____    ______ ____
ROOT
ATOM      1  O   UNL     1       2.331   9.245  17.282  0.00  0.00    +0.000 OA
ATOM      2  C   UNL     1       1.902   8.834  18.350  0.00  0.00    +0.000 C 
ATOM      3  N   UNL     1       1.198   9.609  19.236  0.00  0.00    +0.000 N 
ATOM      4  N   UNL     1       2.096   7.560  18.850  0.00  0.00    +0.000 N 
ATOM      5  H   UNL     1       0.515   9.130  19.802  0.00  0.00    +0.000 HD
ATOM      6  H   UNL     1       1.769   7.371  19.786  0.00  0.00    +0.000 HD
ENDROOT
BRANCH   4   7
ATOM      7  C   UNL     1       2.593   6.459  18.083  0.00  0.00    +0.000 C 
ATOM      8  C   UNL     1       2.249   5.033  18.408  0.00  0.00    +0.000 C 
ATOM      9  C   UNL     1       3.664   5.508  18.593  0.00  0.00    +0.000 C 
BRANCH   9  10
ATOM     10  C   UNL     1       4.812   5.255  17.644  0.00  0.00    +0.000 A 
ATOM     11  C   UNL     1       4.897   4.158  16.765  0.00  0.00    +0.000 A 
ATOM     12  C   UNL     1       6.000   3.987  15.917  0.00  0.00    +0.000 A 
ATOM     13  C   UNL     1       7.044   4.908  15.931  0.00  0.00    +0.000 A 
ATOM     14  C   UNL     1       6.976   5.991  16.792  0.00  0.00    +0.000 A 
ATOM     15  F   UNL     1       7.974   6.883  16.814  0.00  0.00    +0.000 F 
ATOM     16  C   UNL     1       5.882   6.166  17.633  0.00  0.00    +0.000 A 
ENDBRANCH   9  10
ENDBRANCH   4   7
BRANCH   3  17
ATOM     17  C   UNL     1       0.972  11.036  19.034  0.00  0.00    +0.000 C 
BRANCH  17  18
ATOM     18  C   UNL     1      -0.268  11.539  19.760  0.00  0.00    +0.000 A 
ATOM     19  C   UNL     1      -0.293  11.465  21.175  0.00  0.00    +0.000 A 
ATOM     20  C   UNL     1      -1.425  11.833  21.865  0.00  0.00    +0.000 A 
ATOM     21  C   UNL     1      -2.529  12.316  21.223  0.00  0.00    +0.000 A 
ATOM     22  C   UNL     1      -2.554  12.443  19.853  0.00  0.00    +0.000 A 
ATOM     23  C   UNL     1      -1.422  12.055  19.104  0.00  0.00    +0.000 A 
ATOM     24  O   UNL     1      -3.539  12.610  22.081  0.00  0.00    +0.000 OA
ATOM     25  C   UNL     1      -2.950  12.221  23.339  0.00  0.00    +0.000 C 
ATOM     26  O   UNL     1      -1.595  11.742  23.210  0.00  0.00    +0.000 OA
BRANCH  23  27
ATOM     27  O   UNL     1      -1.663  12.120  17.760  0.00  0.00    +0.000 OA
BRANCH  27  28
ATOM     28  C   UNL     1      -2.460  11.118  17.162  0.00  0.00    +0.000 C 
ATOM     29  F   UNL     1      -2.511  11.373  15.833  0.00  0.00    +0.000 F 
ATOM     30  F   UNL     1      -1.797   9.942  17.303  0.00  0.00    +0.000 F 
ENDBRANCH  27  28
ENDBRANCH  23  27
ENDBRANCH  17  18
ENDBRANCH   3  17
TORSDOF 6
ENDMDL
