MODEL 1
REMARK VINA RESULT:      -8.9      0.000      0.000
REMARK  Name = 
REMARK  3 active torsions:
REMARK  status: ('A' for Active; 'I' for Inactive)
REMARK    1  A    between atoms: C_2  and  C_20
REMARK    2  A    between atoms: N_3  and  C_4
REMARK    3  A    between atoms: C_8  and  C_9
REMARK                            x       y       z     vdW  Elec       q    Type
REMARK                         _______ _______ _______ _____ _____    ______ ____
ROOT
ATOM      1  C   UNL     1       1.868   5.857  20.594  0.00  0.00    +0.000 A 
ATOM      2  C   UNL     1       1.217   4.628  20.707  0.00  0.00    +0.000 A 
ATOM      3  C   UNL     1       1.825   3.455  20.263  0.00  0.00    +0.000 A 
ATOM      4  C   UNL     1       3.102   3.499  19.713  0.00  0.00    +0.000 A 
ATOM      5  C   UNL     1       3.776   4.719  19.579  0.00  0.00    +0.000 A 
ATOM      6  C   UNL     1       3.128   5.899  19.987  0.00  0.00    +0.000 A 
ENDROOT
BRANCH   5   7
ATOM      7  C   UNL     1       5.120   4.727  18.995  0.00  0.00    +0.000 A 
ATOM      8  N   UNL     1       6.242   4.703  19.688  0.00  0.00    +0.000 NA
ATOM      9  N   UNL     1       7.297   4.674  18.818  0.00  0.00    +0.000 NA
ATOM     10  C   UNL     1       6.821   4.708  17.591  0.00  0.00    +0.000 A 
ATOM     11  N   UNL     1       5.451   4.802  17.655  0.00  0.00    +0.000 N 
ATOM     12  C   UNL     1       4.535   4.989  16.548  0.00  0.00    +0.000 C 
ATOM     13  C   UNL     1       5.063   5.880  15.431  0.00  0.00    +0.000 C 
ATOM     14  C   UNL     1       6.011   5.163  14.473  0.00  0.00    +0.000 C 
ATOM     15  C   UNL     1       6.955   4.148  15.119  0.00  0.00    +0.000 C 
ATOM     16  C   UNL     1       7.661   4.683  16.360  0.00  0.00    +0.000 C 
ENDBRANCH   5   7
BRANCH   1  19
ATOM     17  O   UNL     1       1.748   8.486  19.256  0.00  0.00    +0.000 OA
ATOM     18  C   UNL     1       1.322   8.268  20.383  0.00  0.00    +0.000 C 
ATOM     19  N   UNL     1       1.317   7.068  21.063  0.00  0.00    +0.000 N 
ATOM     20  H   UNL     1       0.819   7.072  21.949  0.00  0.00    +0.000 HD
BRANCH  18  21
ATOM     21  C   UNL     1       0.682   9.426  21.147  0.00  0.00    +0.000 A 
ATOM     22  C   UNL     1      -0.041   9.059  22.384  0.00  0.00    +0.000 A 
ATOM     23  C   UNL     1      -0.664  10.037  23.041  0.00  0.00    +0.000 A 
ATOM     24  C   UNL     1      -0.602  11.420  22.535  0.00  0.00    +0.000 A 
ATOM     25  O   UNL     1      -1.194  12.324  23.113  0.00  0.00    +0.000 OA
ATOM     26  N   UNL     1       0.154  11.614  21.403  0.00  0.00    +0.000 N 
ATOM     27  N   UNL     1       0.794  10.636  20.680  0.00  0.00    +0.000 NA
ATOM     28  H   UNL     1       0.196  12.561  21.040  0.00  0.00    +0.000 HD
ENDBRANCH  18  21
ENDBRANCH   1  19
TORSDOF 3
ENDMDL
MODEL 2
REMARK VINA RESULT:      -8.6      2.985      8.323
REMARK  Name = 
REMARK  3 active torsions:
REMARK  status: ('A' for Active; 'I' for Inactive)
REMARK    1  A    between atoms: C_2  and  C_20
REMARK    2  A    between atoms: N_3  and  C_4
REMARK    3  A    between atoms: C_8  and  C_9
REMARK                            x       y       z     vdW  Elec       q    Type
REMARK                         _______ _______ _______ _____ _____    ______ ____
ROOT
ATOM      1  C   UNL     1       3.039   5.508  18.671  0.00  0.00    +0.000 A 
ATOM      2  C   UNL     1       2.437   4.400  19.271  0.00  0.00    +0.000 A 
ATOM      3  C   UNL     1       1.555   4.558  20.338  0.00  0.00    +0.000 A 
ATOM      4  C   UNL     1       1.254   5.832  20.808  0.00  0.00    +0.000 A 
ATOM      5  C   UNL     1       1.850   6.961  20.233  0.00  0.00    +0.000 A 
ATOM      6  C   UNL     1       2.775   6.781  19.189  0.00  0.00    +0.000 A 
ENDROOT
BRANCH   5   7
ATOM      7  C   UNL     1       1.509   8.287  20.755  0.00  0.00    +0.000 A 
ATOM      8  N   UNL     1       1.593   8.642  22.023  0.00  0.00    +0.000 NA
ATOM      9  N   UNL     1       1.240   9.958  22.137  0.00  0.00    +0.000 NA
ATOM     10  C   UNL     1       0.912  10.402  20.942  0.00  0.00    +0.000 A 
ATOM     11  N   UNL     1       1.010   9.364  20.047  0.00  0.00    +0.000 N 
ATOM     12  C   UNL     1       0.626   9.375  18.649  0.00  0.00    +0.000 C 
ATOM     13  C   UNL     1      -0.607  10.213  18.337  0.00  0.00    +0.000 C 
ATOM     14  C   UNL     1      -0.320  11.708  18.229  0.00  0.00    +0.000 C 
ATOM     15  C   UNL     1       0.714  12.252  19.215  0.00  0.00    +0.000 C 
ATOM     16  C   UNL     1       0.478  11.798  20.651  0.00  0.00    +0.000 C 
ENDBRANCH   5   7
BRANCH   1  19
ATOM     17  O   UNL     1       5.875   4.692  18.600  0.00  0.00    +0.000 OA
ATOM     18  C   UNL     1       5.236   5.040  17.616  0.00  0.00    +0.000 C 
ATOM     19  N   UNL     1       3.908   5.409  17.564  0.00  0.00    +0.000 N 
ATOM     20  H   UNL     1       3.534   5.562  16.631  0.00  0.00    +0.000 HD
BRANCH  18  21
ATOM     21  C   UNL     1       5.945   5.052  16.263  0.00  0.00    +0.000 A 
ATOM     22  C   UNL     1       5.263   4.319  15.173  0.00  0.00    +0.000 A 
ATOM     23  C   UNL     1       5.886   4.256  13.997  0.00  0.00    +0.000 A 
ATOM     24  C   UNL     1       7.193   4.914  13.819  0.00  0.00    +0.000 A 
ATOM     25  O   UNL     1       7.790   4.839  12.752  0.00  0.00    +0.000 OA
ATOM     26  N   UNL     1       7.674   5.603  14.908  0.00  0.00    +0.000 N 
ATOM     27  N   UNL     1       7.081   5.677  16.145  0.00  0.00    +0.000 NA
ATOM     28  H   UNL     1       8.578   6.052  14.799  0.00  0.00    +0.000 HD
ENDBRANCH  18  21
ENDBRANCH   1  19
TORSDOF 3
ENDMDL
MODEL 3
REMARK VINA RESULT:      -8.4      1.448      1.638
REMARK  Name = 
REMARK  3 active torsions:
REMARK  status: ('A' for Active; 'I' for Inactive)
REMARK    1  A    between atoms: C_2  and  C_20
REMARK    2  A    between atoms: N_3  and  C_4
REMARK    3  A    between atoms: C_8  and  C_9
REMARK                            x       y       z     vdW  Elec       q    Type
REMARK                         _______ _______ _______ _____ _____    ______ ____
ROOT
ATOM      1  C   UNL     1       1.864   6.841  20.158  0.00  0.00    +0.000 A 
ATOM      2  C   UNL     1       1.225   5.763  20.773  0.00  0.00    +0.000 A 
ATOM      3  C   UNL     1       1.831   4.509  20.825  0.00  0.00    +0.000 A 
ATOM      4  C   UNL     1       3.095   4.324  20.272  0.00  0.00    +0.000 A 
ATOM      5  C   UNL     1       3.755   5.385  19.639  0.00  0.00    +0.000 A 
ATOM      6  C   UNL     1       3.108   6.631  19.553  0.00  0.00    +0.000 A 
ENDROOT
BRANCH   5   7
ATOM      7  C   UNL     1       5.084   5.153  19.068  0.00  0.00    +0.000 A 
ATOM      8  N   UNL     1       6.194   5.025  19.770  0.00  0.00    +0.000 NA
ATOM      9  N   UNL     1       7.231   4.775  18.915  0.00  0.00    +0.000 NA
ATOM     10  C   UNL     1       6.761   4.778  17.685  0.00  0.00    +0.000 A 
ATOM     11  N   UNL     1       5.419   5.072  17.730  0.00  0.00    +0.000 N 
ATOM     12  C   UNL     1       4.536   5.299  16.604  0.00  0.00    +0.000 C 
ATOM     13  C   UNL     1       5.182   6.012  15.424  0.00  0.00    +0.000 C 
ATOM     14  C   UNL     1       6.015   5.092  14.534  0.00  0.00    +0.000 C 
ATOM     15  C   UNL     1       6.806   4.008  15.267  0.00  0.00    +0.000 C 
ATOM     16  C   UNL     1       7.585   4.534  16.467  0.00  0.00    +0.000 C 
ENDBRANCH   5   7
BRANCH   1  19
ATOM     17  O   UNL     1       1.600   8.826  22.326  0.00  0.00    +0.000 OA
ATOM     18  C   UNL     1       1.205   9.003  21.182  0.00  0.00    +0.000 C 
ATOM     19  N   UNL     1       1.314   8.139  20.112  0.00  0.00    +0.000 N 
ATOM     20  H   UNL     1       1.017   8.516  19.216  0.00  0.00    +0.000 HD
BRANCH  18  21
ATOM     21  C   UNL     1       0.535  10.335  20.849  0.00  0.00    +0.000 A 
ATOM     22  C   UNL     1      -0.270  10.357  19.607  0.00  0.00    +0.000 A 
ATOM     23  C   UNL     1      -0.816  11.521  19.254  0.00  0.00    +0.000 A 
ATOM     24  C   UNL     1      -0.617  12.713  20.097  0.00  0.00    +0.000 A 
ATOM     25  O   UNL     1      -1.088  13.796  19.768  0.00  0.00    +0.000 OA
ATOM     26  N   UNL     1       0.111  12.524  21.248  0.00  0.00    +0.000 N 
ATOM     27  N   UNL     1       0.711  11.352  21.642  0.00  0.00    +0.000 NA
ATOM     28  H   UNL     1       0.262  13.341  21.831  0.00  0.00    +0.000 HD
ENDBRANCH  18  21
ENDBRANCH   1  19
TORSDOF 3
ENDMDL
MODEL 4
REMARK VINA RESULT:      -8.3      4.794      6.992
REMARK  Name = 
REMARK  3 active torsions:
REMARK  status: ('A' for Active; 'I' for Inactive)
REMARK    1  A    between atoms: C_2  and  C_20
REMARK    2  A    between atoms: N_3  and  C_4
REMARK    3  A    between atoms: C_8  and  C_9
REMARK                            x       y       z     vdW  Elec       q    Type
REMARK                         _______ _______ _______ _____ _____    ______ ____
ROOT
ATOM      1  C   UNL     1       6.398   6.551  16.792  0.00  0.00    +0.000 A 
ATOM      2  C   UNL     1       6.227   6.069  15.492  0.00  0.00    +0.000 A 
ATOM      3  C   UNL     1       5.597   4.848  15.261  0.00  0.00    +0.000 A 
ATOM      4  C   UNL     1       5.116   4.100  16.332  0.00  0.00    +0.000 A 
ATOM      5  C   UNL     1       5.282   4.553  17.646  0.00  0.00    +0.000 A 
ATOM      6  C   UNL     1       5.963   5.765  17.864  0.00  0.00    +0.000 A 
ENDROOT
BRANCH   5   7
ATOM      7  C   UNL     1       4.764   3.739  18.748  0.00  0.00    +0.000 A 
ATOM      8  N   UNL     1       5.494   2.938  19.501  0.00  0.00    +0.000 NA
ATOM      9  N   UNL     1       4.690   2.374  20.454  0.00  0.00    +0.000 NA
ATOM     10  C   UNL     1       3.462   2.808  20.267  0.00  0.00    +0.000 A 
ATOM     11  N   UNL     1       3.450   3.627  19.163  0.00  0.00    +0.000 N 
ATOM     12  C   UNL     1       2.291   4.221  18.527  0.00  0.00    +0.000 C 
ATOM     13  C   UNL     1       1.045   3.346  18.535  0.00  0.00    +0.000 C 
ATOM     14  C   UNL     1       0.285   3.376  19.858  0.00  0.00    +0.000 C 
ATOM     15  C   UNL     1       1.154   3.437  21.115  0.00  0.00    +0.000 C 
ATOM     16  C   UNL     1       2.294   2.427  21.111  0.00  0.00    +0.000 C 
ENDBRANCH   5   7
BRANCH   1  19
ATOM     17  O   UNL     1       8.477   7.203  18.783  0.00  0.00    +0.000 OA
ATOM     18  C   UNL     1       7.946   8.026  18.049  0.00  0.00    +0.000 C 
ATOM     19  N   UNL     1       6.992   7.797  17.080  0.00  0.00    +0.000 N 
ATOM     20  H   UNL     1       6.755   8.600  16.503  0.00  0.00    +0.000 HD
BRANCH  18  21
ATOM     21  C   UNL     1       8.387   9.484  18.165  0.00  0.00    +0.000 A 
ATOM     22  C   UNL     1       9.378   9.774  19.226  0.00  0.00    +0.000 A 
ATOM     23  C   UNL     1       9.737  11.047  19.395  0.00  0.00    +0.000 A 
ATOM     24  C   UNL     1       9.161  12.095  18.534  0.00  0.00    +0.000 A 
ATOM     25  O   UNL     1       9.460  13.272  18.698  0.00  0.00    +0.000 OA
ATOM     26  N   UNL     1       8.295  11.664  17.557  0.00  0.00    +0.000 N 
ATOM     27  N   UNL     1       7.878  10.369  17.358  0.00  0.00    +0.000 NA
ATOM     28  H   UNL     1       7.885  12.379  16.964  0.00  0.00    +0.000 HD
ENDBRANCH  18  21
ENDBRANCH   1  19
TORSDOF 3
ENDMDL
MODEL 5
REMARK VINA RESULT:      -8.3      3.312      9.042
REMARK  Name = 
REMARK  3 active torsions:
REMARK  status: ('A' for Active; 'I' for Inactive)
REMARK    1  A    between atoms: C_2  and  C_20
REMARK    2  A    between atoms: N_3  and  C_4
REMARK    3  A    between atoms: C_8  and  C_9
REMARK                            x       y       z     vdW  Elec       q    Type
REMARK                         _______ _______ _______ _____ _____    ______ ____
ROOT
ATOM      1  C   UNL     1       2.188   7.648  19.372  0.00  0.00    +0.000 A 
ATOM      2  C   UNL     1       2.236   8.294  18.136  0.00  0.00    +0.000 A 
ATOM      3  C   UNL     1       1.629   9.536  17.955  0.00  0.00    +0.000 A 
ATOM      4  C   UNL     1       0.977  10.152  19.019  0.00  0.00    +0.000 A 
ATOM      5  C   UNL     1       0.904   9.523  20.268  0.00  0.00    +0.000 A 
ATOM      6  C   UNL     1       1.481   8.249  20.419  0.00  0.00    +0.000 A 
ENDROOT
BRANCH   5   7
ATOM      7  C   UNL     1       0.209  10.202  21.364  0.00  0.00    +0.000 A 
ATOM      8  N   UNL     1       0.282   9.851  22.634  0.00  0.00    +0.000 NA
ATOM      9  N   UNL     1      -0.455  10.731  23.378  0.00  0.00    +0.000 NA
ATOM     10  C   UNL     1      -1.003  11.605  22.560  0.00  0.00    +0.000 A 
ATOM     11  N   UNL     1      -0.659  11.274  21.271  0.00  0.00    +0.000 N 
ATOM     12  C   UNL     1      -1.141  11.890  20.051  0.00  0.00    +0.000 C 
ATOM     13  C   UNL     1      -2.596  12.338  20.099  0.00  0.00    +0.000 C 
ATOM     14  C   UNL     1      -2.801  13.674  20.808  0.00  0.00    +0.000 C 
ATOM     15  C   UNL     1      -1.912  13.914  22.029  0.00  0.00    +0.000 C 
ATOM     16  C   UNL     1      -1.875  12.733  22.992  0.00  0.00    +0.000 C 
ENDBRANCH   5   7
BRANCH   1  19
ATOM     17  O   UNL     1       1.764   5.044  18.047  0.00  0.00    +0.000 OA
ATOM     18  C   UNL     1       2.546   5.226  18.971  0.00  0.00    +0.000 C 
ATOM     19  N   UNL     1       2.819   6.411  19.621  0.00  0.00    +0.000 N 
ATOM     20  H   UNL     1       3.581   6.374  20.293  0.00  0.00    +0.000 HD
BRANCH  18  21
ATOM     21  C   UNL     1       3.359   4.033  19.470  0.00  0.00    +0.000 A 
ATOM     22  C   UNL     1       2.751   3.257  20.574  0.00  0.00    +0.000 A 
ATOM     23  C   UNL     1       3.462   2.248  21.076  0.00  0.00    +0.000 A 
ATOM     24  C   UNL     1       4.792   1.936  20.520  0.00  0.00    +0.000 A 
ATOM     25  O   UNL     1       5.469   1.031  20.992  0.00  0.00    +0.000 OA
ATOM     26  N   UNL     1       5.200   2.713  19.461  0.00  0.00    +0.000 N 
ATOM     27  N   UNL     1       4.512   3.775  18.925  0.00  0.00    +0.000 NA
ATOM     28  H   UNL     1       6.118   2.513  19.077  0.00  0.00    +0.000 HD
ENDBRANCH  18  21
ENDBRANCH   1  19
TORSDOF 3
ENDMDL
MODEL 6
REMARK VINA RESULT:      -8.3      4.159      7.124
REMARK  Name = 
REMARK  3 active torsions:
REMARK  status: ('A' for Active; 'I' for Inactive)
REMARK    1  A    between atoms: C_2  and  C_20
REMARK    2  A    between atoms: N_3  and  C_4
REMARK    3  A    between atoms: C_8  and  C_9
REMARK                            x       y       z     vdW  Elec       q    Type
REMARK                         _______ _______ _______ _____ _____    ______ ____
ROOT
ATOM      1  C   UNL     1       6.584   6.161  16.400  0.00  0.00    +0.000 A 
ATOM      2  C   UNL     1       7.159   5.360  15.411  0.00  0.00    +0.000 A 
ATOM      3  C   UNL     1       6.574   4.151  15.042  0.00  0.00    +0.000 A 
ATOM      4  C   UNL     1       5.393   3.736  15.651  0.00  0.00    +0.000 A 
ATOM      5  C   UNL     1       4.799   4.514  16.653  0.00  0.00    +0.000 A 
ATOM      6  C   UNL     1       5.430   5.708  17.047  0.00  0.00    +0.000 A 
ENDROOT
BRANCH   5   7
ATOM      7  C   UNL     1       3.557   4.044  17.272  0.00  0.00    +0.000 A 
ATOM      8  N   UNL     1       2.780   3.098  16.779  0.00  0.00    +0.000 NA
ATOM      9  N   UNL     1       1.738   2.890  17.639  0.00  0.00    +0.000 NA
ATOM     10  C   UNL     1       1.859   3.730  18.645  0.00  0.00    +0.000 A 
ATOM     11  N   UNL     1       2.962   4.521  18.425  0.00  0.00    +0.000 N 
ATOM     12  C   UNL     1       3.396   5.656  19.214  0.00  0.00    +0.000 C 
ATOM     13  C   UNL     1       2.266   6.497  19.791  0.00  0.00    +0.000 C 
ATOM     14  C   UNL     1       1.647   5.905  21.056  0.00  0.00    +0.000 C 
ATOM     15  C   UNL     1       1.521   4.381  21.075  0.00  0.00    +0.000 C 
ATOM     16  C   UNL     1       0.918   3.808  19.798  0.00  0.00    +0.000 C 
ENDBRANCH   5   7
BRANCH   1  19
ATOM     17  O   UNL     1       8.183   6.852  18.783  0.00  0.00    +0.000 OA
ATOM     18  C   UNL     1       7.834   7.659  17.933  0.00  0.00    +0.000 C 
ATOM     19  N   UNL     1       7.112   7.412  16.783  0.00  0.00    +0.000 N 
ATOM     20  H   UNL     1       7.016   8.201  16.151  0.00  0.00    +0.000 HD
BRANCH  18  21
ATOM     21  C   UNL     1       8.253   9.118  18.110  0.00  0.00    +0.000 A 
ATOM     22  C   UNL     1       9.213   9.383  19.204  0.00  0.00    +0.000 A 
ATOM     23  C   UNL     1       9.550  10.653  19.426  0.00  0.00    +0.000 A 
ATOM     24  C   UNL     1       8.982  11.724  18.587  0.00  0.00    +0.000 A 
ATOM     25  O   UNL     1       9.261  12.898  18.799  0.00  0.00    +0.000 OA
ATOM     26  N   UNL     1       8.145  11.316  17.575  0.00  0.00    +0.000 N 
ATOM     27  N   UNL     1       7.752  10.024  17.321  0.00  0.00    +0.000 NA
ATOM     28  H   UNL     1       7.741  12.046  16.997  0.00  0.00    +0.000 HD
ENDBRANCH  18  21
ENDBRANCH   1  19
TORSDOF 3
ENDMDL
MODEL 7
REMARK VINA RESULT:      -8.1      2.001      2.182
REMARK  Name = 
REMARK  3 active torsions:
REMARK  status: ('A' for Active; 'I' for Inactive)
REMARK    1  A    between atoms: C_2  and  C_20
REMARK    2  A    between atoms: N_3  and  C_4
REMARK    3  A    between atoms: C_8  and  C_9
REMARK                            x       y       z     vdW  Elec       q    Type
REMARK                         _______ _______ _______ _____ _____    ______ ____
ROOT
ATOM      1  C   UNL     1       1.988   7.264  19.932  0.00  0.00    +0.000 A 
ATOM      2  C   UNL     1       1.278   6.292  20.639  0.00  0.00    +0.000 A 
ATOM      3  C   UNL     1       1.794   5.008  20.802  0.00  0.00    +0.000 A 
ATOM      4  C   UNL     1       3.038   4.686  20.268  0.00  0.00    +0.000 A 
ATOM      5  C   UNL     1       3.769   5.638  19.545  0.00  0.00    +0.000 A 
ATOM      6  C   UNL     1       3.211   6.914  19.350  0.00  0.00    +0.000 A 
ENDROOT
BRANCH   5   7
ATOM      7  C   UNL     1       5.075   5.263  18.998  0.00  0.00    +0.000 A 
ATOM      8  N   UNL     1       6.159   5.044  19.718  0.00  0.00    +0.000 NA
ATOM      9  N   UNL     1       7.176   4.673  18.882  0.00  0.00    +0.000 NA
ATOM     10  C   UNL     1       6.723   4.692  17.647  0.00  0.00    +0.000 A 
ATOM     11  N   UNL     1       5.416   5.117  17.666  0.00  0.00    +0.000 N 
ATOM     12  C   UNL     1       4.571   5.401  16.523  0.00  0.00    +0.000 C 
ATOM     13  C   UNL     1       5.298   6.019  15.336  0.00  0.00    +0.000 C 
ATOM     14  C   UNL     1       6.046   5.000  14.479  0.00  0.00    +0.000 C 
ATOM     15  C   UNL     1       6.718   3.862  15.248  0.00  0.00    +0.000 C 
ATOM     16  C   UNL     1       7.532   4.338  16.446  0.00  0.00    +0.000 C 
ENDBRANCH   5   7
BRANCH   1  19
ATOM     17  O   UNL     1       1.890   8.914  17.486  0.00  0.00    +0.000 OA
ATOM     18  C   UNL     1       1.541   9.304  18.592  0.00  0.00    +0.000 C 
ATOM     19  N   UNL     1       1.532   8.589  19.772  0.00  0.00    +0.000 N 
ATOM     20  H   UNL     1       1.103   9.061  20.564  0.00  0.00    +0.000 HD
BRANCH  18  21
ATOM     21  C   UNL     1       1.017  10.733  18.719  0.00  0.00    +0.000 A 
ATOM     22  C   UNL     1      -0.403  10.865  19.118  0.00  0.00    +0.000 A 
ATOM     23  C   UNL     1      -0.909  12.096  19.177  0.00  0.00    +0.000 A 
ATOM     24  C   UNL     1      -0.057  13.258  18.865  0.00  0.00    +0.000 A 
ATOM     25  O   UNL     1      -0.518  14.393  18.886  0.00  0.00    +0.000 OA
ATOM     26  N   UNL     1       1.255  12.980  18.563  0.00  0.00    +0.000 N 
ATOM     27  N   UNL     1       1.816  11.729  18.468  0.00  0.00    +0.000 NA
ATOM     28  H   UNL     1       1.848  13.772  18.337  0.00  0.00    +0.000 HD
ENDBRANCH  18  21
ENDBRANCH   1  19
TORSDOF 3
ENDMDL
MODEL 8
REMARK VINA RESULT:      -8.1      3.383      8.903
REMARK  Name = 
REMARK  3 active torsions:
REMARK  status: ('A' for Active; 'I' for Inactive)
REMARK    1  A    between atoms: C_2  and  C_20
REMARK    2  A    between atoms: N_3  and  C_4
REMARK    3  A    between atoms: C_8  and  C_9
REMARK                            x       y       z     vdW  Elec       q    Type
REMARK                         _______ _______ _______ _____ _____    ______ ____
ROOT
ATOM      1  C   UNL     1       2.186   7.717  19.111  0.00  0.00    +0.000 A 
ATOM      2  C   UNL     1       1.904   7.318  20.418  0.00  0.00    +0.000 A 
ATOM      3  C   UNL     1       1.077   8.086  21.236  0.00  0.00    +0.000 A 
ATOM      4  C   UNL     1       0.509   9.258  20.745  0.00  0.00    +0.000 A 
ATOM      5  C   UNL     1       0.782   9.687  19.440  0.00  0.00    +0.000 A 
ATOM      6  C   UNL     1       1.657   8.926  18.646  0.00  0.00    +0.000 A 
ENDROOT
BRANCH   5   7
ATOM      7  C   UNL     1       0.166  10.927  18.958  0.00  0.00    +0.000 A 
ATOM      8  N   UNL     1      -0.998  10.999  18.342  0.00  0.00    +0.000 NA
ATOM      9  N   UNL     1      -1.277  12.312  18.078  0.00  0.00    +0.000 NA
ATOM     10  C   UNL     1      -0.269  13.041  18.507  0.00  0.00    +0.000 A 
ATOM     11  N   UNL     1       0.693  12.203  19.018  0.00  0.00    +0.000 N 
ATOM     12  C   UNL     1       2.015  12.570  19.484  0.00  0.00    +0.000 C 
ATOM     13  C   UNL     1       2.674  13.696  18.700  0.00  0.00    +0.000 C 
ATOM     14  C   UNL     1       2.190  15.087  19.101  0.00  0.00    +0.000 C 
ATOM     15  C   UNL     1       0.702  15.193  19.439  0.00  0.00    +0.000 C 
ATOM     16  C   UNL     1      -0.201  14.527  18.409  0.00  0.00    +0.000 C 
ENDBRANCH   5   7
BRANCH   1  19
ATOM     17  O   UNL     1       4.045   5.505  19.718  0.00  0.00    +0.000 OA
ATOM     18  C   UNL     1       3.851   5.950  18.595  0.00  0.00    +0.000 C 
ATOM     19  N   UNL     1       2.984   6.958  18.228  0.00  0.00    +0.000 N 
ATOM     20  H   UNL     1       2.889   7.109  17.228  0.00  0.00    +0.000 HD
BRANCH  18  21
ATOM     21  C   UNL     1       4.613   5.322  17.430  0.00  0.00    +0.000 A 
ATOM     22  C   UNL     1       4.944   6.233  16.312  0.00  0.00    +0.000 A 
ATOM     23  C   UNL     1       5.554   5.704  15.252  0.00  0.00    +0.000 A 
ATOM     24  C   UNL     1       5.883   4.267  15.234  0.00  0.00    +0.000 A 
ATOM     25  O   UNL     1       6.417   3.761  14.253  0.00  0.00    +0.000 OA
ATOM     26  N   UNL     1       5.562   3.560  16.368  0.00  0.00    +0.000 N 
ATOM     27  N   UNL     1       4.914   4.057  17.474  0.00  0.00    +0.000 NA
ATOM     28  H   UNL     1       5.775   2.568  16.363  0.00  0.00    +0.000 HD
ENDBRANCH  18  21
ENDBRANCH   1  19
TORSDOF 3
ENDMDL
MODEL 9
REMARK VINA RESULT:      -8.1      3.557      8.953
REMARK  Name = 
REMARK  3 active torsions:
REMARK  status: ('A' for Active; 'I' for Inactive)
REMARK    1  A    between atoms: C_2  and  C_20
REMARK    2  A    between atoms: N_3  and  C_4
REMARK    3  A    between atoms: C_8  and  C_9
REMARK                            x       y       z     vdW  Elec       q    Type
REMARK                         _______ _______ _______ _____ _____    ______ ____
ROOT
ATOM      1  C   UNL     1       2.314   7.837  18.737  0.00  0.00    +0.000 A 
ATOM      2  C   UNL     1       2.091   7.326  20.017  0.00  0.00    +0.000 A 
ATOM      3  C   UNL     1       1.270   7.999  20.921  0.00  0.00    +0.000 A 
ATOM      4  C   UNL     1       0.649   9.186  20.545  0.00  0.00    +0.000 A 
ATOM      5  C   UNL     1       0.863   9.727  19.271  0.00  0.00    +0.000 A 
ATOM      6  C   UNL     1       1.733   9.061  18.389  0.00  0.00    +0.000 A 
ENDROOT
BRANCH   5   7
ATOM      7  C   UNL     1       0.193  10.979  18.911  0.00  0.00    +0.000 A 
ATOM      8  N   UNL     1      -1.061  11.075  18.510  0.00  0.00    +0.000 NA
ATOM      9  N   UNL     1      -1.360  12.394  18.306  0.00  0.00    +0.000 NA
ATOM     10  C   UNL     1      -0.280  13.104  18.554  0.00  0.00    +0.000 A 
ATOM     11  N   UNL     1       0.743  12.247  18.883  0.00  0.00    +0.000 N 
ATOM     12  C   UNL     1       2.132  12.590  19.110  0.00  0.00    +0.000 C 
ATOM     13  C   UNL     1       2.662  13.711  18.227  0.00  0.00    +0.000 C 
ATOM     14  C   UNL     1       2.279  15.106  18.714  0.00  0.00    +0.000 C 
ATOM     15  C   UNL     1       0.877  15.233  19.310  0.00  0.00    +0.000 C 
ATOM     16  C   UNL     1      -0.206  14.590  18.452  0.00  0.00    +0.000 C 
ENDBRANCH   5   7
BRANCH   1  19
ATOM     17  O   UNL     1       4.377   5.760  19.122  0.00  0.00    +0.000 OA
ATOM     18  C   UNL     1       4.070   6.230  18.034  0.00  0.00    +0.000 C 
ATOM     19  N   UNL     1       3.103   7.178  17.771  0.00  0.00    +0.000 N 
ATOM     20  H   UNL     1       2.926   7.358  16.786  0.00  0.00    +0.000 HD
BRANCH  18  21
ATOM     21  C   UNL     1       4.793   5.709  16.794  0.00  0.00    +0.000 A 
ATOM     22  C   UNL     1       4.916   4.238  16.691  0.00  0.00    +0.000 A 
ATOM     23  C   UNL     1       5.597   3.752  15.654  0.00  0.00    +0.000 A 
ATOM     24  C   UNL     1       6.179   4.672  14.660  0.00  0.00    +0.000 A 
ATOM     25  O   UNL     1       6.832   4.241  13.717  0.00  0.00    +0.000 OA
ATOM     26  N   UNL     1       5.935   6.010  14.861  0.00  0.00    +0.000 N 
ATOM     27  N   UNL     1       5.259   6.558  15.925  0.00  0.00    +0.000 NA
ATOM     28  H   UNL     1       6.339   6.653  14.188  0.00  0.00    +0.000 HD
ENDBRANCH  18  21
ENDBRANCH   1  19
TORSDOF 3
ENDMDL
