MODEL 1
REMARK VINA RESULT:      -8.6      0.000      0.000
REMARK  Name = 
REMARK  5 active torsions:
REMARK  status: ('A' for Active; 'I' for Inactive)
REMARK    1  A    between atoms: C_1  and  C_2
REMARK    2  A    between atoms: C_2  and  C_3
REMARK    3  A    between atoms: C_6  and  N_7
REMARK    4  A    between atoms: N_7  and  S_8
REMARK    5  A    between atoms: S_8  and  C_11
REMARK                            x       y       z     vdW  Elec       q    Type
REMARK                         _______ _______ _______ _____ _____    ______ ____
ROOT
ATOM      1  C   UNL     1       1.489   9.128  19.013  0.00  0.00    +0.000 A 
ATOM      2  C   UNL     1       2.285   8.403  18.104  0.00  0.00    +0.000 A 
ATOM      3  C   UNL     1       2.854   7.174  18.459  0.00  0.00    +0.000 A 
ATOM      4  C   UNL     1       2.605   6.634  19.717  0.00  0.00    +0.000 A 
ATOM      5  C   UNL     1       1.785   7.312  20.614  0.00  0.00    +0.000 A 
ATOM      6  C   UNL     1       1.229   8.544  20.265  0.00  0.00    +0.000 A 
ENDROOT
BRANCH   1   8
ATOM      7  C   UNL     1       1.980  11.445  18.131  0.00  0.00    +0.000 C 
ATOM      8  C   UNL     1       0.907  10.497  18.652  0.00  0.00    +0.000 C 
ATOM      9  N   UNL     1      -0.197  10.368  17.716  0.00  0.00    +0.000 N 
ATOM     10  C   UNL     1      -1.419  10.547  18.313  0.00  0.00    +0.000 C 
ATOM     11  O   UNL     1      -2.492  10.375  17.765  0.00  0.00    +0.000 OA
ATOM     12  N   UNL     1      -1.223  10.971  19.578  0.00  0.00    +0.000 N 
ATOM     13  C   UNL     1       0.106  11.130  19.822  0.00  0.00    +0.000 C 
ATOM     14  O   UNL     1       0.566  11.655  20.826  0.00  0.00    +0.000 OA
ATOM     15  H   UNL     1      -0.138  10.016  16.772  0.00  0.00    +0.000 HD
ATOM     16  H   UNL     1      -1.961  11.269  20.192  0.00  0.00    +0.000 HD
ENDBRANCH   1   8
BRANCH   4  17
ATOM     17  N   UNL     1       3.227   5.426  20.134  0.00  0.00    +0.000 N 
ATOM     18  H   UNL     1       3.126   5.168  21.116  0.00  0.00    +0.000 HD
BRANCH  17  19
ATOM     19  S   UNL     1       3.054   4.064  19.143  0.00  0.00    +0.000 S 
ATOM     20  O   UNL     1       3.300   2.917  19.991  0.00  0.00    +0.000 OA
ATOM     21  O   UNL     1       1.829   4.174  18.384  0.00  0.00    +0.000 OA
BRANCH  19  22
ATOM     22  C   UNL     1       4.428   4.201  18.023  0.00  0.00    +0.000 A 
ATOM     23  C   UNL     1       4.218   4.003  16.651  0.00  0.00    +0.000 A 
ATOM     24  C   UNL     1       5.289   4.121  15.763  0.00  0.00    +0.000 A 
ATOM     25  C   UNL     1       6.558   4.410  16.258  0.00  0.00    +0.000 A 
ATOM     26  F   UNL     1       7.583   4.527  15.403  0.00  0.00    +0.000 F 
ATOM     27  C   UNL     1       6.764   4.578  17.624  0.00  0.00    +0.000 A 
ATOM     28  F   UNL     1       7.990   4.852  18.089  0.00  0.00    +0.000 F 
ATOM     29  C   UNL     1       5.705   4.474  18.522  0.00  0.00    +0.000 A 
ENDBRANCH  19  22
ENDBRANCH  17  19
ENDBRANCH   4  17
TORSDOF 4
ENDMDL
MODEL 2
REMARK VINA RESULT:      -8.5      1.534      2.232
REMARK  Name = 
REMARK  5 active torsions:
REMARK  status: ('A' for Active; 'I' for Inactive)
REMARK    1  A    between atoms: C_1  and  C_2
REMARK    2  A    between atoms: C_2  and  C_3
REMARK    3  A    between atoms: C_6  and  N_7
REMARK    4  A    between atoms: N_7  and  S_8
REMARK    5  A    between atoms: S_8  and  C_11
REMARK                            x       y       z     vdW  Elec       q    Type
REMARK                         _______ _______ _______ _____ _____    ______ ____
ROOT
ATOM      1  C   UNL     1       1.830   8.777  18.782  0.00  0.00    +0.000 A 
ATOM      2  C   UNL     1       1.727   7.944  19.914  0.00  0.00    +0.000 A 
ATOM      3  C   UNL     1       2.230   6.638  19.901  0.00  0.00    +0.000 A 
ATOM      4  C   UNL     1       2.877   6.158  18.767  0.00  0.00    +0.000 A 
ATOM      5  C   UNL     1       3.029   6.978  17.654  0.00  0.00    +0.000 A 
ATOM      6  C   UNL     1       2.515   8.276  17.662  0.00  0.00    +0.000 A 
ENDROOT
BRANCH   1   8
ATOM      7  C   UNL     1       2.252  11.223  18.304  0.00  0.00    +0.000 C 
ATOM      8  C   UNL     1       1.235  10.188  18.770  0.00  0.00    +0.000 C 
ATOM      9  N   UNL     1       0.017  10.237  17.979  0.00  0.00    +0.000 N 
ATOM     10  C   UNL     1      -1.113  10.293  18.754  0.00  0.00    +0.000 C 
ATOM     11  O   UNL     1      -2.252  10.225  18.329  0.00  0.00    +0.000 OA
ATOM     12  N   UNL     1      -0.747  10.466  20.041  0.00  0.00    +0.000 N 
ATOM     13  C   UNL     1       0.606  10.580  20.134  0.00  0.00    +0.000 C 
ATOM     14  O   UNL     1       1.203  10.903  21.151  0.00  0.00    +0.000 OA
ATOM     15  H   UNL     1      -0.054  10.074  16.986  0.00  0.00    +0.000 HD
ATOM     16  H   UNL     1      -1.392  10.636  20.792  0.00  0.00    +0.000 HD
ENDBRANCH   1   8
BRANCH   4  17
ATOM     17  N   UNL     1       3.332   4.813  18.696  0.00  0.00    +0.000 N 
ATOM     18  H   UNL     1       2.992   4.249  17.917  0.00  0.00    +0.000 HD
BRANCH  17  19
ATOM     19  S   UNL     1       4.978   4.519  18.965  0.00  0.00    +0.000 S 
ATOM     20  O   UNL     1       5.471   5.653  19.717  0.00  0.00    +0.000 OA
ATOM     21  O   UNL     1       5.151   3.172  19.458  0.00  0.00    +0.000 OA
BRANCH  19  22
ATOM     22  C   UNL     1       5.677   4.619  17.333  0.00  0.00    +0.000 A 
ATOM     23  C   UNL     1       6.988   5.092  17.176  0.00  0.00    +0.000 A 
ATOM     24  C   UNL     1       7.549   5.163  15.899  0.00  0.00    +0.000 A 
ATOM     25  C   UNL     1       6.788   4.786  14.797  0.00  0.00    +0.000 A 
ATOM     26  F   UNL     1       7.331   4.850  13.573  0.00  0.00    +0.000 F 
ATOM     27  C   UNL     1       5.478   4.343  14.958  0.00  0.00    +0.000 A 
ATOM     28  F   UNL     1       4.754   3.987  13.889  0.00  0.00    +0.000 F 
ATOM     29  C   UNL     1       4.907   4.258  16.224  0.00  0.00    +0.000 A 
ENDBRANCH  19  22
ENDBRANCH  17  19
ENDBRANCH   4  17
TORSDOF 4
ENDMDL
MODEL 3
REMARK VINA RESULT:      -8.5      0.891      1.500
REMARK  Name = 
REMARK  5 active torsions:
REMARK  status: ('A' for Active; 'I' for Inactive)
REMARK    1  A    between atoms: C_1  and  C_2
REMARK    2  A    between atoms: C_2  and  C_3
REMARK    3  A    between atoms: C_6  and  N_7
REMARK    4  A    between atoms: N_7  and  S_8
REMARK    5  A    between atoms: S_8  and  C_11
REMARK                            x       y       z     vdW  Elec       q    Type
REMARK                         _______ _______ _______ _____ _____    ______ ____
ROOT
ATOM      1  C   UNL     1       1.772   8.840  18.835  0.00  0.00    +0.000 A 
ATOM      2  C   UNL     1       2.615   8.223  17.890  0.00  0.00    +0.000 A 
ATOM      3  C   UNL     1       3.243   7.003  18.166  0.00  0.00    +0.000 A 
ATOM      4  C   UNL     1       3.007   6.363  19.378  0.00  0.00    +0.000 A 
ATOM      5  C   UNL     1       2.143   6.931  20.308  0.00  0.00    +0.000 A 
ATOM      6  C   UNL     1       1.528   8.155  20.038  0.00  0.00    +0.000 A 
ENDROOT
BRANCH   1   8
ATOM      7  C   UNL     1       2.126  11.198  17.997  0.00  0.00    +0.000 C 
ATOM      8  C   UNL     1       1.124  10.200  18.563  0.00  0.00    +0.000 C 
ATOM      9  N   UNL     1      -0.042  10.064  17.706  0.00  0.00    +0.000 N 
ATOM     10  C   UNL     1      -1.221  10.185  18.396  0.00  0.00    +0.000 C 
ATOM     11  O   UNL     1      -2.326   9.995  17.922  0.00  0.00    +0.000 OA
ATOM     12  N   UNL     1      -0.945  10.576  19.657  0.00  0.00    +0.000 N 
ATOM     13  C   UNL     1       0.392  10.770  19.808  0.00  0.00    +0.000 C 
ATOM     14  O   UNL     1       0.910  11.279  20.794  0.00  0.00    +0.000 OA
ATOM     15  H   UNL     1      -0.042   9.743  16.749  0.00  0.00    +0.000 HD
ATOM     16  H   UNL     1      -1.645  10.830  20.333  0.00  0.00    +0.000 HD
ENDBRANCH   1   8
BRANCH   4  17
ATOM     17  N   UNL     1       3.686   5.161  19.718  0.00  0.00    +0.000 N 
ATOM     18  H   UNL     1       3.618   4.848  20.686  0.00  0.00    +0.000 HD
BRANCH  17  19
ATOM     19  S   UNL     1       3.547   3.846  18.660  0.00  0.00    +0.000 S 
ATOM     20  O   UNL     1       3.953   2.680  19.413  0.00  0.00    +0.000 OA
ATOM     21  O   UNL     1       2.261   3.892  18.003  0.00  0.00    +0.000 OA
BRANCH  19  22
ATOM     22  C   UNL     1       4.812   4.165  17.451  0.00  0.00    +0.000 A 
ATOM     23  C   UNL     1       6.099   4.515  17.882  0.00  0.00    +0.000 A 
ATOM     24  C   UNL     1       7.102   4.756  16.939  0.00  0.00    +0.000 A 
ATOM     25  C   UNL     1       6.800   4.668  15.584  0.00  0.00    +0.000 A 
ATOM     26  F   UNL     1       7.765   4.895  14.682  0.00  0.00    +0.000 F 
ATOM     27  C   UNL     1       5.513   4.346  15.163  0.00  0.00    +0.000 A 
ATOM     28  F   UNL     1       5.233   4.269  13.856  0.00  0.00    +0.000 F 
ATOM     29  C   UNL     1       4.505   4.094  16.090  0.00  0.00    +0.000 A 
ENDBRANCH  19  22
ENDBRANCH  17  19
ENDBRANCH   4  17
TORSDOF 4
ENDMDL
MODEL 4
REMARK VINA RESULT:      -8.4      1.521      1.943
REMARK  Name = 
REMARK  5 active torsions:
REMARK  status: ('A' for Active; 'I' for Inactive)
REMARK    1  A    between atoms: C_1  and  C_2
REMARK    2  A    between atoms: C_2  and  C_3
REMARK    3  A    between atoms: C_6  and  N_7
REMARK    4  A    between atoms: N_7  and  S_8
REMARK    5  A    between atoms: S_8  and  C_11
REMARK                            x       y       z     vdW  Elec       q    Type
REMARK                         _______ _______ _______ _____ _____    ______ ____
ROOT
ATOM      1  C   UNL     1       0.975   9.273  19.527  0.00  0.00    +0.000 A 
ATOM      2  C   UNL     1       1.749   8.915  18.405  0.00  0.00    +0.000 A 
ATOM      3  C   UNL     1       2.585   7.792  18.431  0.00  0.00    +0.000 A 
ATOM      4  C   UNL     1       2.631   6.990  19.566  0.00  0.00    +0.000 A 
ATOM      5  C   UNL     1       1.841   7.299  20.668  0.00  0.00    +0.000 A 
ATOM      6  C   UNL     1       1.018   8.426  20.648  0.00  0.00    +0.000 A 
ENDROOT
BRANCH   1   8
ATOM      7  C   UNL     1      -0.871  10.538  18.351  0.00  0.00    +0.000 C 
ATOM      8  C   UNL     1       0.098  10.528  19.527  0.00  0.00    +0.000 C 
ATOM      9  N   UNL     1      -0.593  10.686  20.795  0.00  0.00    +0.000 N 
ATOM     10  C   UNL     1      -0.037  11.664  21.581  0.00  0.00    +0.000 C 
ATOM     11  O   UNL     1      -0.365  11.903  22.728  0.00  0.00    +0.000 OA
ATOM     12  N   UNL     1       0.894  12.321  20.858  0.00  0.00    +0.000 N 
ATOM     13  C   UNL     1       0.933  11.836  19.588  0.00  0.00    +0.000 C 
ATOM     14  O   UNL     1       1.565  12.347  18.673  0.00  0.00    +0.000 OA
ATOM     15  H   UNL     1      -1.288  10.061  21.175  0.00  0.00    +0.000 HD
ATOM     16  H   UNL     1       1.373  13.146  21.176  0.00  0.00    +0.000 HD
ENDBRANCH   1   8
BRANCH   4  17
ATOM     17  N   UNL     1       3.525   5.887  19.650  0.00  0.00    +0.000 N 
ATOM     18  H   UNL     1       3.755   5.548  20.584  0.00  0.00    +0.000 HD
BRANCH  17  19
ATOM     19  S   UNL     1       3.281   4.588  18.592  0.00  0.00    +0.000 S 
ATOM     20  O   UNL     1       3.546   3.390  19.359  0.00  0.00    +0.000 OA
ATOM     21  O   UNL     1       2.024   4.761  17.901  0.00  0.00    +0.000 OA
BRANCH  19  22
ATOM     22  C   UNL     1       4.603   4.771  17.417  0.00  0.00    +0.000 A 
ATOM     23  C   UNL     1       4.629   3.950  16.280  0.00  0.00    +0.000 A 
ATOM     24  C   UNL     1       5.657   4.094  15.347  0.00  0.00    +0.000 A 
ATOM     25  C   UNL     1       6.657   5.036  15.571  0.00  0.00    +0.000 A 
ATOM     26  F   UNL     1       7.640   5.175  14.671  0.00  0.00    +0.000 F 
ATOM     27  C   UNL     1       6.640   5.828  16.716  0.00  0.00    +0.000 A 
ATOM     28  F   UNL     1       7.610   6.728  16.925  0.00  0.00    +0.000 F 
ATOM     29  C   UNL     1       5.617   5.703  17.652  0.00  0.00    +0.000 A 
ENDBRANCH  19  22
ENDBRANCH  17  19
ENDBRANCH   4  17
TORSDOF 4
ENDMDL
MODEL 5
REMARK VINA RESULT:      -8.3      1.407      2.192
REMARK  Name = 
REMARK  5 active torsions:
REMARK  status: ('A' for Active; 'I' for Inactive)
REMARK    1  A    between atoms: C_1  and  C_2
REMARK    2  A    between atoms: C_2  and  C_3
REMARK    3  A    between atoms: C_6  and  N_7
REMARK    4  A    between atoms: N_7  and  S_8
REMARK    5  A    between atoms: S_8  and  C_11
REMARK                            x       y       z     vdW  Elec       q    Type
REMARK                         _______ _______ _______ _____ _____    ______ ____
ROOT
ATOM      1  C   UNL     1       1.189   8.942  19.401  0.00  0.00    +0.000 A 
ATOM      2  C   UNL     1       2.028   8.484  18.366  0.00  0.00    +0.000 A 
ATOM      3  C   UNL     1       2.815   7.337  18.525  0.00  0.00    +0.000 A 
ATOM      4  C   UNL     1       2.746   6.610  19.708  0.00  0.00    +0.000 A 
ATOM      5  C   UNL     1       1.891   7.018  20.726  0.00  0.00    +0.000 A 
ATOM      6  C   UNL     1       1.117   8.169  20.574  0.00  0.00    +0.000 A 
ENDROOT
BRANCH   1   8
ATOM      7  C   UNL     1      -0.558  10.167  18.046  0.00  0.00    +0.000 C 
ATOM      8  C   UNL     1       0.365  10.224  19.257  0.00  0.00    +0.000 C 
ATOM      9  N   UNL     1      -0.366  10.519  20.477  0.00  0.00    +0.000 N 
ATOM     10  C   UNL     1       0.200  11.541  21.197  0.00  0.00    +0.000 C 
ATOM     11  O   UNL     1      -0.161  11.893  22.306  0.00  0.00    +0.000 OA
ATOM     12  N   UNL     1       1.183  12.097  20.460  0.00  0.00    +0.000 N 
ATOM     13  C   UNL     1       1.250  11.500  19.239  0.00  0.00    +0.000 C 
ATOM     14  O   UNL     1       1.936  11.904  18.310  0.00  0.00    +0.000 OA
ATOM     15  H   UNL     1      -1.100   9.957  20.882  0.00  0.00    +0.000 HD
ATOM     16  H   UNL     1       1.684  12.927  20.724  0.00  0.00    +0.000 HD
ENDBRANCH   1   8
BRANCH   4  17
ATOM     17  N   UNL     1       3.587   5.485  19.928  0.00  0.00    +0.000 N 
ATOM     18  H   UNL     1       3.740   5.203  20.896  0.00  0.00    +0.000 HD
BRANCH  17  19
ATOM     19  S   UNL     1       3.362   4.124  18.945  0.00  0.00    +0.000 S 
ATOM     20  O   UNL     1       3.671   2.977  19.770  0.00  0.00    +0.000 OA
ATOM     21  O   UNL     1       2.091   4.227  18.266  0.00  0.00    +0.000 OA
BRANCH  19  22
ATOM     22  C   UNL     1       4.661   4.278  17.740  0.00  0.00    +0.000 A 
ATOM     23  C   UNL     1       5.970   4.533  18.172  0.00  0.00    +0.000 A 
ATOM     24  C   UNL     1       6.998   4.644  17.233  0.00  0.00    +0.000 A 
ATOM     25  C   UNL     1       6.703   4.523  15.879  0.00  0.00    +0.000 A 
ATOM     26  F   UNL     1       7.692   4.625  14.981  0.00  0.00    +0.000 F 
ATOM     27  C   UNL     1       5.396   4.297  15.456  0.00  0.00    +0.000 A 
ATOM     28  F   UNL     1       5.122   4.187  14.149  0.00  0.00    +0.000 F 
ATOM     29  C   UNL     1       4.361   4.174  16.379  0.00  0.00    +0.000 A 
ENDBRANCH  19  22
ENDBRANCH  17  19
ENDBRANCH   4  17
TORSDOF 4
ENDMDL
MODEL 6
REMARK VINA RESULT:      -8.3      0.605      1.644
REMARK  Name = 
REMARK  5 active torsions:
REMARK  status: ('A' for Active; 'I' for Inactive)
REMARK    1  A    between atoms: C_1  and  C_2
REMARK    2  A    between atoms: C_2  and  C_3
REMARK    3  A    between atoms: C_6  and  N_7
REMARK    4  A    between atoms: N_7  and  S_8
REMARK    5  A    between atoms: S_8  and  C_11
REMARK                            x       y       z     vdW  Elec       q    Type
REMARK                         _______ _______ _______ _____ _____    ______ ____
ROOT
ATOM      1  C   UNL     1       1.406   9.094  19.136  0.00  0.00    +0.000 A 
ATOM      2  C   UNL     1       1.173   8.575  20.425  0.00  0.00    +0.000 A 
ATOM      3  C   UNL     1       1.700   7.337  20.813  0.00  0.00    +0.000 A 
ATOM      4  C   UNL     1       2.498   6.617  19.931  0.00  0.00    +0.000 A 
ATOM      5  C   UNL     1       2.778   7.132  18.669  0.00  0.00    +0.000 A 
ATOM      6  C   UNL     1       2.241   8.360  18.277  0.00  0.00    +0.000 A 
ENDROOT
BRANCH   1   8
ATOM      7  C   UNL     1       1.859  11.454  18.353  0.00  0.00    +0.000 C 
ATOM      8  C   UNL     1       0.790  10.421  18.684  0.00  0.00    +0.000 C 
ATOM      9  N   UNL     1      -0.129  10.223  17.576  0.00  0.00    +0.000 N 
ATOM     10  C   UNL     1      -1.444  10.301  17.960  0.00  0.00    +0.000 C 
ATOM     11  O   UNL     1      -2.394  10.058  17.239  0.00  0.00    +0.000 OA
ATOM     12  N   UNL     1      -1.495  10.721  19.241  0.00  0.00    +0.000 N 
ATOM     13  C   UNL     1      -0.242  10.975  19.704  0.00  0.00    +0.000 C 
ATOM     14  O   UNL     1       0.003  11.518  20.773  0.00  0.00    +0.000 OA
ATOM     15  H   UNL     1       0.113   9.890  16.655  0.00  0.00    +0.000 HD
ATOM     16  H   UNL     1      -2.346  10.953  19.723  0.00  0.00    +0.000 HD
ENDBRANCH   1   8
BRANCH   4  17
ATOM     17  N   UNL     1       2.985   5.326  20.268  0.00  0.00    +0.000 N 
ATOM     18  H   UNL     1       2.790   4.988  21.211  0.00  0.00    +0.000 HD
BRANCH  17  19
ATOM     19  S   UNL     1       2.776   4.081  19.140  0.00  0.00    +0.000 S 
ATOM     20  O   UNL     1       2.900   2.843  19.879  0.00  0.00    +0.000 OA
ATOM     21  O   UNL     1       1.605   4.350  18.339  0.00  0.00    +0.000 OA
BRANCH  19  22
ATOM     22  C   UNL     1       4.215   4.228  18.105  0.00  0.00    +0.000 A 
ATOM     23  C   UNL     1       5.460   4.491  18.695  0.00  0.00    +0.000 A 
ATOM     24  C   UNL     1       6.597   4.597  17.891  0.00  0.00    +0.000 A 
ATOM     25  C   UNL     1       6.474   4.463  16.512  0.00  0.00    +0.000 A 
ATOM     26  F   UNL     1       7.567   4.560  15.744  0.00  0.00    +0.000 F 
ATOM     27  C   UNL     1       5.230   4.228  15.931  0.00  0.00    +0.000 A 
ATOM     28  F   UNL     1       5.122   4.105  14.602  0.00  0.00    +0.000 F 
ATOM     29  C   UNL     1       4.088   4.111  16.719  0.00  0.00    +0.000 A 
ENDBRANCH  19  22
ENDBRANCH  17  19
ENDBRANCH   4  17
TORSDOF 4
ENDMDL
MODEL 7
REMARK VINA RESULT:      -8.2      4.717      8.619
REMARK  Name = 
REMARK  5 active torsions:
REMARK  status: ('A' for Active; 'I' for Inactive)
REMARK    1  A    between atoms: C_1  and  C_2
REMARK    2  A    between atoms: C_2  and  C_3
REMARK    3  A    between atoms: C_6  and  N_7
REMARK    4  A    between atoms: N_7  and  S_8
REMARK    5  A    between atoms: S_8  and  C_11
REMARK                            x       y       z     vdW  Elec       q    Type
REMARK                         _______ _______ _______ _____ _____    ______ ____
ROOT
ATOM      1  C   UNL     1       4.407   5.720  18.232  0.00  0.00    +0.000 A 
ATOM      2  C   UNL     1       4.582   6.812  17.359  0.00  0.00    +0.000 A 
ATOM      3  C   UNL     1       3.578   7.773  17.190  0.00  0.00    +0.000 A 
ATOM      4  C   UNL     1       2.398   7.675  17.919  0.00  0.00    +0.000 A 
ATOM      5  C   UNL     1       2.222   6.631  18.820  0.00  0.00    +0.000 A 
ATOM      6  C   UNL     1       3.218   5.665  18.979  0.00  0.00    +0.000 A 
ENDROOT
BRANCH   1   8
ATOM      7  C   UNL     1       4.993   3.482  19.251  0.00  0.00    +0.000 C 
ATOM      8  C   UNL     1       5.478   4.636  18.383  0.00  0.00    +0.000 C 
ATOM      9  N   UNL     1       5.945   4.175  17.086  0.00  0.00    +0.000 N 
ATOM     10  C   UNL     1       7.183   4.671  16.764  0.00  0.00    +0.000 C 
ATOM     11  O   UNL     1       7.732   4.522  15.688  0.00  0.00    +0.000 OA
ATOM     12  N   UNL     1       7.686   5.309  17.841  0.00  0.00    +0.000 N 
ATOM     13  C   UNL     1       6.831   5.204  18.893  0.00  0.00    +0.000 C 
ATOM     14  O   UNL     1       7.098   5.546  20.037  0.00  0.00    +0.000 OA
ATOM     15  H   UNL     1       5.392   3.694  16.392  0.00  0.00    +0.000 HD
ATOM     16  H   UNL     1       8.621   5.673  17.892  0.00  0.00    +0.000 HD
ENDBRANCH   1   8
BRANCH   4  17
ATOM     17  N   UNL     1       1.331   8.592  17.715  0.00  0.00    +0.000 N 
ATOM     18  H   UNL     1       0.405   8.197  17.553  0.00  0.00    +0.000 HD
BRANCH  17  19
ATOM     19  S   UNL     1       1.230   9.932  18.745  0.00  0.00    +0.000 S 
ATOM     20  O   UNL     1       1.307   9.410  20.092  0.00  0.00    +0.000 OA
ATOM     21  O   UNL     1       2.146  10.955  18.295  0.00  0.00    +0.000 OA
BRANCH  19  22
ATOM     22  C   UNL     1      -0.432  10.510  18.494  0.00  0.00    +0.000 A 
ATOM     23  C   UNL     1      -1.211   9.939  17.477  0.00  0.00    +0.000 A 
ATOM     24  C   UNL     1      -2.521  10.380  17.280  0.00  0.00    +0.000 A 
ATOM     25  C   UNL     1      -3.028  11.398  18.082  0.00  0.00    +0.000 A 
ATOM     26  F   UNL     1      -4.288  11.814  17.894  0.00  0.00    +0.000 F 
ATOM     27  C   UNL     1      -2.240  11.979  19.072  0.00  0.00    +0.000 A 
ATOM     28  F   UNL     1      -2.737  12.961  19.835  0.00  0.00    +0.000 F 
ATOM     29  C   UNL     1      -0.935  11.545  19.287  0.00  0.00    +0.000 A 
ENDBRANCH  19  22
ENDBRANCH  17  19
ENDBRANCH   4  17
TORSDOF 4
ENDMDL
MODEL 8
REMARK VINA RESULT:      -8.2      4.988      9.019
REMARK  Name = 
REMARK  5 active torsions:
REMARK  status: ('A' for Active; 'I' for Inactive)
REMARK    1  A    between atoms: C_1  and  C_2
REMARK    2  A    between atoms: C_2  and  C_3
REMARK    3  A    between atoms: C_6  and  N_7
REMARK    4  A    between atoms: N_7  and  S_8
REMARK    5  A    between atoms: S_8  and  C_11
REMARK                            x       y       z     vdW  Elec       q    Type
REMARK                         _______ _______ _______ _____ _____    ______ ____
ROOT
ATOM      1  C   UNL     1       2.268   6.881  19.252  0.00  0.00    +0.000 A 
ATOM      2  C   UNL     1       1.706   7.375  20.445  0.00  0.00    +0.000 A 
ATOM      3  C   UNL     1       1.243   8.694  20.536  0.00  0.00    +0.000 A 
ATOM      4  C   UNL     1       1.302   9.526  19.424  0.00  0.00    +0.000 A 
ATOM      5  C   UNL     1       1.812   9.044  18.222  0.00  0.00    +0.000 A 
ATOM      6  C   UNL     1       2.286   7.734  18.135  0.00  0.00    +0.000 A 
ENDROOT
BRANCH   1   8
ATOM      7  C   UNL     1       4.041   5.387  18.244  0.00  0.00    +0.000 C 
ATOM      8  C   UNL     1       2.825   5.458  19.159  0.00  0.00    +0.000 C 
ATOM      9  N   UNL     1       3.113   4.920  20.478  0.00  0.00    +0.000 N 
ATOM     10  C   UNL     1       2.176   4.006  20.891  0.00  0.00    +0.000 C 
ATOM     11  O   UNL     1       2.136   3.505  22.000  0.00  0.00    +0.000 OA
ATOM     12  N   UNL     1       1.347   3.742  19.861  0.00  0.00    +0.000 N 
ATOM     13  C   UNL     1       1.743   4.421  18.751  0.00  0.00    +0.000 C 
ATOM     14  O   UNL     1       1.277   4.250  17.633  0.00  0.00    +0.000 OA
ATOM     15  H   UNL     1       3.802   5.271  21.126  0.00  0.00    +0.000 HD
ATOM     16  H   UNL     1       0.637   3.030  19.878  0.00  0.00    +0.000 HD
ENDBRANCH   1   8
BRANCH   4  17
ATOM     17  N   UNL     1       0.910  10.889  19.505  0.00  0.00    +0.000 N 
ATOM     18  H   UNL     1       1.569  11.584  19.153  0.00  0.00    +0.000 HD
BRANCH  17  19
ATOM     19  S   UNL     1      -0.670  11.287  19.042  0.00  0.00    +0.000 S 
ATOM     20  O   UNL     1      -0.568  12.509  18.273  0.00  0.00    +0.000 OA
ATOM     21  O   UNL     1      -1.319  10.119  18.494  0.00  0.00    +0.000 OA
BRANCH  19  22
ATOM     22  C   UNL     1      -1.451  11.696  20.587  0.00  0.00    +0.000 A 
ATOM     23  C   UNL     1      -0.901  11.213  21.783  0.00  0.00    +0.000 A 
ATOM     24  C   UNL     1      -1.502  11.538  23.001  0.00  0.00    +0.000 A 
ATOM     25  C   UNL     1      -2.655  12.319  23.008  0.00  0.00    +0.000 A 
ATOM     26  F   UNL     1      -3.226  12.633  24.178  0.00  0.00    +0.000 F 
ATOM     27  C   UNL     1      -3.211  12.772  21.814  0.00  0.00    +0.000 A 
ATOM     28  F   UNL     1      -4.322  13.519  21.833  0.00  0.00    +0.000 F 
ATOM     29  C   UNL     1      -2.619  12.464  20.592  0.00  0.00    +0.000 A 
ENDBRANCH  19  22
ENDBRANCH  17  19
ENDBRANCH   4  17
TORSDOF 4
ENDMDL
MODEL 9
REMARK VINA RESULT:      -8.0      4.122      8.160
REMARK  Name = 
REMARK  5 active torsions:
REMARK  status: ('A' for Active; 'I' for Inactive)
REMARK    1  A    between atoms: C_1  and  C_2
REMARK    2  A    between atoms: C_2  and  C_3
REMARK    3  A    between atoms: C_6  and  N_7
REMARK    4  A    between atoms: N_7  and  S_8
REMARK    5  A    between atoms: S_8  and  C_11
REMARK                            x       y       z     vdW  Elec       q    Type
REMARK                         _______ _______ _______ _____ _____    ______ ____
ROOT
ATOM      1  C   UNL     1       2.428   6.413  19.031  0.00  0.00    +0.000 A 
ATOM      2  C   UNL     1       2.432   7.168  17.841  0.00  0.00    +0.000 A 
ATOM      3  C   UNL     1       2.003   8.500  17.826  0.00  0.00    +0.000 A 
ATOM      4  C   UNL     1       1.596   9.109  19.009  0.00  0.00    +0.000 A 
ATOM      5  C   UNL     1       1.626   8.397  20.203  0.00  0.00    +0.000 A 
ATOM      6  C   UNL     1       2.041   7.064  20.216  0.00  0.00    +0.000 A 
ENDROOT
BRANCH   1   8
ATOM      7  C   UNL     1       4.017   4.678  18.110  0.00  0.00    +0.000 C 
ATOM      8  C   UNL     1       2.845   4.940  19.047  0.00  0.00    +0.000 C 
ATOM      9  N   UNL     1       3.126   4.489  20.399  0.00  0.00    +0.000 N 
ATOM     10  C   UNL     1       2.122   3.707  20.914  0.00  0.00    +0.000 C 
ATOM     11  O   UNL     1       2.073   3.306  22.062  0.00  0.00    +0.000 OA
ATOM     12  N   UNL     1       1.237   3.439  19.931  0.00  0.00    +0.000 N 
ATOM     13  C   UNL     1       1.658   3.983  18.757  0.00  0.00    +0.000 C 
ATOM     14  O   UNL     1       1.139   3.765  17.671  0.00  0.00    +0.000 OA
ATOM     15  H   UNL     1       3.867   4.824  20.997  0.00  0.00    +0.000 HD
ATOM     16  H   UNL     1       0.465   2.804  20.028  0.00  0.00    +0.000 HD
ENDBRANCH   1   8
BRANCH   4  17
ATOM     17  N   UNL     1       1.085  10.435  19.014  0.00  0.00    +0.000 N 
ATOM     18  H   UNL     1       1.036  10.917  18.115  0.00  0.00    +0.000 HD
BRANCH  17  19
ATOM     19  S   UNL     1      -0.307  10.744  19.927  0.00  0.00    +0.000 S 
ATOM     20  O   UNL     1      -0.532   9.561  20.728  0.00  0.00    +0.000 OA
ATOM     21  O   UNL     1      -0.199  12.046  20.543  0.00  0.00    +0.000 OA
BRANCH  19  22
ATOM     22  C   UNL     1      -1.591  10.805  18.697  0.00  0.00    +0.000 A 
ATOM     23  C   UNL     1      -2.704  11.631  18.908  0.00  0.00    +0.000 A 
ATOM     24  C   UNL     1      -3.711  11.694  17.942  0.00  0.00    +0.000 A 
ATOM     25  C   UNL     1      -3.606  10.915  16.794  0.00  0.00    +0.000 A 
ATOM     26  F   UNL     1      -4.572  10.981  15.867  0.00  0.00    +0.000 F 
ATOM     27  C   UNL     1      -2.511  10.075  16.605  0.00  0.00    +0.000 A 
ATOM     28  F   UNL     1      -2.423   9.327  15.497  0.00  0.00    +0.000 F 
ATOM     29  C   UNL     1      -1.494  10.009  17.553  0.00  0.00    +0.000 A 
ENDBRANCH  19  22
ENDBRANCH  17  19
ENDBRANCH   4  17
TORSDOF 4
ENDMDL
