MODEL 1
REMARK VINA RESULT:      -8.1      0.000      0.000
REMARK  Name = 
REMARK  6 active torsions:
REMARK  status: ('A' for Active; 'I' for Inactive)
REMARK    1  A    between atoms: C_2  and  C_14
REMARK    2  A    between atoms: N_3  and  C_4
REMARK    3  A    between atoms: C_4  and  C_5
REMARK    4  A    between atoms: C_14  and  O_15
REMARK    5  A    between atoms: C_14  and  C_22
REMARK    6  A    between atoms: O_15  and  C_16
REMARK                            x       y       z     vdW  Elec       q    Type
REMARK                         _______ _______ _______ _____ _____    ______ ____
ROOT
ATOM      1  O   UNL     1       1.521   7.690  17.320  0.00  0.00    +0.000 OA
ATOM      2  C   UNL     1       2.108   7.276  18.323  0.00  0.00    +0.000 C 
ATOM      3  N   UNL     1       2.077   8.004  19.498  0.00  0.00    +0.000 N 
ATOM      4  H   UNL     1       2.518   7.671  20.347  0.00  0.00    +0.000 HD
ENDROOT
BRANCH   3   5
ATOM      5  C   UNL     1       1.396   9.279  19.566  0.00  0.00    +0.000 C 
BRANCH   5   6
ATOM      6  C   UNL     1       0.850   9.493  20.933  0.00  0.00    +0.000 A 
ATOM      7  N   UNL     1       1.237   8.892  22.046  0.00  0.00    +0.000 NA
ATOM      8  N   UNL     1       0.504   9.409  23.091  0.00  0.00    +0.000 NA
ATOM      9  C   UNL     1      -0.313  10.315  22.602  0.00  0.00    +0.000 A 
ATOM     10  C   UNL     1      -1.274  11.174  23.204  0.00  0.00    +0.000 A 
ATOM     11  C   UNL     1      -1.981  12.027  22.435  0.00  0.00    +0.000 A 
ATOM     12  C   UNL     1      -1.792  12.082  20.993  0.00  0.00    +0.000 A 
ATOM     13  C   UNL     1      -0.881  11.272  20.419  0.00  0.00    +0.000 A 
ATOM     14  N   UNL     1      -0.144  10.401  21.226  0.00  0.00    +0.000 N 
ENDBRANCH   5   6
ENDBRANCH   3   5
BRANCH   2  15
ATOM     15  C   UNL     1       2.943   5.960  18.360  0.00  0.00    +0.000 C 
BRANCH  15  16
ATOM     16  C   UNL     1       2.268   4.915  19.251  0.00  0.00    +0.000 A 
ATOM     17  C   UNL     1       2.596   4.864  20.619  0.00  0.00    +0.000 A 
ATOM     18  C   UNL     1       2.036   3.896  21.453  0.00  0.00    +0.000 A 
ATOM     19  C   UNL     1       1.144   2.962  20.933  0.00  0.00    +0.000 A 
ATOM     20  C   UNL     1       0.809   2.998  19.580  0.00  0.00    +0.000 A 
ATOM     21  C   UNL     1       1.369   3.968  18.742  0.00  0.00    +0.000 A 
ENDBRANCH  15  16
BRANCH  15  22
ATOM     22  O   UNL     1       4.285   6.171  18.807  0.00  0.00    +0.000 OA
BRANCH  22  23
ATOM     23  C   UNL     1       5.325   5.676  18.068  0.00  0.00    +0.000 A 
ATOM     24  C   UNL     1       6.552   5.226  18.561  0.00  0.00    +0.000 A 
ATOM     25  C   UNL     1       7.523   4.709  17.701  0.00  0.00    +0.000 A 
ATOM     26  C   UNL     1       7.290   4.650  16.332  0.00  0.00    +0.000 A 
ATOM     27  C   UNL     1       6.084   5.121  15.821  0.00  0.00    +0.000 A 
ATOM     28  C   UNL     1       5.107   5.632  16.686  0.00  0.00    +0.000 A 
ENDBRANCH  22  23
ENDBRANCH  15  22
ENDBRANCH   2  15
TORSDOF 6
ENDMDL
MODEL 2
REMARK VINA RESULT:      -8.0      0.577      1.428
REMARK  Name = 
REMARK  6 active torsions:
REMARK  status: ('A' for Active; 'I' for Inactive)
REMARK    1  A    between atoms: C_2  and  C_14
REMARK    2  A    between atoms: N_3  and  C_4
REMARK    3  A    between atoms: C_4  and  C_5
REMARK    4  A    between atoms: C_14  and  O_15
REMARK    5  A    between atoms: C_14  and  C_22
REMARK    6  A    between atoms: O_15  and  C_16
REMARK                            x       y       z     vdW  Elec       q    Type
REMARK                         _______ _______ _______ _____ _____    ______ ____
ROOT
ATOM      1  O   UNL     1       2.409   8.645  17.071  0.00  0.00    +0.000 OA
ATOM      2  C   UNL     1       2.429   7.835  18.002  0.00  0.00    +0.000 C 
ATOM      3  N   UNL     1       1.856   8.157  19.218  0.00  0.00    +0.000 N 
ATOM      4  H   UNL     1       1.825   7.499  19.987  0.00  0.00    +0.000 HD
ENDROOT
BRANCH   3   5
ATOM      5  C   UNL     1       1.260   9.457  19.439  0.00  0.00    +0.000 C 
BRANCH   5   6
ATOM      6  C   UNL     1       0.718   9.540  20.821  0.00  0.00    +0.000 A 
ATOM      7  N   UNL     1       1.067   8.798  21.858  0.00  0.00    +0.000 NA
ATOM      8  N   UNL     1       0.354   9.228  22.955  0.00  0.00    +0.000 NA
ATOM      9  C   UNL     1      -0.412  10.226  22.573  0.00  0.00    +0.000 A 
ATOM     10  C   UNL     1      -1.332  11.058  23.270  0.00  0.00    +0.000 A 
ATOM     11  C   UNL     1      -1.989  12.029  22.604  0.00  0.00    +0.000 A 
ATOM     12  C   UNL     1      -1.789  12.239  21.178  0.00  0.00    +0.000 A 
ATOM     13  C   UNL     1      -0.917  11.454  20.515  0.00  0.00    +0.000 A 
ATOM     14  N   UNL     1      -0.230  10.460  21.216  0.00  0.00    +0.000 N 
ENDBRANCH   5   6
ENDBRANCH   3   5
BRANCH   2  15
ATOM     15  C   UNL     1       3.108   6.434  17.920  0.00  0.00    +0.000 C 
BRANCH  15  16
ATOM     16  C   UNL     1       2.438   5.449  18.881  0.00  0.00    +0.000 A 
ATOM     17  C   UNL     1       1.581   4.460  18.363  0.00  0.00    +0.000 A 
ATOM     18  C   UNL     1       0.917   3.574  19.211  0.00  0.00    +0.000 A 
ATOM     19  C   UNL     1       1.095   3.664  20.589  0.00  0.00    +0.000 A 
ATOM     20  C   UNL     1       1.941   4.639  21.118  0.00  0.00    +0.000 A 
ATOM     21  C   UNL     1       2.608   5.528  20.270  0.00  0.00    +0.000 A 
ENDBRANCH  15  16
BRANCH  15  22
ATOM     22  O   UNL     1       4.511   6.484  18.193  0.00  0.00    +0.000 OA
BRANCH  22  23
ATOM     23  C   UNL     1       5.376   5.788  17.393  0.00  0.00    +0.000 A 
ATOM     24  C   UNL     1       5.211   5.515  16.034  0.00  0.00    +0.000 A 
ATOM     25  C   UNL     1       6.188   4.821  15.318  0.00  0.00    +0.000 A 
ATOM     26  C   UNL     1       7.339   4.371  15.955  0.00  0.00    +0.000 A 
ATOM     27  C   UNL     1       7.506   4.609  17.317  0.00  0.00    +0.000 A 
ATOM     28  C   UNL     1       6.528   5.314  18.031  0.00  0.00    +0.000 A 
ENDBRANCH  22  23
ENDBRANCH  15  22
ENDBRANCH   2  15
TORSDOF 6
ENDMDL
MODEL 3
REMARK VINA RESULT:      -8.0      1.004      4.178
REMARK  Name = 
REMARK  6 active torsions:
REMARK  status: ('A' for Active; 'I' for Inactive)
REMARK    1  A    between atoms: C_2  and  C_14
REMARK    2  A    between atoms: N_3  and  C_4
REMARK    3  A    between atoms: C_4  and  C_5
REMARK    4  A    between atoms: C_14  and  O_15
REMARK    5  A    between atoms: C_14  and  C_22
REMARK    6  A    between atoms: O_15  and  C_16
REMARK                            x       y       z     vdW  Elec       q    Type
REMARK                         _______ _______ _______ _____ _____    ______ ____
ROOT
ATOM      1  O   UNL     1       3.039   8.040  17.217  0.00  0.00    +0.000 OA
ATOM      2  C   UNL     1       2.900   7.337  18.222  0.00  0.00    +0.000 C 
ATOM      3  N   UNL     1       2.102   7.764  19.266  0.00  0.00    +0.000 N 
ATOM      4  H   UNL     1       1.940   7.193  20.086  0.00  0.00    +0.000 HD
ENDROOT
BRANCH   3   5
ATOM      5  C   UNL     1       1.449   9.055  19.224  0.00  0.00    +0.000 C 
BRANCH   5   6
ATOM      6  C   UNL     1       0.964   9.425  20.580  0.00  0.00    +0.000 A 
ATOM      7  N   UNL     1       1.400   8.954  21.737  0.00  0.00    +0.000 NA
ATOM      8  N   UNL     1       0.713   9.589  22.747  0.00  0.00    +0.000 NA
ATOM      9  C   UNL     1      -0.125  10.438  22.194  0.00  0.00    +0.000 A 
ATOM     10  C   UNL     1      -1.059  11.364  22.737  0.00  0.00    +0.000 A 
ATOM     11  C   UNL     1      -1.799  12.127  21.907  0.00  0.00    +0.000 A 
ATOM     12  C   UNL     1      -1.674  12.018  20.462  0.00  0.00    +0.000 A 
ATOM     13  C   UNL     1      -0.788  11.144  19.944  0.00  0.00    +0.000 A 
ATOM     14  N   UNL     1      -0.017  10.366  20.812  0.00  0.00    +0.000 N 
ENDBRANCH   5   6
ENDBRANCH   3   5
BRANCH   2  15
ATOM     15  C   UNL     1       3.610   5.964  18.426  0.00  0.00    +0.000 C 
BRANCH  15  16
ATOM     16  C   UNL     1       4.792   5.817  17.465  0.00  0.00    +0.000 A 
ATOM     17  C   UNL     1       4.663   4.979  16.341  0.00  0.00    +0.000 A 
ATOM     18  C   UNL     1       5.734   4.784  15.469  0.00  0.00    +0.000 A 
ATOM     19  C   UNL     1       6.950   5.419  15.707  0.00  0.00    +0.000 A 
ATOM     20  C   UNL     1       7.094   6.252  16.817  0.00  0.00    +0.000 A 
ATOM     21  C   UNL     1       6.022   6.449  17.693  0.00  0.00    +0.000 A 
ENDBRANCH  15  16
BRANCH  15  22
ATOM     22  O   UNL     1       2.722   4.854  18.262  0.00  0.00    +0.000 OA
BRANCH  22  23
ATOM     23  C   UNL     1       2.390   4.093  19.349  0.00  0.00    +0.000 A 
ATOM     24  C   UNL     1       1.121   3.975  19.921  0.00  0.00    +0.000 A 
ATOM     25  C   UNL     1       0.904   3.133  21.014  0.00  0.00    +0.000 A 
ATOM     26  C   UNL     1       1.956   2.410  21.564  0.00  0.00    +0.000 A 
ATOM     27  C   UNL     1       3.232   2.539  21.024  0.00  0.00    +0.000 A 
ATOM     28  C   UNL     1       3.447   3.377  19.922  0.00  0.00    +0.000 A 
ENDBRANCH  22  23
ENDBRANCH  15  22
ENDBRANCH   2  15
TORSDOF 6
ENDMDL
MODEL 4
REMARK VINA RESULT:      -8.0      3.704      8.373
REMARK  Name = 
REMARK  6 active torsions:
REMARK  status: ('A' for Active; 'I' for Inactive)
REMARK    1  A    between atoms: C_2  and  C_14
REMARK    2  A    between atoms: N_3  and  C_4
REMARK    3  A    between atoms: C_4  and  C_5
REMARK    4  A    between atoms: C_14  and  O_15
REMARK    5  A    between atoms: C_14  and  C_22
REMARK    6  A    between atoms: O_15  and  C_16
REMARK                            x       y       z     vdW  Elec       q    Type
REMARK                         _______ _______ _______ _____ _____    ______ ____
ROOT
ATOM      1  O   UNL     1       5.891   4.067  19.039  0.00  0.00    +0.000 OA
ATOM      2  C   UNL     1       4.864   4.390  18.436  0.00  0.00    +0.000 C 
ATOM      3  N   UNL     1       4.691   4.034  17.112  0.00  0.00    +0.000 N 
ATOM      4  H   UNL     1       3.844   4.252  16.603  0.00  0.00    +0.000 HD
ENDROOT
BRANCH   3   5
ATOM      5  C   UNL     1       5.723   3.315  16.395  0.00  0.00    +0.000 C 
BRANCH   5   6
ATOM      6  C   UNL     1       6.524   4.259  15.572  0.00  0.00    +0.000 A 
ATOM      7  N   UNL     1       7.276   5.254  16.011  0.00  0.00    +0.000 NA
ATOM      8  N   UNL     1       7.877   5.851  14.925  0.00  0.00    +0.000 NA
ATOM      9  C   UNL     1       7.487   5.211  13.845  0.00  0.00    +0.000 A 
ATOM     10  C   UNL     1       7.795   5.370  12.465  0.00  0.00    +0.000 A 
ATOM     11  C   UNL     1       7.235   4.543  11.559  0.00  0.00    +0.000 A 
ATOM     12  C   UNL     1       6.308   3.495  11.958  0.00  0.00    +0.000 A 
ATOM     13  C   UNL     1       6.016   3.340  13.264  0.00  0.00    +0.000 A 
ATOM     14  N   UNL     1       6.611   4.193  14.198  0.00  0.00    +0.000 N 
ENDBRANCH   5   6
ENDBRANCH   3   5
BRANCH   2  15
ATOM     15  C   UNL     1       3.714   5.232  19.069  0.00  0.00    +0.000 C 
BRANCH  15  16
ATOM     16  C   UNL     1       2.725   4.329  19.810  0.00  0.00    +0.000 A 
ATOM     17  C   UNL     1       1.610   3.818  19.118  0.00  0.00    +0.000 A 
ATOM     18  C   UNL     1       0.664   3.030  19.771  0.00  0.00    +0.000 A 
ATOM     19  C   UNL     1       0.813   2.742  21.125  0.00  0.00    +0.000 A 
ATOM     20  C   UNL     1       1.912   3.240  21.825  0.00  0.00    +0.000 A 
ATOM     21  C   UNL     1       2.862   4.030  21.172  0.00  0.00    +0.000 A 
ENDBRANCH  15  16
BRANCH  15  22
ATOM     22  O   UNL     1       3.010   6.017  18.103  0.00  0.00    +0.000 OA
BRANCH  22  23
ATOM     23  C   UNL     1       2.465   7.215  18.479  0.00  0.00    +0.000 A 
ATOM     24  C   UNL     1       2.238   8.317  17.653  0.00  0.00    +0.000 A 
ATOM     25  C   UNL     1       1.640   9.477  18.153  0.00  0.00    +0.000 A 
ATOM     26  C   UNL     1       1.277   9.558  19.492  0.00  0.00    +0.000 A 
ATOM     27  C   UNL     1       1.523   8.478  20.336  0.00  0.00    +0.000 A 
ATOM     28  C   UNL     1       2.115   7.313  19.830  0.00  0.00    +0.000 A 
ENDBRANCH  22  23
ENDBRANCH  15  22
ENDBRANCH   2  15
TORSDOF 6
ENDMDL
MODEL 5
REMARK VINA RESULT:      -8.0      1.545      2.084
REMARK  Name = 
REMARK  6 active torsions:
REMARK  status: ('A' for Active; 'I' for Inactive)
REMARK    1  A    between atoms: C_2  and  C_14
REMARK    2  A    between atoms: N_3  and  C_4
REMARK    3  A    between atoms: C_4  and  C_5
REMARK    4  A    between atoms: C_14  and  O_15
REMARK    5  A    between atoms: C_14  and  C_22
REMARK    6  A    between atoms: O_15  and  C_16
REMARK                            x       y       z     vdW  Elec       q    Type
REMARK                         _______ _______ _______ _____ _____    ______ ____
ROOT
ATOM      1  O   UNL     1       1.549   5.495  20.526  0.00  0.00    +0.000 OA
ATOM      2  C   UNL     1       2.216   6.229  19.793  0.00  0.00    +0.000 C 
ATOM      3  N   UNL     1       2.208   7.598  19.983  0.00  0.00    +0.000 N 
ATOM      4  H   UNL     1       2.774   8.221  19.421  0.00  0.00    +0.000 HD
ENDROOT
BRANCH   3   5
ATOM      5  C   UNL     1       1.390   8.201  21.013  0.00  0.00    +0.000 C 
BRANCH   5   6
ATOM      6  C   UNL     1       0.695   9.400  20.475  0.00  0.00    +0.000 A 
ATOM      7  N   UNL     1       0.697   9.825  19.222  0.00  0.00    +0.000 NA
ATOM      8  N   UNL     1      -0.103  10.943  19.145  0.00  0.00    +0.000 NA
ATOM      9  C   UNL     1      -0.581  11.181  20.346  0.00  0.00    +0.000 A 
ATOM     10  C   UNL     1      -1.463  12.175  20.854  0.00  0.00    +0.000 A 
ATOM     11  C   UNL     1      -1.791  12.169  22.162  0.00  0.00    +0.000 A 
ATOM     12  C   UNL     1      -1.251  11.173  23.075  0.00  0.00    +0.000 A 
ATOM     13  C   UNL     1      -0.417  10.228  22.597  0.00  0.00    +0.000 A 
ATOM     14  N   UNL     1      -0.094  10.234  21.238  0.00  0.00    +0.000 N 
ENDBRANCH   5   6
ENDBRANCH   3   5
BRANCH   2  15
ATOM     15  C   UNL     1       3.076   5.713  18.599  0.00  0.00    +0.000 C 
BRANCH  15  16
ATOM     16  C   UNL     1       3.126   4.184  18.587  0.00  0.00    +0.000 A 
ATOM     17  C   UNL     1       3.880   3.514  19.569  0.00  0.00    +0.000 A 
ATOM     18  C   UNL     1       3.987   2.123  19.562  0.00  0.00    +0.000 A 
ATOM     19  C   UNL     1       3.345   1.381  18.575  0.00  0.00    +0.000 A 
ATOM     20  C   UNL     1       2.593   2.029  17.595  0.00  0.00    +0.000 A 
ATOM     21  C   UNL     1       2.485   3.423  17.599  0.00  0.00    +0.000 A 
ENDBRANCH  15  16
BRANCH  15  22
ATOM     22  O   UNL     1       4.408   6.233  18.614  0.00  0.00    +0.000 OA
BRANCH  22  23
ATOM     23  C   UNL     1       5.313   5.787  17.690  0.00  0.00    +0.000 A 
ATOM     24  C   UNL     1       6.554   5.204  17.960  0.00  0.00    +0.000 A 
ATOM     25  C   UNL     1       7.376   4.756  16.923  0.00  0.00    +0.000 A 
ATOM     26  C   UNL     1       6.978   4.900  15.599  0.00  0.00    +0.000 A 
ATOM     27  C   UNL     1       5.757   5.505  15.312  0.00  0.00    +0.000 A 
ATOM     28  C   UNL     1       4.931   5.946  16.354  0.00  0.00    +0.000 A 
ENDBRANCH  22  23
ENDBRANCH  15  22
ENDBRANCH   2  15
TORSDOF 6
ENDMDL
MODEL 6
REMARK VINA RESULT:      -7.9      1.881      2.672
REMARK  Name = 
REMARK  6 active torsions:
REMARK  status: ('A' for Active; 'I' for Inactive)
REMARK    1  A    between atoms: C_2  and  C_14
REMARK    2  A    between atoms: N_3  and  C_4
REMARK    3  A    between atoms: C_4  and  C_5
REMARK    4  A    between atoms: C_14  and  O_15
REMARK    5  A    between atoms: C_14  and  C_22
REMARK    6  A    between atoms: O_15  and  C_16
REMARK                            x       y       z     vdW  Elec       q    Type
REMARK                         _______ _______ _______ _____ _____    ______ ____
ROOT
ATOM      1  O   UNL     1       1.820   7.630  20.674  0.00  0.00    +0.000 OA
ATOM      2  C   UNL     1       2.042   7.573  19.462  0.00  0.00    +0.000 C 
ATOM      3  N   UNL     1       1.793   8.667  18.655  0.00  0.00    +0.000 N 
ATOM      4  H   UNL     1       2.000   8.662  17.664  0.00  0.00    +0.000 HD
ENDROOT
BRANCH   3   5
ATOM      5  C   UNL     1       1.229   9.882  19.203  0.00  0.00    +0.000 C 
BRANCH   5   6
ATOM      6  C   UNL     1      -0.102  10.145  18.595  0.00  0.00    +0.000 A 
ATOM      7  N   UNL     1      -0.592   9.608  17.490  0.00  0.00    +0.000 NA
ATOM      8  N   UNL     1      -1.869  10.091  17.307  0.00  0.00    +0.000 NA
ATOM      9  C   UNL     1      -2.139  10.908  18.300  0.00  0.00    +0.000 A 
ATOM     10  C   UNL     1      -3.293  11.668  18.638  0.00  0.00    +0.000 A 
ATOM     11  C   UNL     1      -3.285  12.434  19.748  0.00  0.00    +0.000 A 
ATOM     12  C   UNL     1      -2.113  12.513  20.607  0.00  0.00    +0.000 A 
ATOM     13  C   UNL     1      -1.019  11.793  20.291  0.00  0.00    +0.000 A 
ATOM     14  N   UNL     1      -1.041  10.992  19.146  0.00  0.00    +0.000 N 
ENDBRANCH   5   6
ENDBRANCH   3   5
BRANCH   2  15
ATOM     15  C   UNL     1       2.573   6.300  18.735  0.00  0.00    +0.000 C 
BRANCH  15  16
ATOM     16  C   UNL     1       2.148   5.032  19.481  0.00  0.00    +0.000 A 
ATOM     17  C   UNL     1       1.346   4.083  18.820  0.00  0.00    +0.000 A 
ATOM     18  C   UNL     1       0.901   2.938  19.481  0.00  0.00    +0.000 A 
ATOM     19  C   UNL     1       1.247   2.726  20.813  0.00  0.00    +0.000 A 
ATOM     20  C   UNL     1       2.041   3.657  21.483  0.00  0.00    +0.000 A 
ATOM     21  C   UNL     1       2.488   4.805  20.822  0.00  0.00    +0.000 A 
ENDBRANCH  15  16
BRANCH  15  22
ATOM     22  O   UNL     1       3.995   6.305  18.580  0.00  0.00    +0.000 OA
BRANCH  22  23
ATOM     23  C   UNL     1       4.554   5.698  17.489  0.00  0.00    +0.000 A 
ATOM     24  C   UNL     1       4.838   4.338  17.353  0.00  0.00    +0.000 A 
ATOM     25  C   UNL     1       5.380   3.834  16.168  0.00  0.00    +0.000 A 
ATOM     26  C   UNL     1       5.663   4.686  15.107  0.00  0.00    +0.000 A 
ATOM     27  C   UNL     1       5.413   6.050  15.237  0.00  0.00    +0.000 A 
ATOM     28  C   UNL     1       4.861   6.551  16.423  0.00  0.00    +0.000 A 
ENDBRANCH  22  23
ENDBRANCH  15  22
ENDBRANCH   2  15
TORSDOF 6
ENDMDL
MODEL 7
REMARK VINA RESULT:      -7.9      1.835      2.666
REMARK  Name = 
REMARK  6 active torsions:
REMARK  status: ('A' for Active; 'I' for Inactive)
REMARK    1  A    between atoms: C_2  and  C_14
REMARK    2  A    between atoms: N_3  and  C_4
REMARK    3  A    between atoms: C_4  and  C_5
REMARK    4  A    between atoms: C_14  and  O_15
REMARK    5  A    between atoms: C_14  and  C_22
REMARK    6  A    between atoms: O_15  and  C_16
REMARK                            x       y       z     vdW  Elec       q    Type
REMARK                         _______ _______ _______ _____ _____    ______ ____
ROOT
ATOM      1  O   UNL     1       1.968   7.782  20.526  0.00  0.00    +0.000 OA
ATOM      2  C   UNL     1       2.172   7.747  19.310  0.00  0.00    +0.000 C 
ATOM      3  N   UNL     1       1.802   8.811  18.509  0.00  0.00    +0.000 N 
ATOM      4  H   UNL     1       1.990   8.825  17.514  0.00  0.00    +0.000 HD
ENDROOT
BRANCH   3   5
ATOM      5  C   UNL     1       1.133   9.965  19.068  0.00  0.00    +0.000 C 
BRANCH   5   6
ATOM      6  C   UNL     1      -0.205  10.134  18.440  0.00  0.00    +0.000 A 
ATOM      7  N   UNL     1      -0.653   9.530  17.353  0.00  0.00    +0.000 NA
ATOM      8  N   UNL     1      -1.952   9.936  17.140  0.00  0.00    +0.000 NA
ATOM      9  C   UNL     1      -2.275  10.775  18.099  0.00  0.00    +0.000 A 
ATOM     10  C   UNL     1      -3.472  11.484  18.398  0.00  0.00    +0.000 A 
ATOM     11  C   UNL     1      -3.517  12.290  19.478  0.00  0.00    +0.000 A 
ATOM     12  C   UNL     1      -2.360  12.464  20.343  0.00  0.00    +0.000 A 
ATOM     13  C   UNL     1      -1.225  11.792  20.065  0.00  0.00    +0.000 A 
ATOM     14  N   UNL     1      -1.193  10.948  18.951  0.00  0.00    +0.000 N 
ENDBRANCH   5   6
ENDBRANCH   3   5
BRANCH   2  15
ATOM     15  C   UNL     1       2.811   6.531  18.572  0.00  0.00    +0.000 C 
BRANCH  15  16
ATOM     16  C   UNL     1       2.089   5.232  18.940  0.00  0.00    +0.000 A 
ATOM     17  C   UNL     1       1.826   4.953  20.294  0.00  0.00    +0.000 A 
ATOM     18  C   UNL     1       1.212   3.759  20.672  0.00  0.00    +0.000 A 
ATOM     19  C   UNL     1       0.853   2.825  19.704  0.00  0.00    +0.000 A 
ATOM     20  C   UNL     1       1.106   3.086  18.357  0.00  0.00    +0.000 A 
ATOM     21  C   UNL     1       1.722   4.283  17.977  0.00  0.00    +0.000 A 
ENDBRANCH  15  16
BRANCH  15  22
ATOM     22  O   UNL     1       4.208   6.392  18.844  0.00  0.00    +0.000 OA
BRANCH  22  23
ATOM     23  C   UNL     1       5.034   5.884  17.879  0.00  0.00    +0.000 A 
ATOM     24  C   UNL     1       4.841   5.964  16.498  0.00  0.00    +0.000 A 
ATOM     25  C   UNL     1       5.780   5.433  15.611  0.00  0.00    +0.000 A 
ATOM     26  C   UNL     1       6.919   4.797  16.093  0.00  0.00    +0.000 A 
ATOM     27  C   UNL     1       7.112   4.683  17.467  0.00  0.00    +0.000 A 
ATOM     28  C   UNL     1       6.172   5.224  18.354  0.00  0.00    +0.000 A 
ENDBRANCH  22  23
ENDBRANCH  15  22
ENDBRANCH   2  15
TORSDOF 6
ENDMDL
MODEL 8
REMARK VINA RESULT:      -7.9      2.761      8.293
REMARK  Name = 
REMARK  6 active torsions:
REMARK  status: ('A' for Active; 'I' for Inactive)
REMARK    1  A    between atoms: C_2  and  C_14
REMARK    2  A    between atoms: N_3  and  C_4
REMARK    3  A    between atoms: C_4  and  C_5
REMARK    4  A    between atoms: C_14  and  O_15
REMARK    5  A    between atoms: C_14  and  C_22
REMARK    6  A    between atoms: O_15  and  C_16
REMARK                            x       y       z     vdW  Elec       q    Type
REMARK                         _______ _______ _______ _____ _____    ______ ____
ROOT
ATOM      1  O   UNL     1       2.159  11.074  18.465  0.00  0.00    +0.000 OA
ATOM      2  C   UNL     1       1.265  10.225  18.509  0.00  0.00    +0.000 C 
ATOM      3  N   UNL     1       1.534   8.911  18.175  0.00  0.00    +0.000 N 
ATOM      4  H   UNL     1       0.830   8.186  18.238  0.00  0.00    +0.000 HD
ENDROOT
BRANCH   3   5
ATOM      5  C   UNL     1       2.851   8.511  17.728  0.00  0.00    +0.000 C 
BRANCH   5   6
ATOM      6  C   UNL     1       3.063   7.064  17.995  0.00  0.00    +0.000 A 
ATOM      7  N   UNL     1       2.423   6.317  18.878  0.00  0.00    +0.000 NA
ATOM      8  N   UNL     1       2.894   5.027  18.773  0.00  0.00    +0.000 NA
ATOM      9  C   UNL     1       3.808   5.007  17.829  0.00  0.00    +0.000 A 
ATOM     10  C   UNL     1       4.607   3.964  17.281  0.00  0.00    +0.000 A 
ATOM     11  C   UNL     1       5.478   4.243  16.291  0.00  0.00    +0.000 A 
ATOM     12  C   UNL     1       5.633   5.595  15.774  0.00  0.00    +0.000 A 
ATOM     13  C   UNL     1       4.877   6.584  16.289  0.00  0.00    +0.000 A 
ATOM     14  N   UNL     1       3.967   6.283  17.306  0.00  0.00    +0.000 N 
ENDBRANCH   5   6
ENDBRANCH   3   5
BRANCH   2  15
ATOM     15  C   UNL     1      -0.212  10.539  18.896  0.00  0.00    +0.000 C 
BRANCH  15  16
ATOM     16  C   UNL     1      -0.417  10.403  20.407  0.00  0.00    +0.000 A 
ATOM     17  C   UNL     1      -0.794  11.535  21.154  0.00  0.00    +0.000 A 
ATOM     18  C   UNL     1      -0.945  11.461  22.538  0.00  0.00    +0.000 A 
ATOM     19  C   UNL     1      -0.722  10.256  23.198  0.00  0.00    +0.000 A 
ATOM     20  C   UNL     1      -0.348   9.124  22.474  0.00  0.00    +0.000 A 
ATOM     21  C   UNL     1      -0.195   9.197  21.086  0.00  0.00    +0.000 A 
ENDBRANCH  15  16
BRANCH  15  22
ATOM     22  O   UNL     1      -1.151   9.705  18.212  0.00  0.00    +0.000 OA
BRANCH  22  23
ATOM     23  C   UNL     1      -2.256  10.269  17.636  0.00  0.00    +0.000 A 
ATOM     24  C   UNL     1      -3.213  11.059  18.278  0.00  0.00    +0.000 A 
ATOM     25  C   UNL     1      -4.283  11.608  17.568  0.00  0.00    +0.000 A 
ATOM     26  C   UNL     1      -4.422  11.362  16.207  0.00  0.00    +0.000 A 
ATOM     27  C   UNL     1      -3.493  10.553  15.558  0.00  0.00    +0.000 A 
ATOM     28  C   UNL     1      -2.417  10.010  16.271  0.00  0.00    +0.000 A 
ENDBRANCH  22  23
ENDBRANCH  15  22
ENDBRANCH   2  15
TORSDOF 6
ENDMDL
MODEL 9
REMARK VINA RESULT:      -7.8      1.219      1.738
REMARK  Name = 
REMARK  6 active torsions:
REMARK  status: ('A' for Active; 'I' for Inactive)
REMARK    1  A    between atoms: C_2  and  C_14
REMARK    2  A    between atoms: N_3  and  C_4
REMARK    3  A    between atoms: C_4  and  C_5
REMARK    4  A    between atoms: C_14  and  O_15
REMARK    5  A    between atoms: C_14  and  C_22
REMARK    6  A    between atoms: O_15  and  C_16
REMARK                            x       y       z     vdW  Elec       q    Type
REMARK                         _______ _______ _______ _____ _____    ______ ____
ROOT
ATOM      1  O   UNL     1       4.277   7.481  17.801  0.00  0.00    +0.000 OA
ATOM      2  C   UNL     1       3.287   6.748  17.872  0.00  0.00    +0.000 C 
ATOM      3  N   UNL     1       2.040   7.284  18.132  0.00  0.00    +0.000 N 
ATOM      4  H   UNL     1       1.205   6.713  18.158  0.00  0.00    +0.000 HD
ENDROOT
BRANCH   3   5
ATOM      5  C   UNL     1       1.874   8.703  18.367  0.00  0.00    +0.000 C 
BRANCH   5   6
ATOM      6  C   UNL     1       1.354   8.934  19.740  0.00  0.00    +0.000 A 
ATOM      7  N   UNL     1       1.571   8.186  20.809  0.00  0.00    +0.000 NA
ATOM      8  N   UNL     1       0.943   8.777  21.883  0.00  0.00    +0.000 NA
ATOM      9  C   UNL     1       0.358   9.874  21.455  0.00  0.00    +0.000 A 
ATOM     10  C   UNL     1      -0.405  10.879  22.112  0.00  0.00    +0.000 A 
ATOM     11  C   UNL     1      -0.887  11.919  21.402  0.00  0.00    +0.000 A 
ATOM     12  C   UNL     1      -0.654  12.034  19.971  0.00  0.00    +0.000 A 
ATOM     13  C   UNL     1       0.071  11.085  19.346  0.00  0.00    +0.000 A 
ATOM     14  N   UNL     1       0.577  10.017  20.092  0.00  0.00    +0.000 N 
ENDBRANCH   5   6
ENDBRANCH   3   5
BRANCH   2  15
ATOM     15  C   UNL     1       3.342   5.198  17.718  0.00  0.00    +0.000 C 
BRANCH  15  16
ATOM     16  C   UNL     1       2.529   4.514  18.820  0.00  0.00    +0.000 A 
ATOM     17  C   UNL     1       2.881   4.728  20.166  0.00  0.00    +0.000 A 
ATOM     18  C   UNL     1       2.194   4.086  21.196  0.00  0.00    +0.000 A 
ATOM     19  C   UNL     1       1.146   3.219  20.898  0.00  0.00    +0.000 A 
ATOM     20  C   UNL     1       0.784   2.996  19.569  0.00  0.00    +0.000 A 
ATOM     21  C   UNL     1       1.472   3.638  18.535  0.00  0.00    +0.000 A 
ENDBRANCH  15  16
BRANCH  15  22
ATOM     22  O   UNL     1       4.678   4.689  17.727  0.00  0.00    +0.000 OA
BRANCH  22  23
ATOM     23  C   UNL     1       5.382   4.627  16.556  0.00  0.00    +0.000 A 
ATOM     24  C   UNL     1       4.913   4.145  15.332  0.00  0.00    +0.000 A 
ATOM     25  C   UNL     1       5.723   4.167  14.194  0.00  0.00    +0.000 A 
ATOM     26  C   UNL     1       7.022   4.657  14.267  0.00  0.00    +0.000 A 
ATOM     27  C   UNL     1       7.515   5.114  15.486  0.00  0.00    +0.000 A 
ATOM     28  C   UNL     1       6.697   5.098  16.624  0.00  0.00    +0.000 A 
ENDBRANCH  22  23
ENDBRANCH  15  22
ENDBRANCH   2  15
TORSDOF 6
ENDMDL
