MODEL 1
REMARK VINA RESULT:      -9.0      0.000      0.000
REMARK  Name = 
REMARK  5 active torsions:
REMARK  status: ('A' for Active; 'I' for Inactive)
REMARK    1  A    between atoms: C_1  and  C_2
REMARK    2  A    between atoms: C_2  and  N_3
REMARK    3  A    between atoms: C_2  and  C_22
REMARK    4  A    between atoms: C_4  and  C_6
REMARK    5  A    between atoms: C_8  and  C_9
REMARK                            x       y       z     vdW  Elec       q    Type
REMARK                         _______ _______ _______ _____ _____    ______ ____
ROOT
ATOM      1  C   UNL     1       2.948   6.971  18.117  0.00  0.00    +0.000 A 
ATOM      2  C   UNL     1       3.857   6.712  17.091  0.00  0.00    +0.000 A 
ATOM      3  C   UNL     1       4.528   5.503  17.060  0.00  0.00    +0.000 A 
ATOM      4  N   UNL     1       4.332   4.565  18.013  0.00  0.00    +0.000 NA
ATOM      5  C   UNL     1       3.447   4.793  18.999  0.00  0.00    +0.000 A 
ATOM      6  C   UNL     1       3.254   3.793  19.946  0.00  0.00    +0.000 A 
ATOM      7  C   UNL     1       2.360   3.936  21.008  0.00  0.00    +0.000 A 
ATOM      8  C   UNL     1       1.626   5.104  21.131  0.00  0.00    +0.000 A 
ATOM      9  C   UNL     1       1.796   6.119  20.192  0.00  0.00    +0.000 A 
ATOM     10  C   UNL     1       2.705   5.990  19.109  0.00  0.00    +0.000 A 
ENDROOT
BRANCH   3  11
ATOM     11  C   UNL     1       5.490   5.187  16.000  0.00  0.00    +0.000 A 
ATOM     12  C   UNL     1       5.202   4.302  14.950  0.00  0.00    +0.000 A 
ATOM     13  C   UNL     1       6.124   4.081  13.924  0.00  0.00    +0.000 A 
ATOM     14  C   UNL     1       7.338   4.745  13.985  0.00  0.00    +0.000 A 
ATOM     15  N   UNL     1       7.675   5.587  14.983  0.00  0.00    +0.000 NA
ATOM     16  C   UNL     1       6.759   5.777  15.962  0.00  0.00    +0.000 A 
ENDBRANCH   3  11
BRANCH   1  18
ATOM     17  N   UNL     1       1.584   8.667  19.232  0.00  0.00    +0.000 N 
ATOM     18  C   UNL     1       2.209   8.273  18.066  0.00  0.00    +0.000 C 
ATOM     19  O   UNL     1       2.183   8.948  17.046  0.00  0.00    +0.000 OA
ATOM     20  H   UNL     1       1.556   8.062  20.039  0.00  0.00    +0.000 HD
BRANCH  17  22
ATOM     21  C   UNL     1       1.797  11.111  19.003  0.00  0.00    +0.000 C 
ATOM     22  C   UNL     1       0.874   9.934  19.334  0.00  0.00    +0.000 C 
BRANCH  22  23
ATOM     23  C   UNL     1       0.266  10.071  20.719  0.00  0.00    +0.000 A 
ATOM     24  C   UNL     1      -0.550  11.174  21.019  0.00  0.00    +0.000 A 
ATOM     25  C   UNL     1      -1.109  11.321  22.291  0.00  0.00    +0.000 A 
ATOM     26  C   UNL     1      -0.865  10.367  23.277  0.00  0.00    +0.000 A 
ATOM     27  C   UNL     1      -0.066   9.263  22.991  0.00  0.00    +0.000 A 
ATOM     28  C   UNL     1       0.495   9.115  21.721  0.00  0.00    +0.000 A 
ENDBRANCH  22  23
ENDBRANCH  17  22
ENDBRANCH   1  18
TORSDOF 4
ENDMDL
MODEL 2
REMARK VINA RESULT:      -9.0      1.922      8.003
REMARK  Name = 
REMARK  5 active torsions:
REMARK  status: ('A' for Active; 'I' for Inactive)
REMARK    1  A    between atoms: C_1  and  C_2
REMARK    2  A    between atoms: C_2  and  N_3
REMARK    3  A    between atoms: C_2  and  C_22
REMARK    4  A    between atoms: C_4  and  C_6
REMARK    5  A    between atoms: C_8  and  C_9
REMARK                            x       y       z     vdW  Elec       q    Type
REMARK                         _______ _______ _______ _____ _____    ______ ____
ROOT
ATOM      1  C   UNL     1       3.902   5.290  19.050  0.00  0.00    +0.000 A 
ATOM      2  C   UNL     1       3.426   6.547  19.426  0.00  0.00    +0.000 A 
ATOM      3  C   UNL     1       2.141   6.672  19.924  0.00  0.00    +0.000 A 
ATOM      4  N   UNL     1       1.327   5.600  20.043  0.00  0.00    +0.000 NA
ATOM      5  C   UNL     1       1.777   4.380  19.701  0.00  0.00    +0.000 A 
ATOM      6  C   UNL     1       0.917   3.299  19.865  0.00  0.00    +0.000 A 
ATOM      7  C   UNL     1       1.291   1.995  19.536  0.00  0.00    +0.000 A 
ATOM      8  C   UNL     1       2.560   1.753  19.038  0.00  0.00    +0.000 A 
ATOM      9  C   UNL     1       3.442   2.817  18.871  0.00  0.00    +0.000 A 
ATOM     10  C   UNL     1       3.075   4.149  19.196  0.00  0.00    +0.000 A 
ENDROOT
BRANCH   3  11
ATOM     11  C   UNL     1       1.600   7.971  20.333  0.00  0.00    +0.000 A 
ATOM     12  C   UNL     1       1.238   8.262  21.657  0.00  0.00    +0.000 A 
ATOM     13  C   UNL     1       0.790   9.535  22.015  0.00  0.00    +0.000 A 
ATOM     14  C   UNL     1       0.693  10.495  21.021  0.00  0.00    +0.000 A 
ATOM     15  N   UNL     1       1.005  10.262  19.730  0.00  0.00    +0.000 NA
ATOM     16  C   UNL     1       1.435   9.016  19.417  0.00  0.00    +0.000 A 
ENDBRANCH   3  11
BRANCH   1  18
ATOM     17  N   UNL     1       5.525   5.424  17.225  0.00  0.00    +0.000 N 
ATOM     18  C   UNL     1       5.320   5.209  18.574  0.00  0.00    +0.000 C 
ATOM     19  O   UNL     1       6.238   4.981  19.349  0.00  0.00    +0.000 OA
ATOM     20  H   UNL     1       4.748   5.537  16.592  0.00  0.00    +0.000 HD
BRANCH  17  22
ATOM     21  C   UNL     1       7.512   6.803  16.759  0.00  0.00    +0.000 C 
ATOM     22  C   UNL     1       6.857   5.423  16.640  0.00  0.00    +0.000 C 
BRANCH  22  23
ATOM     23  C   UNL     1       6.782   4.961  15.195  0.00  0.00    +0.000 A 
ATOM     24  C   UNL     1       5.754   4.096  14.788  0.00  0.00    +0.000 A 
ATOM     25  C   UNL     1       5.676   3.654  13.466  0.00  0.00    +0.000 A 
ATOM     26  C   UNL     1       6.620   4.074  12.532  0.00  0.00    +0.000 A 
ATOM     27  C   UNL     1       7.641   4.940  12.917  0.00  0.00    +0.000 A 
ATOM     28  C   UNL     1       7.721   5.382  14.239  0.00  0.00    +0.000 A 
ENDBRANCH  22  23
ENDBRANCH  17  22
ENDBRANCH   1  18
TORSDOF 4
ENDMDL
MODEL 3
REMARK VINA RESULT:      -8.8      2.043      7.817
REMARK  Name = 
REMARK  5 active torsions:
REMARK  status: ('A' for Active; 'I' for Inactive)
REMARK    1  A    between atoms: C_1  and  C_2
REMARK    2  A    between atoms: C_2  and  N_3
REMARK    3  A    between atoms: C_2  and  C_22
REMARK    4  A    between atoms: C_4  and  C_6
REMARK    5  A    between atoms: C_8  and  C_9
REMARK                            x       y       z     vdW  Elec       q    Type
REMARK                         _______ _______ _______ _____ _____    ______ ____
ROOT
ATOM      1  C   UNL     1       3.985   5.491  19.287  0.00  0.00    +0.000 A 
ATOM      2  C   UNL     1       3.450   6.779  19.238  0.00  0.00    +0.000 A 
ATOM      3  C   UNL     1       2.196   7.020  19.769  0.00  0.00    +0.000 A 
ATOM      4  N   UNL     1       1.466   6.028  20.326  0.00  0.00    +0.000 NA
ATOM      5  C   UNL     1       1.975   4.785  20.396  0.00  0.00    +0.000 A 
ATOM      6  C   UNL     1       1.204   3.799  21.001  0.00  0.00    +0.000 A 
ATOM      7  C   UNL     1       1.643   2.479  21.118  0.00  0.00    +0.000 A 
ATOM      8  C   UNL     1       2.890   2.127  20.629  0.00  0.00    +0.000 A 
ATOM      9  C   UNL     1       3.684   3.099  20.025  0.00  0.00    +0.000 A 
ATOM     10  C   UNL     1       3.250   4.444  19.893  0.00  0.00    +0.000 A 
ENDROOT
BRANCH   3  11
ATOM     11  C   UNL     1       1.595   8.357  19.743  0.00  0.00    +0.000 A 
ATOM     12  C   UNL     1       1.534   9.141  18.581  0.00  0.00    +0.000 A 
ATOM     13  C   UNL     1       0.893  10.381  18.585  0.00  0.00    +0.000 A 
ATOM     14  C   UNL     1       0.336  10.823  19.774  0.00  0.00    +0.000 A 
ATOM     15  N   UNL     1       0.386  10.120  20.924  0.00  0.00    +0.000 NA
ATOM     16  C   UNL     1       1.018   8.923  20.885  0.00  0.00    +0.000 A 
ENDBRANCH   3  11
BRANCH   1  18
ATOM     17  N   UNL     1       5.552   5.599  17.412  0.00  0.00    +0.000 N 
ATOM     18  C   UNL     1       5.370   5.303  18.749  0.00  0.00    +0.000 C 
ATOM     19  O   UNL     1       6.285   4.926  19.468  0.00  0.00    +0.000 OA
ATOM     20  H   UNL     1       4.771   5.837  16.820  0.00  0.00    +0.000 HD
BRANCH  17  22
ATOM     21  C   UNL     1       7.582   6.857  16.810  0.00  0.00    +0.000 C 
ATOM     22  C   UNL     1       6.857   5.508  16.775  0.00  0.00    +0.000 C 
BRANCH  22  23
ATOM     23  C   UNL     1       6.700   4.993  15.355  0.00  0.00    +0.000 A 
ATOM     24  C   UNL     1       5.605   4.180  15.022  0.00  0.00    +0.000 A 
ATOM     25  C   UNL     1       5.451   3.689  13.723  0.00  0.00    +0.000 A 
ATOM     26  C   UNL     1       6.384   4.009  12.740  0.00  0.00    +0.000 A 
ATOM     27  C   UNL     1       7.471   4.822  13.052  0.00  0.00    +0.000 A 
ATOM     28  C   UNL     1       7.628   5.313  14.350  0.00  0.00    +0.000 A 
ENDBRANCH  22  23
ENDBRANCH  17  22
ENDBRANCH   1  18
TORSDOF 4
ENDMDL
MODEL 4
REMARK VINA RESULT:      -8.7      1.939      7.808
REMARK  Name = 
REMARK  5 active torsions:
REMARK  status: ('A' for Active; 'I' for Inactive)
REMARK    1  A    between atoms: C_1  and  C_2
REMARK    2  A    between atoms: C_2  and  N_3
REMARK    3  A    between atoms: C_2  and  C_22
REMARK    4  A    between atoms: C_4  and  C_6
REMARK    5  A    between atoms: C_8  and  C_9
REMARK                            x       y       z     vdW  Elec       q    Type
REMARK                         _______ _______ _______ _____ _____    ______ ____
ROOT
ATOM      1  C   UNL     1       3.989   5.452  19.288  0.00  0.00    +0.000 A 
ATOM      2  C   UNL     1       3.448   6.738  19.258  0.00  0.00    +0.000 A 
ATOM      3  C   UNL     1       2.199   6.969  19.807  0.00  0.00    +0.000 A 
ATOM      4  N   UNL     1       1.480   5.969  20.364  0.00  0.00    +0.000 NA
ATOM      5  C   UNL     1       1.995   4.728  20.415  0.00  0.00    +0.000 A 
ATOM      6  C   UNL     1       1.235   3.732  21.020  0.00  0.00    +0.000 A 
ATOM      7  C   UNL     1       1.682   2.413  21.120  0.00  0.00    +0.000 A 
ATOM      8  C   UNL     1       2.924   2.072  20.613  0.00  0.00    +0.000 A 
ATOM      9  C   UNL     1       3.707   3.052  20.008  0.00  0.00    +0.000 A 
ATOM     10  C   UNL     1       3.265   4.396  19.894  0.00  0.00    +0.000 A 
ENDROOT
BRANCH   3  11
ATOM     11  C   UNL     1       1.592   8.303  19.800  0.00  0.00    +0.000 A 
ATOM     12  C   UNL     1       0.947   8.852  20.919  0.00  0.00    +0.000 A 
ATOM     13  C   UNL     1       0.442  10.153  20.889  0.00  0.00    +0.000 A 
ATOM     14  C   UNL     1       0.579  10.879  19.717  0.00  0.00    +0.000 A 
ATOM     15  N   UNL     1       1.169  10.393  18.606  0.00  0.00    +0.000 NA
ATOM     16  C   UNL     1       1.645   9.126  18.669  0.00  0.00    +0.000 A 
ENDBRANCH   3  11
BRANCH   1  18
ATOM     17  N   UNL     1       5.540   5.618  17.405  0.00  0.00    +0.000 N 
ATOM     18  C   UNL     1       5.368   5.276  18.732  0.00  0.00    +0.000 C 
ATOM     19  O   UNL     1       6.286   4.868  19.429  0.00  0.00    +0.000 OA
ATOM     20  H   UNL     1       4.755   5.883  16.829  0.00  0.00    +0.000 HD
BRANCH  17  22
ATOM     21  C   UNL     1       7.535   6.907  16.752  0.00  0.00    +0.000 C 
ATOM     22  C   UNL     1       6.839   5.542  16.754  0.00  0.00    +0.000 C 
BRANCH  22  23
ATOM     23  C   UNL     1       6.676   4.995  15.346  0.00  0.00    +0.000 A 
ATOM     24  C   UNL     1       7.621   5.314  14.357  0.00  0.00    +0.000 A 
ATOM     25  C   UNL     1       7.481   4.828  13.055  0.00  0.00    +0.000 A 
ATOM     26  C   UNL     1       6.400   4.013  12.725  0.00  0.00    +0.000 A 
ATOM     27  C   UNL     1       5.460   3.680  13.698  0.00  0.00    +0.000 A 
ATOM     28  C   UNL     1       5.597   4.166  15.000  0.00  0.00    +0.000 A 
ENDBRANCH  22  23
ENDBRANCH  17  22
ENDBRANCH   1  18
TORSDOF 4
ENDMDL
MODEL 5
REMARK VINA RESULT:      -8.6      2.332      8.343
REMARK  Name = 
REMARK  5 active torsions:
REMARK  status: ('A' for Active; 'I' for Inactive)
REMARK    1  A    between atoms: C_1  and  C_2
REMARK    2  A    between atoms: C_2  and  N_3
REMARK    3  A    between atoms: C_2  and  C_22
REMARK    4  A    between atoms: C_4  and  C_6
REMARK    5  A    between atoms: C_8  and  C_9
REMARK                            x       y       z     vdW  Elec       q    Type
REMARK                         _______ _______ _______ _____ _____    ______ ____
ROOT
ATOM      1  C   UNL     1       4.177   4.963  17.401  0.00  0.00    +0.000 A 
ATOM      2  C   UNL     1       3.782   6.284  17.619  0.00  0.00    +0.000 A 
ATOM      3  C   UNL     1       2.668   6.547  18.395  0.00  0.00    +0.000 A 
ATOM      4  N   UNL     1       1.940   5.547  18.942  0.00  0.00    +0.000 NA
ATOM      5  C   UNL     1       2.318   4.270  18.755  0.00  0.00    +0.000 A 
ATOM      6  C   UNL     1       1.558   3.273  19.356  0.00  0.00    +0.000 A 
ATOM      7  C   UNL     1       1.867   1.918  19.219  0.00  0.00    +0.000 A 
ATOM      8  C   UNL     1       2.969   1.541  18.471  0.00  0.00    +0.000 A 
ATOM      9  C   UNL     1       3.750   2.522  17.864  0.00  0.00    +0.000 A 
ATOM     10  C   UNL     1       3.446   3.903  17.990  0.00  0.00    +0.000 A 
ENDROOT
BRANCH   3  11
ATOM     11  C   UNL     1       2.218   7.918  18.653  0.00  0.00    +0.000 A 
ATOM     12  C   UNL     1       2.338   8.949  17.708  0.00  0.00    +0.000 A 
ATOM     13  C   UNL     1       1.835  10.224  17.969  0.00  0.00    +0.000 A 
ATOM     14  C   UNL     1       1.231  10.448  19.196  0.00  0.00    +0.000 A 
ATOM     15  N   UNL     1       1.110   9.500  20.148  0.00  0.00    +0.000 NA
ATOM     16  C   UNL     1       1.611   8.275  19.862  0.00  0.00    +0.000 A 
ENDBRANCH   3  11
BRANCH   1  18
ATOM     17  N   UNL     1       5.247   4.310  15.302  0.00  0.00    +0.000 N 
ATOM     18  C   UNL     1       5.424   4.744  16.601  0.00  0.00    +0.000 C 
ATOM     19  O   UNL     1       6.529   4.956  17.078  0.00  0.00    +0.000 OA
ATOM     20  H   UNL     1       4.332   4.071  14.952  0.00  0.00    +0.000 HD
BRANCH  17  22
ATOM     21  C   UNL     1       7.124   5.417  14.151  0.00  0.00    +0.000 C 
ATOM     22  C   UNL     1       6.372   4.106  14.401  0.00  0.00    +0.000 C 
BRANCH  22  23
ATOM     23  C   UNL     1       5.883   3.485  13.103  0.00  0.00    +0.000 A 
ATOM     24  C   UNL     1       4.612   3.816  12.604  0.00  0.00    +0.000 A 
ATOM     25  C   UNL     1       4.143   3.247  11.418  0.00  0.00    +0.000 A 
ATOM     26  C   UNL     1       4.937   2.346  10.713  0.00  0.00    +0.000 A 
ATOM     27  C   UNL     1       6.203   2.015  11.190  0.00  0.00    +0.000 A 
ATOM     28  C   UNL     1       6.674   2.582  12.376  0.00  0.00    +0.000 A 
ENDBRANCH  22  23
ENDBRANCH  17  22
ENDBRANCH   1  18
TORSDOF 4
ENDMDL
MODEL 6
REMARK VINA RESULT:      -8.6      1.609      7.820
REMARK  Name = 
REMARK  5 active torsions:
REMARK  status: ('A' for Active; 'I' for Inactive)
REMARK    1  A    between atoms: C_1  and  C_2
REMARK    2  A    between atoms: C_2  and  N_3
REMARK    3  A    between atoms: C_2  and  C_22
REMARK    4  A    between atoms: C_4  and  C_6
REMARK    5  A    between atoms: C_8  and  C_9
REMARK                            x       y       z     vdW  Elec       q    Type
REMARK                         _______ _______ _______ _____ _____    ______ ____
ROOT
ATOM      1  C   UNL     1       3.318   6.224  18.960  0.00  0.00    +0.000 A 
ATOM      2  C   UNL     1       2.763   7.403  19.460  0.00  0.00    +0.000 A 
ATOM      3  C   UNL     1       1.699   7.338  20.342  0.00  0.00    +0.000 A 
ATOM      4  N   UNL     1       1.173   6.153  20.723  0.00  0.00    +0.000 NA
ATOM      5  C   UNL     1       1.708   5.008  20.263  0.00  0.00    +0.000 A 
ATOM      6  C   UNL     1       1.155   3.810  20.700  0.00  0.00    +0.000 A 
ATOM      7  C   UNL     1       1.638   2.570  20.278  0.00  0.00    +0.000 A 
ATOM      8  C   UNL     1       2.709   2.516  19.402  0.00  0.00    +0.000 A 
ATOM      9  C   UNL     1       3.284   3.703  18.954  0.00  0.00    +0.000 A 
ATOM     10  C   UNL     1       2.801   4.971  19.370  0.00  0.00    +0.000 A 
ENDROOT
BRANCH   3  11
ATOM     11  C   UNL     1       1.086   8.550  20.894  0.00  0.00    +0.000 A 
ATOM     12  C   UNL     1       0.304   9.426  20.125  0.00  0.00    +0.000 A 
ATOM     13  C   UNL     1      -0.317  10.532  20.708  0.00  0.00    +0.000 A 
ATOM     14  C   UNL     1      -0.123  10.751  22.062  0.00  0.00    +0.000 A 
ATOM     15  N   UNL     1       0.637   9.954  22.842  0.00  0.00    +0.000 NA
ATOM     16  C   UNL     1       1.226   8.891  22.244  0.00  0.00    +0.000 A 
ENDBRANCH   3  11
BRANCH   1  18
ATOM     17  N   UNL     1       5.678   5.777  18.499  0.00  0.00    +0.000 N 
ATOM     18  C   UNL     1       4.505   6.355  18.055  0.00  0.00    +0.000 C 
ATOM     19  O   UNL     1       4.421   6.930  16.979  0.00  0.00    +0.000 OA
ATOM     20  H   UNL     1       5.744   5.373  19.421  0.00  0.00    +0.000 HD
BRANCH  17  22
ATOM     21  C   UNL     1       7.407   7.217  17.496  0.00  0.00    +0.000 C 
ATOM     22  C   UNL     1       6.892   5.788  17.696  0.00  0.00    +0.000 C 
BRANCH  22  23
ATOM     23  C   UNL     1       6.635   5.094  16.369  0.00  0.00    +0.000 A 
ATOM     24  C   UNL     1       5.817   3.954  16.322  0.00  0.00    +0.000 A 
ATOM     25  C   UNL     1       5.579   3.298  15.112  0.00  0.00    +0.000 A 
ATOM     26  C   UNL     1       6.150   3.774  13.934  0.00  0.00    +0.000 A 
ATOM     27  C   UNL     1       6.956   4.909  13.963  0.00  0.00    +0.000 A 
ATOM     28  C   UNL     1       7.196   5.566  15.172  0.00  0.00    +0.000 A 
ENDBRANCH  22  23
ENDBRANCH  17  22
ENDBRANCH   1  18
TORSDOF 4
ENDMDL
MODEL 7
REMARK VINA RESULT:      -8.5      2.008      8.099
REMARK  Name = 
REMARK  5 active torsions:
REMARK  status: ('A' for Active; 'I' for Inactive)
REMARK    1  A    between atoms: C_1  and  C_2
REMARK    2  A    between atoms: C_2  and  N_3
REMARK    3  A    between atoms: C_2  and  C_22
REMARK    4  A    between atoms: C_4  and  C_6
REMARK    5  A    between atoms: C_8  and  C_9
REMARK                            x       y       z     vdW  Elec       q    Type
REMARK                         _______ _______ _______ _____ _____    ______ ____
ROOT
ATOM      1  C   UNL     1       4.045   5.219  18.558  0.00  0.00    +0.000 A 
ATOM      2  C   UNL     1       3.576   6.470  18.961  0.00  0.00    +0.000 A 
ATOM      3  C   UNL     1       2.287   6.593  19.449  0.00  0.00    +0.000 A 
ATOM      4  N   UNL     1       1.462   5.526  19.533  0.00  0.00    +0.000 NA
ATOM      5  C   UNL     1       1.905   4.311  19.164  0.00  0.00    +0.000 A 
ATOM      6  C   UNL     1       1.035   3.234  19.291  0.00  0.00    +0.000 A 
ATOM      7  C   UNL     1       1.401   1.935  18.933  0.00  0.00    +0.000 A 
ATOM      8  C   UNL     1       2.673   1.695  18.442  0.00  0.00    +0.000 A 
ATOM      9  C   UNL     1       3.566   2.755  18.311  0.00  0.00    +0.000 A 
ATOM     10  C   UNL     1       3.207   4.082  18.666  0.00  0.00    +0.000 A 
ENDROOT
BRANCH   3  11
ATOM     11  C   UNL     1       1.753   7.886  19.885  0.00  0.00    +0.000 A 
ATOM     12  C   UNL     1       1.703   9.011  19.049  0.00  0.00    +0.000 A 
ATOM     13  C   UNL     1       1.124  10.205  19.484  0.00  0.00    +0.000 A 
ATOM     14  C   UNL     1       0.617  10.251  20.773  0.00  0.00    +0.000 A 
ATOM     15  N   UNL     1       0.660   9.207  21.626  0.00  0.00    +0.000 NA
ATOM     16  C   UNL     1       1.231   8.066  21.172  0.00  0.00    +0.000 A 
ENDBRANCH   3  11
BRANCH   1  18
ATOM     17  N   UNL     1       5.680   5.330  16.743  0.00  0.00    +0.000 N 
ATOM     18  C   UNL     1       5.467   5.137  18.093  0.00  0.00    +0.000 C 
ATOM     19  O   UNL     1       6.380   4.927  18.879  0.00  0.00    +0.000 OA
ATOM     20  H   UNL     1       4.908   5.428  16.102  0.00  0.00    +0.000 HD
BRANCH  17  22
ATOM     21  C   UNL     1       7.686   6.697  16.320  0.00  0.00    +0.000 C 
ATOM     22  C   UNL     1       7.017   5.327  16.168  0.00  0.00    +0.000 C 
BRANCH  22  23
ATOM     23  C   UNL     1       6.949   4.896  14.713  0.00  0.00    +0.000 A 
ATOM     24  C   UNL     1       7.806   5.482  13.768  0.00  0.00    +0.000 A 
ATOM     25  C   UNL     1       7.749   5.105  12.424  0.00  0.00    +0.000 A 
ATOM     26  C   UNL     1       6.841   4.134  12.008  0.00  0.00    +0.000 A 
ATOM     27  C   UNL     1       5.991   3.536  12.935  0.00  0.00    +0.000 A 
ATOM     28  C   UNL     1       6.045   3.912  14.279  0.00  0.00    +0.000 A 
ENDBRANCH  22  23
ENDBRANCH  17  22
ENDBRANCH   1  18
TORSDOF 4
ENDMDL
MODEL 8
REMARK VINA RESULT:      -8.5      1.365      2.138
REMARK  Name = 
REMARK  5 active torsions:
REMARK  status: ('A' for Active; 'I' for Inactive)
REMARK    1  A    between atoms: C_1  and  C_2
REMARK    2  A    between atoms: C_2  and  N_3
REMARK    3  A    between atoms: C_2  and  C_22
REMARK    4  A    between atoms: C_4  and  C_6
REMARK    5  A    between atoms: C_8  and  C_9
REMARK                            x       y       z     vdW  Elec       q    Type
REMARK                         _______ _______ _______ _____ _____    ______ ____
ROOT
ATOM      1  C   UNL     1       2.987   6.853  18.301  0.00  0.00    +0.000 A 
ATOM      2  C   UNL     1       3.947   6.647  17.310  0.00  0.00    +0.000 A 
ATOM      3  C   UNL     1       4.367   5.361  17.019  0.00  0.00    +0.000 A 
ATOM      4  N   UNL     1       3.874   4.294  17.686  0.00  0.00    +0.000 NA
ATOM      5  C   UNL     1       2.935   4.474  18.632  0.00  0.00    +0.000 A 
ATOM      6  C   UNL     1       2.434   3.348  19.275  0.00  0.00    +0.000 A 
ATOM      7  C   UNL     1       1.461   3.433  20.272  0.00  0.00    +0.000 A 
ATOM      8  C   UNL     1       0.961   4.671  20.636  0.00  0.00    +0.000 A 
ATOM      9  C   UNL     1       1.442   5.814  20.002  0.00  0.00    +0.000 A 
ATOM     10  C   UNL     1       2.435   5.745  18.990  0.00  0.00    +0.000 A 
ENDROOT
BRANCH   3  11
ATOM     11  C   UNL     1       5.372   5.097  15.985  0.00  0.00    +0.000 A 
ATOM     12  C   UNL     1       5.120   4.286  14.869  0.00  0.00    +0.000 A 
ATOM     13  C   UNL     1       6.084   4.115  13.873  0.00  0.00    +0.000 A 
ATOM     14  C   UNL     1       7.303   4.755  14.030  0.00  0.00    +0.000 A 
ATOM     15  N   UNL     1       7.605   5.527  15.094  0.00  0.00    +0.000 NA
ATOM     16  C   UNL     1       6.648   5.669  16.042  0.00  0.00    +0.000 A 
ENDBRANCH   3  11
BRANCH   1  18
ATOM     17  N   UNL     1       1.563   8.439  19.500  0.00  0.00    +0.000 N 
ATOM     18  C   UNL     1       2.530   8.261  18.530  0.00  0.00    +0.000 C 
ATOM     19  O   UNL     1       3.007   9.193  17.900  0.00  0.00    +0.000 OA
ATOM     20  H   UNL     1       1.130   7.649  19.956  0.00  0.00    +0.000 HD
BRANCH  17  22
ATOM     21  C   UNL     1       0.808   9.861  21.365  0.00  0.00    +0.000 C 
ATOM     22  C   UNL     1       1.066   9.759  19.858  0.00  0.00    +0.000 C 
BRANCH  22  23
ATOM     23  C   UNL     1      -0.183  10.073  19.053  0.00  0.00    +0.000 A 
ATOM     24  C   UNL     1      -1.129  10.982  19.554  0.00  0.00    +0.000 A 
ATOM     25  C   UNL     1      -2.288  11.275  18.832  0.00  0.00    +0.000 A 
ATOM     26  C   UNL     1      -2.515  10.668  17.598  0.00  0.00    +0.000 A 
ATOM     27  C   UNL     1      -1.582   9.772  17.084  0.00  0.00    +0.000 A 
ATOM     28  C   UNL     1      -0.422   9.477  17.805  0.00  0.00    +0.000 A 
ENDBRANCH  22  23
ENDBRANCH  17  22
ENDBRANCH   1  18
TORSDOF 4
ENDMDL
MODEL 9
REMARK VINA RESULT:      -8.4      1.457      2.287
REMARK  Name = 
REMARK  5 active torsions:
REMARK  status: ('A' for Active; 'I' for Inactive)
REMARK    1  A    between atoms: C_1  and  C_2
REMARK    2  A    between atoms: C_2  and  N_3
REMARK    3  A    between atoms: C_2  and  C_22
REMARK    4  A    between atoms: C_4  and  C_6
REMARK    5  A    between atoms: C_8  and  C_9
REMARK                            x       y       z     vdW  Elec       q    Type
REMARK                         _______ _______ _______ _____ _____    ______ ____
ROOT
ATOM      1  C   UNL     1       2.983   7.235  18.214  0.00  0.00    +0.000 A 
ATOM      2  C   UNL     1       3.916   6.934  17.221  0.00  0.00    +0.000 A 
ATOM      3  C   UNL     1       4.398   5.643  17.102  0.00  0.00    +0.000 A 
ATOM      4  N   UNL     1       3.994   4.662  17.940  0.00  0.00    +0.000 NA
ATOM      5  C   UNL     1       3.083   4.932  18.891  0.00  0.00    +0.000 A 
ATOM      6  C   UNL     1       2.673   3.889  19.715  0.00  0.00    +0.000 A 
ATOM      7  C   UNL     1       1.735   4.071  20.733  0.00  0.00    +0.000 A 
ATOM      8  C   UNL     1       1.178   5.322  20.935  0.00  0.00    +0.000 A 
ATOM      9  C   UNL     1       1.567   6.381  20.118  0.00  0.00    +0.000 A 
ATOM     10  C   UNL     1       2.524   6.214  19.083  0.00  0.00    +0.000 A 
ENDROOT
BRANCH   3  11
ATOM     11  C   UNL     1       5.376   5.281  16.073  0.00  0.00    +0.000 A 
ATOM     12  C   UNL     1       5.076   4.421  15.005  0.00  0.00    +0.000 A 
ATOM     13  C   UNL     1       6.018   4.156  14.010  0.00  0.00    +0.000 A 
ATOM     14  C   UNL     1       7.264   4.751  14.117  0.00  0.00    +0.000 A 
ATOM     15  N   UNL     1       7.614   5.566  15.134  0.00  0.00    +0.000 NA
ATOM     16  C   UNL     1       6.676   5.800  16.083  0.00  0.00    +0.000 A 
ENDBRANCH   3  11
BRANCH   1  18
ATOM     17  N   UNL     1       1.519   8.906  19.237  0.00  0.00    +0.000 N 
ATOM     18  C   UNL     1       2.454   8.635  18.257  0.00  0.00    +0.000 C 
ATOM     19  O   UNL     1       2.849   9.486  17.472  0.00  0.00    +0.000 OA
ATOM     20  H   UNL     1       1.154   8.173  19.825  0.00  0.00    +0.000 HD
BRANCH  17  22
ATOM     21  C   UNL     1       0.866  10.594  20.907  0.00  0.00    +0.000 C 
ATOM     22  C   UNL     1       0.962  10.238  19.420  0.00  0.00    +0.000 C 
BRANCH  22  23
ATOM     23  C   UNL     1      -0.391  10.326  18.734  0.00  0.00    +0.000 A 
ATOM     24  C   UNL     1      -0.635   9.582  17.569  0.00  0.00    +0.000 A 
ATOM     25  C   UNL     1      -1.870   9.660  16.920  0.00  0.00    +0.000 A 
ATOM     26  C   UNL     1      -2.877  10.476  17.429  0.00  0.00    +0.000 A 
ATOM     27  C   UNL     1      -2.653  11.213  18.590  0.00  0.00    +0.000 A 
ATOM     28  C   UNL     1      -1.419  11.138  19.240  0.00  0.00    +0.000 A 
ENDBRANCH  22  23
ENDBRANCH  17  22
ENDBRANCH   1  18
TORSDOF 4
ENDMDL
