MODEL 1
REMARK VINA RESULT:      -8.7      0.000      0.000
REMARK  Name = 
REMARK  3 active torsions:
REMARK  status: ('A' for Active; 'I' for Inactive)
REMARK    1  A    between atoms: C_2  and  C_16
REMARK    2  A    between atoms: N_3  and  C_4
REMARK    3  A    between atoms: C_8  and  C_9
REMARK                            x       y       z     vdW  Elec       q    Type
REMARK                         _______ _______ _______ _____ _____    ______ ____
ROOT
ATOM      1  O   UNL     1       3.523   5.829  20.007  0.00  0.00    +0.000 OA
ATOM      2  C   UNL     1       2.649   6.076  19.182  0.00  0.00    +0.000 C 
ATOM      3  N   UNL     1       2.146   5.208  18.235  0.00  0.00    +0.000 N 
ATOM      4  H   UNL     1       1.530   5.569  17.517  0.00  0.00    +0.000 HD
ENDROOT
BRANCH   2   5
ATOM      5  C   UNL     1       2.094   7.451  19.134  0.00  0.00    +0.000 A 
ATOM      6  C   UNL     1       2.254   8.181  17.939  0.00  0.00    +0.000 A 
ATOM      7  C   UNL     1       1.841   9.511  17.853  0.00  0.00    +0.000 A 
ATOM      8  C   UNL     1       1.272  10.092  18.974  0.00  0.00    +0.000 A 
ATOM      9  C   UNL     1       1.103   9.368  20.161  0.00  0.00    +0.000 A 
ATOM     10  C   UNL     1       1.505   8.046  20.261  0.00  0.00    +0.000 A 
ATOM     11  C   UNL     1       0.558  10.252  21.242  0.00  0.00    +0.000 C 
ATOM     12  C   UNL     1      -0.005  11.421  20.418  0.00  0.00    +0.000 C 
ATOM     13  C   UNL     1       0.855  11.519  19.152  0.00  0.00    +0.000 C 
ENDBRANCH   2   5
BRANCH   3  14
ATOM     14  C   UNL     1       2.487   3.867  18.125  0.00  0.00    +0.000 A 
ATOM     15  C   UNL     1       1.737   2.792  18.540  0.00  0.00    +0.000 A 
ATOM     16  N   UNL     1       2.469   1.686  18.257  0.00  0.00    +0.000 N 
ATOM     17  N   UNL     1       3.649   1.950  17.678  0.00  0.00    +0.000 NA
ATOM     18  C   UNL     1       3.683   3.293  17.575  0.00  0.00    +0.000 A 
ATOM     19  H   UNL     1       2.226   0.717  18.439  0.00  0.00    +0.000 HD
BRANCH  18  20
ATOM     20  C   UNL     1       4.870   3.960  17.031  0.00  0.00    +0.000 A 
ATOM     21  C   UNL     1       4.980   4.160  15.643  0.00  0.00    +0.000 A 
ATOM     22  C   UNL     1       6.112   4.768  15.092  0.00  0.00    +0.000 A 
ATOM     23  C   UNL     1       7.153   5.189  15.918  0.00  0.00    +0.000 A 
ATOM     24  C   UNL     1       7.056   5.004  17.295  0.00  0.00    +0.000 A 
ATOM     25  C   UNL     1       5.923   4.400  17.839  0.00  0.00    +0.000 A 
ATOM     26  F   UNL     1       5.886   4.246  19.173  0.00  0.00    +0.000 F 
ENDBRANCH  18  20
ENDBRANCH   3  14
TORSDOF 3
ENDMDL
MODEL 2
REMARK VINA RESULT:      -8.6      1.917      2.242
REMARK  Name = 
REMARK  3 active torsions:
REMARK  status: ('A' for Active; 'I' for Inactive)
REMARK    1  A    between atoms: C_2  and  C_16
REMARK    2  A    between atoms: N_3  and  C_4
REMARK    3  A    between atoms: C_8  and  C_9
REMARK                            x       y       z     vdW  Elec       q    Type
REMARK                         _______ _______ _______ _____ _____    ______ ____
ROOT
ATOM      1  O   UNL     1       2.268   6.214  17.940  0.00  0.00    +0.000 OA
ATOM      2  C   UNL     1       2.448   6.512  19.116  0.00  0.00    +0.000 C 
ATOM      3  N   UNL     1       3.184   5.799  20.040  0.00  0.00    +0.000 N 
ATOM      4  H   UNL     1       3.141   6.069  21.015  0.00  0.00    +0.000 HD
ENDROOT
BRANCH   2   5
ATOM      5  C   UNL     1       1.777   7.724  19.647  0.00  0.00    +0.000 A 
ATOM      6  C   UNL     1       1.671   8.841  18.793  0.00  0.00    +0.000 A 
ATOM      7  C   UNL     1       1.137  10.045  19.254  0.00  0.00    +0.000 A 
ATOM      8  C   UNL     1       0.717  10.111  20.572  0.00  0.00    +0.000 A 
ATOM      9  C   UNL     1       0.812   9.001  21.422  0.00  0.00    +0.000 A 
ATOM     10  C   UNL     1       1.337   7.798  20.978  0.00  0.00    +0.000 A 
ATOM     11  C   UNL     1       0.383   9.365  22.811  0.00  0.00    +0.000 C 
ATOM     12  C   UNL     1      -0.408  10.657  22.552  0.00  0.00    +0.000 C 
ATOM     13  C   UNL     1       0.215  11.311  21.312  0.00  0.00    +0.000 C 
ENDBRANCH   2   5
BRANCH   3  14
ATOM     14  C   UNL     1       3.930   4.664  19.756  0.00  0.00    +0.000 A 
ATOM     15  C   UNL     1       3.601   3.366  20.068  0.00  0.00    +0.000 A 
ATOM     16  N   UNL     1       4.626   2.596  19.624  0.00  0.00    +0.000 N 
ATOM     17  N   UNL     1       5.609   3.290  19.034  0.00  0.00    +0.000 NA
ATOM     18  C   UNL     1       5.200   4.573  19.092  0.00  0.00    +0.000 A 
ATOM     19  H   UNL     1       4.723   1.588  19.698  0.00  0.00    +0.000 HD
BRANCH  18  20
ATOM     20  C   UNL     1       6.063   5.644  18.584  0.00  0.00    +0.000 A 
ATOM     21  C   UNL     1       5.664   6.381  17.455  0.00  0.00    +0.000 A 
ATOM     22  C   UNL     1       6.477   7.390  16.930  0.00  0.00    +0.000 A 
ATOM     23  C   UNL     1       7.703   7.682  17.527  0.00  0.00    +0.000 A 
ATOM     24  C   UNL     1       8.109   6.966  18.650  0.00  0.00    +0.000 A 
ATOM     25  C   UNL     1       7.291   5.963  19.171  0.00  0.00    +0.000 A 
ATOM     26  F   UNL     1       7.736   5.304  20.253  0.00  0.00    +0.000 F 
ENDBRANCH  18  20
ENDBRANCH   3  14
TORSDOF 3
ENDMDL
MODEL 3
REMARK VINA RESULT:      -8.5      1.898      2.376
REMARK  Name = 
REMARK  3 active torsions:
REMARK  status: ('A' for Active; 'I' for Inactive)
REMARK    1  A    between atoms: C_2  and  C_16
REMARK    2  A    between atoms: N_3  and  C_4
REMARK    3  A    between atoms: C_8  and  C_9
REMARK                            x       y       z     vdW  Elec       q    Type
REMARK                         _______ _______ _______ _____ _____    ______ ____
ROOT
ATOM      1  O   UNL     1       2.079   5.994  18.014  0.00  0.00    +0.000 OA
ATOM      2  C   UNL     1       2.332   6.344  19.162  0.00  0.00    +0.000 C 
ATOM      3  N   UNL     1       3.101   5.659  20.079  0.00  0.00    +0.000 N 
ATOM      4  H   UNL     1       3.119   5.978  21.040  0.00  0.00    +0.000 HD
ENDROOT
BRANCH   2   5
ATOM      5  C   UNL     1       1.720   7.599  19.666  0.00  0.00    +0.000 A 
ATOM      6  C   UNL     1       1.691   8.709  18.797  0.00  0.00    +0.000 A 
ATOM      7  C   UNL     1       1.218   9.947  19.234  0.00  0.00    +0.000 A 
ATOM      8  C   UNL     1       0.780  10.053  20.544  0.00  0.00    +0.000 A 
ATOM      9  C   UNL     1       0.798   8.951  21.408  0.00  0.00    +0.000 A 
ATOM     10  C   UNL     1       1.263   7.714  20.988  0.00  0.00    +0.000 A 
ATOM     11  C   UNL     1       0.367   9.356  22.785  0.00  0.00    +0.000 C 
ATOM     12  C   UNL     1      -0.347  10.686  22.496  0.00  0.00    +0.000 C 
ATOM     13  C   UNL     1       0.333  11.289  21.260  0.00  0.00    +0.000 C 
ENDBRANCH   2   5
BRANCH   3  14
ATOM     14  C   UNL     1       3.802   4.492  19.813  0.00  0.00    +0.000 A 
ATOM     15  C   UNL     1       3.428   3.213  20.152  0.00  0.00    +0.000 A 
ATOM     16  N   UNL     1       4.420   2.397  19.717  0.00  0.00    +0.000 N 
ATOM     17  N   UNL     1       5.425   3.043  19.108  0.00  0.00    +0.000 NA
ATOM     18  C   UNL     1       5.064   4.341  19.144  0.00  0.00    +0.000 A 
ATOM     19  H   UNL     1       4.481   1.388  19.810  0.00  0.00    +0.000 HD
BRANCH  18  20
ATOM     20  C   UNL     1       5.963   5.370  18.611  0.00  0.00    +0.000 A 
ATOM     21  C   UNL     1       7.155   5.673  19.293  0.00  0.00    +0.000 A 
ATOM     22  C   UNL     1       8.018   6.668  18.825  0.00  0.00    +0.000 A 
ATOM     23  C   UNL     1       7.708   7.375  17.665  0.00  0.00    +0.000 A 
ATOM     24  C   UNL     1       6.535   7.082  16.974  0.00  0.00    +0.000 A 
ATOM     25  C   UNL     1       5.679   6.086  17.444  0.00  0.00    +0.000 A 
ATOM     26  F   UNL     1       4.562   5.849  16.737  0.00  0.00    +0.000 F 
ENDBRANCH  18  20
ENDBRANCH   3  14
TORSDOF 3
ENDMDL
MODEL 4
REMARK VINA RESULT:      -8.5      2.553      4.237
REMARK  Name = 
REMARK  3 active torsions:
REMARK  status: ('A' for Active; 'I' for Inactive)
REMARK    1  A    between atoms: C_2  and  C_16
REMARK    2  A    between atoms: N_3  and  C_4
REMARK    3  A    between atoms: C_8  and  C_9
REMARK                            x       y       z     vdW  Elec       q    Type
REMARK                         _______ _______ _______ _____ _____    ______ ____
ROOT
ATOM      1  O   UNL     1       1.864   9.041  17.216  0.00  0.00    +0.000 OA
ATOM      2  C   UNL     1       1.893   8.720  18.399  0.00  0.00    +0.000 C 
ATOM      3  N   UNL     1       2.535   7.624  18.937  0.00  0.00    +0.000 N 
ATOM      4  H   UNL     1       2.367   7.384  19.906  0.00  0.00    +0.000 HD
ENDROOT
BRANCH   2   5
ATOM      5  C   UNL     1       1.125   9.539  19.370  0.00  0.00    +0.000 A 
ATOM      6  C   UNL     1       0.886  10.889  19.043  0.00  0.00    +0.000 A 
ATOM      7  C   UNL     1       0.254  11.743  19.948  0.00  0.00    +0.000 A 
ATOM      8  C   UNL     1      -0.128  11.226  21.175  0.00  0.00    +0.000 A 
ATOM      9  C   UNL     1       0.100   9.883  21.502  0.00  0.00    +0.000 A 
ATOM     10  C   UNL     1       0.724   9.022  20.611  0.00  0.00    +0.000 A 
ATOM     11  C   UNL     1      -0.317   9.607  22.914  0.00  0.00    +0.000 C 
ATOM     12  C   UNL     1      -1.236  10.807  23.194  0.00  0.00    +0.000 C 
ATOM     13  C   UNL     1      -0.718  11.966  22.334  0.00  0.00    +0.000 C 
ENDBRANCH   2   5
BRANCH   3  14
ATOM     14  C   UNL     1       3.344   6.749  18.225  0.00  0.00    +0.000 A 
ATOM     15  C   UNL     1       4.243   7.079  17.239  0.00  0.00    +0.000 A 
ATOM     16  N   UNL     1       4.785   5.911  16.812  0.00  0.00    +0.000 N 
ATOM     17  N   UNL     1       4.313   4.830  17.448  0.00  0.00    +0.000 NA
ATOM     18  C   UNL     1       3.426   5.320  18.336  0.00  0.00    +0.000 A 
ATOM     19  H   UNL     1       5.478   5.778  16.082  0.00  0.00    +0.000 HD
BRANCH  18  20
ATOM     20  C   UNL     1       2.655   4.407  19.186  0.00  0.00    +0.000 A 
ATOM     21  C   UNL     1       3.129   4.086  20.471  0.00  0.00    +0.000 A 
ATOM     22  C   UNL     1       2.431   3.198  21.294  0.00  0.00    +0.000 A 
ATOM     23  C   UNL     1       1.245   2.616  20.849  0.00  0.00    +0.000 A 
ATOM     24  C   UNL     1       0.759   2.928  19.583  0.00  0.00    +0.000 A 
ATOM     25  C   UNL     1       1.458   3.818  18.767  0.00  0.00    +0.000 A 
ATOM     26  F   UNL     1       0.942   4.079  17.555  0.00  0.00    +0.000 F 
ENDBRANCH  18  20
ENDBRANCH   3  14
TORSDOF 3
ENDMDL
MODEL 5
REMARK VINA RESULT:      -8.4      2.397      4.035
REMARK  Name = 
REMARK  3 active torsions:
REMARK  status: ('A' for Active; 'I' for Inactive)
REMARK    1  A    between atoms: C_2  and  C_16
REMARK    2  A    between atoms: N_3  and  C_4
REMARK    3  A    between atoms: C_8  and  C_9
REMARK                            x       y       z     vdW  Elec       q    Type
REMARK                         _______ _______ _______ _____ _____    ______ ____
ROOT
ATOM      1  O   UNL     1       1.984   9.109  17.184  0.00  0.00    +0.000 OA
ATOM      2  C   UNL     1       1.929   8.703  18.339  0.00  0.00    +0.000 C 
ATOM      3  N   UNL     1       2.504   7.550  18.832  0.00  0.00    +0.000 N 
ATOM      4  H   UNL     1       2.269   7.246  19.769  0.00  0.00    +0.000 HD
ENDROOT
BRANCH   2   5
ATOM      5  C   UNL     1       1.127   9.475  19.320  0.00  0.00    +0.000 A 
ATOM      6  C   UNL     1       0.709  10.770  18.951  0.00  0.00    +0.000 A 
ATOM      7  C   UNL     1       0.033  11.588  19.856  0.00  0.00    +0.000 A 
ATOM      8  C   UNL     1      -0.213  11.093  21.126  0.00  0.00    +0.000 A 
ATOM      9  C   UNL     1       0.193   9.804  21.496  0.00  0.00    +0.000 A 
ATOM     10  C   UNL     1       0.862   8.978  20.606  0.00  0.00    +0.000 A 
ATOM     11  C   UNL     1      -0.106   9.554  22.942  0.00  0.00    +0.000 C 
ATOM     12  C   UNL     1      -1.145  10.650  23.228  0.00  0.00    +0.000 C 
ATOM     13  C   UNL     1      -0.820  11.817  22.287  0.00  0.00    +0.000 C 
ENDBRANCH   2   5
BRANCH   3  14
ATOM     14  C   UNL     1       3.330   6.702  18.107  0.00  0.00    +0.000 A 
ATOM     15  C   UNL     1       4.332   7.072  17.242  0.00  0.00    +0.000 A 
ATOM     16  N   UNL     1       4.852   5.921  16.746  0.00  0.00    +0.000 N 
ATOM     17  N   UNL     1       4.269   4.813  17.225  0.00  0.00    +0.000 NA
ATOM     18  C   UNL     1       3.329   5.266  18.078  0.00  0.00    +0.000 A 
ATOM     19  H   UNL     1       5.602   5.819  16.070  0.00  0.00    +0.000 HD
BRANCH  18  20
ATOM     20  C   UNL     1       2.438   4.322  18.761  0.00  0.00    +0.000 A 
ATOM     21  C   UNL     1       1.736   3.363  18.010  0.00  0.00    +0.000 A 
ATOM     22  C   UNL     1       0.858   2.467  18.628  0.00  0.00    +0.000 A 
ATOM     23  C   UNL     1       0.670   2.513  20.009  0.00  0.00    +0.000 A 
ATOM     24  C   UNL     1       1.363   3.452  20.767  0.00  0.00    +0.000 A 
ATOM     25  C   UNL     1       2.240   4.340  20.145  0.00  0.00    +0.000 A 
ATOM     26  F   UNL     1       2.880   5.225  20.927  0.00  0.00    +0.000 F 
ENDBRANCH  18  20
ENDBRANCH   3  14
TORSDOF 3
ENDMDL
MODEL 6
REMARK VINA RESULT:      -8.4      0.716      1.499
REMARK  Name = 
REMARK  3 active torsions:
REMARK  status: ('A' for Active; 'I' for Inactive)
REMARK    1  A    between atoms: C_2  and  C_16
REMARK    2  A    between atoms: N_3  and  C_4
REMARK    3  A    between atoms: C_8  and  C_9
REMARK                            x       y       z     vdW  Elec       q    Type
REMARK                         _______ _______ _______ _____ _____    ______ ____
ROOT
ATOM      1  O   UNL     1       2.688   5.135  20.893  0.00  0.00    +0.000 OA
ATOM      2  C   UNL     1       2.267   5.673  19.875  0.00  0.00    +0.000 C 
ATOM      3  N   UNL     1       2.142   5.092  18.630  0.00  0.00    +0.000 N 
ATOM      4  H   UNL     1       1.918   5.678  17.835  0.00  0.00    +0.000 HD
ENDROOT
BRANCH   2   5
ATOM      5  C   UNL     1       1.896   7.109  19.939  0.00  0.00    +0.000 A 
ATOM      6  C   UNL     1       1.209   7.557  21.086  0.00  0.00    +0.000 A 
ATOM      7  C   UNL     1       0.746   8.871  21.173  0.00  0.00    +0.000 A 
ATOM      8  C   UNL     1       0.980   9.718  20.103  0.00  0.00    +0.000 A 
ATOM      9  C   UNL     1       1.670   9.280  18.965  0.00  0.00    +0.000 A 
ATOM     10  C   UNL     1       2.138   7.979  18.865  0.00  0.00    +0.000 A 
ATOM     11  C   UNL     1       1.701  10.356  17.923  0.00  0.00    +0.000 C 
ATOM     12  C   UNL     1       1.375  11.599  18.765  0.00  0.00    +0.000 C 
ATOM     13  C   UNL     1       0.493  11.122  19.926  0.00  0.00    +0.000 C 
ENDBRANCH   2   5
BRANCH   3  14
ATOM     14  C   UNL     1       2.389   3.755  18.350  0.00  0.00    +0.000 A 
ATOM     15  C   UNL     1       1.543   2.697  18.583  0.00  0.00    +0.000 A 
ATOM     16  N   UNL     1       2.204   1.584  18.178  0.00  0.00    +0.000 N 
ATOM     17  N   UNL     1       3.427   1.829  17.687  0.00  0.00    +0.000 NA
ATOM     18  C   UNL     1       3.564   3.167  17.771  0.00  0.00    +0.000 A 
ATOM     19  H   UNL     1       1.882   0.622  18.215  0.00  0.00    +0.000 HD
BRANCH  18  20
ATOM     20  C   UNL     1       4.823   3.805  17.370  0.00  0.00    +0.000 A 
ATOM     21  C   UNL     1       5.172   3.857  16.009  0.00  0.00    +0.000 A 
ATOM     22  C   UNL     1       6.378   4.432  15.598  0.00  0.00    +0.000 A 
ATOM     23  C   UNL     1       7.254   4.970  16.540  0.00  0.00    +0.000 A 
ATOM     24  C   UNL     1       6.919   4.933  17.890  0.00  0.00    +0.000 A 
ATOM     25  C   UNL     1       5.713   4.360  18.294  0.00  0.00    +0.000 A 
ATOM     26  F   UNL     1       5.445   4.350  19.610  0.00  0.00    +0.000 F 
ENDBRANCH  18  20
ENDBRANCH   3  14
TORSDOF 3
ENDMDL
MODEL 7
REMARK VINA RESULT:      -8.4      0.945      1.371
REMARK  Name = 
REMARK  3 active torsions:
REMARK  status: ('A' for Active; 'I' for Inactive)
REMARK    1  A    between atoms: C_2  and  C_16
REMARK    2  A    between atoms: N_3  and  C_4
REMARK    3  A    between atoms: C_8  and  C_9
REMARK                            x       y       z     vdW  Elec       q    Type
REMARK                         _______ _______ _______ _____ _____    ______ ____
ROOT
ATOM      1  O   UNL     1       3.385   5.856  20.085  0.00  0.00    +0.000 OA
ATOM      2  C   UNL     1       2.584   6.127  19.197  0.00  0.00    +0.000 C 
ATOM      3  N   UNL     1       2.152   5.282  18.196  0.00  0.00    +0.000 N 
ATOM      4  H   UNL     1       1.600   5.663  17.437  0.00  0.00    +0.000 HD
ENDROOT
BRANCH   2   5
ATOM      5  C   UNL     1       2.047   7.509  19.130  0.00  0.00    +0.000 A 
ATOM      6  C   UNL     1       2.227   8.224  17.929  0.00  0.00    +0.000 A 
ATOM      7  C   UNL     1       1.832   9.559  17.825  0.00  0.00    +0.000 A 
ATOM      8  C   UNL     1       1.263  10.159  18.935  0.00  0.00    +0.000 A 
ATOM      9  C   UNL     1       1.074   9.450  20.129  0.00  0.00    +0.000 A 
ATOM     10  C   UNL     1       1.458   8.123  20.246  0.00  0.00    +0.000 A 
ATOM     11  C   UNL     1       0.533  10.353  21.196  0.00  0.00    +0.000 C 
ATOM     12  C   UNL     1      -0.008  11.520  20.355  0.00  0.00    +0.000 C 
ATOM     13  C   UNL     1       0.863  11.593  19.094  0.00  0.00    +0.000 C 
ENDBRANCH   2   5
BRANCH   3  14
ATOM     14  C   UNL     1       2.488   3.940  18.089  0.00  0.00    +0.000 A 
ATOM     15  C   UNL     1       1.664   2.866  18.325  0.00  0.00    +0.000 A 
ATOM     16  N   UNL     1       2.417   1.756  18.123  0.00  0.00    +0.000 N 
ATOM     17  N   UNL     1       3.682   2.018  17.764  0.00  0.00    +0.000 NA
ATOM     18  C   UNL     1       3.752   3.363  17.725  0.00  0.00    +0.000 A 
ATOM     19  H   UNL     1       2.134   0.786  18.220  0.00  0.00    +0.000 HD
BRANCH  18  20
ATOM     20  C   UNL     1       5.023   4.026  17.418  0.00  0.00    +0.000 A 
ATOM     21  C   UNL     1       5.887   4.393  18.465  0.00  0.00    +0.000 A 
ATOM     22  C   UNL     1       7.092   5.051  18.207  0.00  0.00    +0.000 A 
ATOM     23  C   UNL     1       7.458   5.351  16.895  0.00  0.00    +0.000 A 
ATOM     24  C   UNL     1       6.618   4.988  15.846  0.00  0.00    +0.000 A 
ATOM     25  C   UNL     1       5.418   4.328  16.111  0.00  0.00    +0.000 A 
ATOM     26  F   UNL     1       4.647   4.005  15.060  0.00  0.00    +0.000 F 
ENDBRANCH  18  20
ENDBRANCH   3  14
TORSDOF 3
ENDMDL
MODEL 8
REMARK VINA RESULT:      -8.3      1.657      2.229
REMARK  Name = 
REMARK  3 active torsions:
REMARK  status: ('A' for Active; 'I' for Inactive)
REMARK    1  A    between atoms: C_2  and  C_16
REMARK    2  A    between atoms: N_3  and  C_4
REMARK    3  A    between atoms: C_8  and  C_9
REMARK                            x       y       z     vdW  Elec       q    Type
REMARK                         _______ _______ _______ _____ _____    ______ ____
ROOT
ATOM      1  O   UNL     1       2.285   5.515  20.750  0.00  0.00    +0.000 OA
ATOM      2  C   UNL     1       2.123   6.318  19.837  0.00  0.00    +0.000 C 
ATOM      3  N   UNL     1       2.482   6.143  18.517  0.00  0.00    +0.000 N 
ATOM      4  H   UNL     1       2.428   6.933  17.885  0.00  0.00    +0.000 HD
ENDROOT
BRANCH   2   5
ATOM      5  C   UNL     1       1.535   7.642  20.160  0.00  0.00    +0.000 A 
ATOM      6  C   UNL     1       1.646   8.661  19.192  0.00  0.00    +0.000 A 
ATOM      7  C   UNL     1       1.201   9.955  19.463  0.00  0.00    +0.000 A 
ATOM      8  C   UNL     1       0.650  10.209  20.708  0.00  0.00    +0.000 A 
ATOM      9  C   UNL     1       0.530   9.197  21.670  0.00  0.00    +0.000 A 
ATOM     10  C   UNL     1       0.965   7.906  21.415  0.00  0.00    +0.000 A 
ATOM     11  C   UNL     1      -0.005   9.754  22.954  0.00  0.00    +0.000 C 
ATOM     12  C   UNL     1      -0.617  11.080  22.474  0.00  0.00    +0.000 C 
ATOM     13  C   UNL     1       0.205  11.528  21.259  0.00  0.00    +0.000 C 
ENDBRANCH   2   5
BRANCH   3  14
ATOM     14  C   UNL     1       3.005   4.973  17.984  0.00  0.00    +0.000 A 
ATOM     15  C   UNL     1       2.308   3.832  17.665  0.00  0.00    +0.000 A 
ATOM     16  N   UNL     1       3.223   2.944  17.202  0.00  0.00    +0.000 N 
ATOM     17  N   UNL     1       4.477   3.417  17.185  0.00  0.00    +0.000 NA
ATOM     18  C   UNL     1       4.371   4.675  17.655  0.00  0.00    +0.000 A 
ATOM     19  H   UNL     1       3.061   1.992  16.887  0.00  0.00    +0.000 HD
BRANCH  18  20
ATOM     20  C   UNL     1       5.572   5.498  17.834  0.00  0.00    +0.000 A 
ATOM     21  C   UNL     1       6.504   5.160  18.831  0.00  0.00    +0.000 A 
ATOM     22  C   UNL     1       7.643   5.940  19.044  0.00  0.00    +0.000 A 
ATOM     23  C   UNL     1       7.874   7.071  18.262  0.00  0.00    +0.000 A 
ATOM     24  C   UNL     1       6.964   7.415  17.266  0.00  0.00    +0.000 A 
ATOM     25  C   UNL     1       5.831   6.631  17.056  0.00  0.00    +0.000 A 
ATOM     26  F   UNL     1       4.987   7.013  16.083  0.00  0.00    +0.000 F 
ENDBRANCH  18  20
ENDBRANCH   3  14
TORSDOF 3
ENDMDL
MODEL 9
REMARK VINA RESULT:      -8.3      2.389      3.923
REMARK  Name = 
REMARK  3 active torsions:
REMARK  status: ('A' for Active; 'I' for Inactive)
REMARK    1  A    between atoms: C_2  and  C_16
REMARK    2  A    between atoms: N_3  and  C_4
REMARK    3  A    between atoms: C_8  and  C_9
REMARK                            x       y       z     vdW  Elec       q    Type
REMARK                         _______ _______ _______ _____ _____    ______ ____
ROOT
ATOM      1  O   UNL     1       2.070   8.748  17.235  0.00  0.00    +0.000 OA
ATOM      2  C   UNL     1       2.295   8.246  18.332  0.00  0.00    +0.000 C 
ATOM      3  N   UNL     1       3.102   7.157  18.586  0.00  0.00    +0.000 N 
ATOM      4  H   UNL     1       3.096   6.747  19.512  0.00  0.00    +0.000 HD
ENDROOT
BRANCH   2   5
ATOM      5  C   UNL     1       1.603   8.808  19.519  0.00  0.00    +0.000 A 
ATOM      6  C   UNL     1       1.609   8.043  20.703  0.00  0.00    +0.000 A 
ATOM      7  C   UNL     1       0.900   8.464  21.829  0.00  0.00    +0.000 A 
ATOM      8  C   UNL     1       0.191   9.651  21.748  0.00  0.00    +0.000 A 
ATOM      9  C   UNL     1       0.188  10.418  20.576  0.00  0.00    +0.000 A 
ATOM     10  C   UNL     1       0.890  10.015  19.450  0.00  0.00    +0.000 A 
ATOM     11  C   UNL     1      -0.729  11.594  20.720  0.00  0.00    +0.000 C 
ATOM     12  C   UNL     1      -0.877  11.674  22.248  0.00  0.00    +0.000 C 
ATOM     13  C   UNL     1      -0.719  10.243  22.779  0.00  0.00    +0.000 C 
ENDBRANCH   2   5
BRANCH   3  14
ATOM     14  C   UNL     1       3.876   6.504  17.638  0.00  0.00    +0.000 A 
ATOM     15  C   UNL     1       4.749   7.084  16.748  0.00  0.00    +0.000 A 
ATOM     16  N   UNL     1       5.262   6.073  16.003  0.00  0.00    +0.000 N 
ATOM     17  N   UNL     1       4.796   4.862  16.339  0.00  0.00    +0.000 NA
ATOM     18  C   UNL     1       3.943   5.097  17.356  0.00  0.00    +0.000 A 
ATOM     19  H   UNL     1       5.931   6.139  15.242  0.00  0.00    +0.000 HD
BRANCH  18  20
ATOM     20  C   UNL     1       3.187   3.992  17.953  0.00  0.00    +0.000 A 
ATOM     21  C   UNL     1       3.875   2.939  18.583  0.00  0.00    +0.000 A 
ATOM     22  C   UNL     1       3.185   1.858  19.137  0.00  0.00    +0.000 A 
ATOM     23  C   UNL     1       1.792   1.811  19.074  0.00  0.00    +0.000 A 
ATOM     24  C   UNL     1       1.096   2.848  18.460  0.00  0.00    +0.000 A 
ATOM     25  C   UNL     1       1.791   3.926  17.912  0.00  0.00    +0.000 A 
ATOM     26  F   UNL     1       1.066   4.896  17.331  0.00  0.00    +0.000 F 
ENDBRANCH  18  20
ENDBRANCH   3  14
TORSDOF 3
ENDMDL
