MODEL 1
REMARK VINA RESULT:      -8.3      0.000      0.000
REMARK  Name = 
REMARK  7 active torsions:
REMARK  status: ('A' for Active; 'I' for Inactive)
REMARK    1  A    between atoms: C_1  and  C_2
REMARK    2  A    between atoms: C_5  and  C_6
REMARK    3  A    between atoms: C_10  and  C_11
REMARK    4  A    between atoms: C_11  and  C_12
REMARK    5  A    between atoms: C_12  and  C_13
REMARK    6  A    between atoms: N_17  and  C_18
REMARK    7  A    between atoms: C_23  and  C_24
REMARK                            x       y       z     vdW  Elec       q    Type
REMARK                         _______ _______ _______ _____ _____    ______ ____
ROOT
ATOM      1  C   UNL     1       2.791   6.863  18.783  0.00  0.00    +0.000 A 
ATOM      2  C   UNL     1       2.586   6.337  20.073  0.00  0.00    +0.000 A 
ATOM      3  C   UNL     1       1.769   6.974  20.998  0.00  0.00    +0.000 A 
ATOM      4  C   UNL     1       1.138   8.165  20.663  0.00  0.00    +0.000 A 
ATOM      5  C   UNL     1       1.274   8.756  19.388  0.00  0.00    +0.000 A 
ATOM      6  C   UNL     1       2.115   8.065  18.467  0.00  0.00    +0.000 A 
ENDROOT
BRANCH   1  11
ATOM      7  C   UNL     1       6.261   4.308  14.815  0.00  0.00    +0.000 C 
ATOM      8  C   UNL     1       5.392   4.939  15.863  0.00  0.00    +0.000 A 
ATOM      9  C   UNL     1       5.606   6.243  16.296  0.00  0.00    +0.000 A 
ATOM     10  C   UNL     1       4.769   6.799  17.273  0.00  0.00    +0.000 A 
ATOM     11  C   UNL     1       3.662   6.111  17.831  0.00  0.00    +0.000 A 
ATOM     12  C   UNL     1       3.445   4.791  17.383  0.00  0.00    +0.000 A 
ATOM     13  C   UNL     1       4.331   4.224  16.424  0.00  0.00    +0.000 A 
BRANCH  12  14
ATOM     14  C   UNL     1       2.310   3.885  17.808  0.00  0.00    +0.000 C 
ATOM     15  F   UNL     1       2.286   3.512  19.112  0.00  0.00    +0.000 F 
ATOM     16  F   UNL     1       1.090   4.472  17.596  0.00  0.00    +0.000 F 
ATOM     17  F   UNL     1       2.279   2.731  17.083  0.00  0.00    +0.000 F 
ENDBRANCH  12  14
ENDBRANCH   1  11
BRANCH   5  18
ATOM     18  C   UNL     1       0.455  10.102  19.029  0.00  0.00    +0.000 C 
ATOM     19  C   UNL     1      -0.858  10.471  19.775  0.00  0.00    +0.000 C 
ATOM     20  O   UNL     1      -1.478  10.869  18.510  0.00  0.00    +0.000 OA
ATOM     21  C   UNL     1      -0.536  10.006  17.819  0.00  0.00    +0.000 C 
BRANCH  18  22
ATOM     22  C   UNL     1       1.406  11.292  18.768  0.00  0.00    +0.000 C 
BRANCH  22  23
ATOM     23  C   UNL     1       1.334  12.404  19.752  0.00  0.00    +0.000 A 
ATOM     24  N   UNL     1       1.841  12.419  20.967  0.00  0.00    +0.000 NA
ATOM     25  N   UNL     1       1.471  13.602  21.572  0.00  0.00    +0.000 NA
ATOM     26  C   UNL     1       0.745  14.274  20.712  0.00  0.00    +0.000 A 
ATOM     27  N   UNL     1       0.655  13.579  19.551  0.00  0.00    +0.000 N 
ATOM     28  C   UNL     1      -0.041  13.989  18.365  0.00  0.00    +0.000 C 
ENDBRANCH  22  23
ENDBRANCH  18  22
ENDBRANCH   5  18
TORSDOF 5
ENDMDL
MODEL 2
REMARK VINA RESULT:      -8.2      1.982      2.674
REMARK  Name = 
REMARK  7 active torsions:
REMARK  status: ('A' for Active; 'I' for Inactive)
REMARK    1  A    between atoms: C_1  and  C_2
REMARK    2  A    between atoms: C_5  and  C_6
REMARK    3  A    between atoms: C_10  and  C_11
REMARK    4  A    between atoms: C_11  and  C_12
REMARK    5  A    between atoms: C_12  and  C_13
REMARK    6  A    between atoms: N_17  and  C_18
REMARK    7  A    between atoms: C_23  and  C_24
REMARK                            x       y       z     vdW  Elec       q    Type
REMARK                         _______ _______ _______ _____ _____    ______ ____
ROOT
ATOM      1  C   UNL     1       2.766   6.760  18.907  0.00  0.00    +0.000 A 
ATOM      2  C   UNL     1       2.432   6.054  20.079  0.00  0.00    +0.000 A 
ATOM      3  C   UNL     1       1.609   6.607  21.052  0.00  0.00    +0.000 A 
ATOM      4  C   UNL     1       1.101   7.889  20.885  0.00  0.00    +0.000 A 
ATOM      5  C   UNL     1       1.370   8.662  19.736  0.00  0.00    +0.000 A 
ATOM      6  C   UNL     1       2.213   8.053  18.759  0.00  0.00    +0.000 A 
ENDROOT
BRANCH   1  11
ATOM      7  C   UNL     1       6.219   4.560  14.718  0.00  0.00    +0.000 C 
ATOM      8  C   UNL     1       5.355   5.097  15.820  0.00  0.00    +0.000 A 
ATOM      9  C   UNL     1       5.554   6.370  16.344  0.00  0.00    +0.000 A 
ATOM     10  C   UNL     1       4.722   6.839  17.370  0.00  0.00    +0.000 A 
ATOM     11  C   UNL     1       3.635   6.094  17.891  0.00  0.00    +0.000 A 
ATOM     12  C   UNL     1       3.432   4.806  17.351  0.00  0.00    +0.000 A 
ATOM     13  C   UNL     1       4.314   4.326  16.341  0.00  0.00    +0.000 A 
BRANCH  12  14
ATOM     14  C   UNL     1       2.318   3.853  17.724  0.00  0.00    +0.000 C 
ATOM     15  F   UNL     1       2.307   3.401  19.002  0.00  0.00    +0.000 F 
ATOM     16  F   UNL     1       1.086   4.426  17.551  0.00  0.00    +0.000 F 
ATOM     17  F   UNL     1       2.308   2.744  16.930  0.00  0.00    +0.000 F 
ENDBRANCH  12  14
ENDBRANCH   1  11
BRANCH   5  18
ATOM     18  C   UNL     1       0.690  10.117  19.561  0.00  0.00    +0.000 C 
ATOM     19  C   UNL     1       1.214  11.132  18.508  0.00  0.00    +0.000 C 
ATOM     20  O   UNL     1       1.091  12.220  19.479  0.00  0.00    +0.000 OA
ATOM     21  C   UNL     1       1.186  11.234  20.541  0.00  0.00    +0.000 C 
BRANCH  18  22
ATOM     22  C   UNL     1      -0.850  10.040  19.673  0.00  0.00    +0.000 C 
BRANCH  22  23
ATOM     23  C   UNL     1      -1.603  10.326  18.424  0.00  0.00    +0.000 A 
ATOM     24  N   UNL     1      -1.467   9.722  17.262  0.00  0.00    +0.000 NA
ATOM     25  N   UNL     1      -2.290  10.353  16.351  0.00  0.00    +0.000 NA
ATOM     26  C   UNL     1      -2.903  11.326  16.981  0.00  0.00    +0.000 A 
ATOM     27  N   UNL     1      -2.527  11.331  18.284  0.00  0.00    +0.000 N 
ATOM     28  C   UNL     1      -2.989  12.235  19.299  0.00  0.00    +0.000 C 
ENDBRANCH  22  23
ENDBRANCH  18  22
ENDBRANCH   5  18
TORSDOF 5
ENDMDL
MODEL 3
REMARK VINA RESULT:      -8.2      1.486      1.759
REMARK  Name = 
REMARK  7 active torsions:
REMARK  status: ('A' for Active; 'I' for Inactive)
REMARK    1  A    between atoms: C_1  and  C_2
REMARK    2  A    between atoms: C_5  and  C_6
REMARK    3  A    between atoms: C_10  and  C_11
REMARK    4  A    between atoms: C_11  and  C_12
REMARK    5  A    between atoms: C_12  and  C_13
REMARK    6  A    between atoms: N_17  and  C_18
REMARK    7  A    between atoms: C_23  and  C_24
REMARK                            x       y       z     vdW  Elec       q    Type
REMARK                         _______ _______ _______ _____ _____    ______ ____
ROOT
ATOM      1  C   UNL     1       2.784   6.583  18.945  0.00  0.00    +0.000 A 
ATOM      2  C   UNL     1       2.429   5.851  20.095  0.00  0.00    +0.000 A 
ATOM      3  C   UNL     1       1.603   6.389  21.074  0.00  0.00    +0.000 A 
ATOM      4  C   UNL     1       1.114   7.681  20.936  0.00  0.00    +0.000 A 
ATOM      5  C   UNL     1       1.406   8.481  19.811  0.00  0.00    +0.000 A 
ATOM      6  C   UNL     1       2.250   7.887  18.827  0.00  0.00    +0.000 A 
ENDROOT
BRANCH   1  11
ATOM      7  C   UNL     1       6.240   4.445  14.726  0.00  0.00    +0.000 C 
ATOM      8  C   UNL     1       5.375   4.967  15.836  0.00  0.00    +0.000 A 
ATOM      9  C   UNL     1       5.567   6.236  16.371  0.00  0.00    +0.000 A 
ATOM     10  C   UNL     1       4.735   6.690  17.403  0.00  0.00    +0.000 A 
ATOM     11  C   UNL     1       3.655   5.932  17.921  0.00  0.00    +0.000 A 
ATOM     12  C   UNL     1       3.460   4.648  17.370  0.00  0.00    +0.000 A 
ATOM     13  C   UNL     1       4.342   4.183  16.353  0.00  0.00    +0.000 A 
BRANCH  12  14
ATOM     14  C   UNL     1       2.354   3.684  17.737  0.00  0.00    +0.000 C 
ATOM     15  F   UNL     1       1.087   4.165  17.689  0.00  0.00    +0.000 F 
ATOM     16  F   UNL     1       2.340   2.594  16.908  0.00  0.00    +0.000 F 
ATOM     17  F   UNL     1       2.518   3.173  18.991  0.00  0.00    +0.000 F 
ENDBRANCH  12  14
ENDBRANCH   1  11
BRANCH   5  18
ATOM     18  C   UNL     1       0.747   9.949  19.668  0.00  0.00    +0.000 C 
ATOM     19  C   UNL     1      -0.743  10.129  19.265  0.00  0.00    +0.000 C 
ATOM     20  O   UNL     1      -0.379  11.226  18.366  0.00  0.00    +0.000 OA
ATOM     21  C   UNL     1       0.962  10.674  18.296  0.00  0.00    +0.000 C 
BRANCH  18  22
ATOM     22  C   UNL     1       1.233  10.900  20.786  0.00  0.00    +0.000 C 
BRANCH  22  23
ATOM     23  C   UNL     1       0.220  11.261  21.812  0.00  0.00    +0.000 A 
ATOM     24  N   UNL     1      -0.216  10.502  22.795  0.00  0.00    +0.000 NA
ATOM     25  N   UNL     1      -1.214  11.187  23.457  0.00  0.00    +0.000 NA
ATOM     26  C   UNL     1      -1.362  12.343  22.858  0.00  0.00    +0.000 A 
ATOM     27  N   UNL     1      -0.470  12.447  21.842  0.00  0.00    +0.000 N 
ATOM     28  C   UNL     1      -0.309  13.569  20.961  0.00  0.00    +0.000 C 
ENDBRANCH  22  23
ENDBRANCH  18  22
ENDBRANCH   5  18
TORSDOF 5
ENDMDL
MODEL 4
REMARK VINA RESULT:      -8.1      4.511      8.016
REMARK  Name = 
REMARK  7 active torsions:
REMARK  status: ('A' for Active; 'I' for Inactive)
REMARK    1  A    between atoms: C_1  and  C_2
REMARK    2  A    between atoms: C_5  and  C_6
REMARK    3  A    between atoms: C_10  and  C_11
REMARK    4  A    between atoms: C_11  and  C_12
REMARK    5  A    between atoms: C_12  and  C_13
REMARK    6  A    between atoms: N_17  and  C_18
REMARK    7  A    between atoms: C_23  and  C_24
REMARK                            x       y       z     vdW  Elec       q    Type
REMARK                         _______ _______ _______ _____ _____    ______ ____
ROOT
ATOM      1  C   UNL     1       0.998   9.706  19.802  0.00  0.00    +0.000 A 
ATOM      2  C   UNL     1       0.589   9.255  21.073  0.00  0.00    +0.000 A 
ATOM      3  C   UNL     1       0.886   7.974  21.520  0.00  0.00    +0.000 A 
ATOM      4  C   UNL     1       1.594   7.100  20.706  0.00  0.00    +0.000 A 
ATOM      5  C   UNL     1       2.056   7.472  19.425  0.00  0.00    +0.000 A 
ATOM      6  C   UNL     1       1.736   8.798  19.008  0.00  0.00    +0.000 A 
ENDROOT
BRANCH   1  11
ATOM      7  C   UNL     1      -0.190  15.323  18.643  0.00  0.00    +0.000 C 
ATOM      8  C   UNL     1       0.132  13.880  18.899  0.00  0.00    +0.000 A 
ATOM      9  C   UNL     1       1.184  13.507  19.728  0.00  0.00    +0.000 A 
ATOM     10  C   UNL     1       1.450  12.149  19.948  0.00  0.00    +0.000 A 
ATOM     11  C   UNL     1       0.666  11.104  19.397  0.00  0.00    +0.000 A 
ATOM     12  C   UNL     1      -0.405  11.488  18.563  0.00  0.00    +0.000 A 
ATOM     13  C   UNL     1      -0.635  12.871  18.313  0.00  0.00    +0.000 A 
BRANCH  12  14
ATOM     14  C   UNL     1      -1.393  10.553  17.901  0.00  0.00    +0.000 C 
ATOM     15  F   UNL     1      -0.875   9.588  17.101  0.00  0.00    +0.000 F 
ATOM     16  F   UNL     1      -2.138   9.870  18.825  0.00  0.00    +0.000 F 
ATOM     17  F   UNL     1      -2.303  11.226  17.141  0.00  0.00    +0.000 F 
ENDBRANCH  12  14
ENDBRANCH   1  11
BRANCH   5  18
ATOM     18  C   UNL     1       2.941   6.439  18.553  0.00  0.00    +0.000 C 
ATOM     19  C   UNL     1       4.283   5.870  19.094  0.00  0.00    +0.000 C 
ATOM     20  O   UNL     1       4.904   6.061  17.782  0.00  0.00    +0.000 OA
ATOM     21  C   UNL     1       3.908   7.077  17.498  0.00  0.00    +0.000 C 
BRANCH  18  22
ATOM     22  C   UNL     1       2.052   5.410  17.819  0.00  0.00    +0.000 C 
BRANCH  22  23
ATOM     23  C   UNL     1       2.357   3.981  18.093  0.00  0.00    +0.000 A 
ATOM     24  N   UNL     1       3.120   3.184  17.376  0.00  0.00    +0.000 NA
ATOM     25  N   UNL     1       3.062   1.921  17.929  0.00  0.00    +0.000 NA
ATOM     26  C   UNL     1       2.261   1.982  18.966  0.00  0.00    +0.000 A 
ATOM     27  N   UNL     1       1.819   3.254  19.124  0.00  0.00    +0.000 N 
ATOM     28  C   UNL     1       0.938   3.726  20.154  0.00  0.00    +0.000 C 
ENDBRANCH  22  23
ENDBRANCH  18  22
ENDBRANCH   5  18
TORSDOF 5
ENDMDL
MODEL 5
REMARK VINA RESULT:      -8.0      4.326      7.939
REMARK  Name = 
REMARK  7 active torsions:
REMARK  status: ('A' for Active; 'I' for Inactive)
REMARK    1  A    between atoms: C_1  and  C_2
REMARK    2  A    between atoms: C_5  and  C_6
REMARK    3  A    between atoms: C_10  and  C_11
REMARK    4  A    between atoms: C_11  and  C_12
REMARK    5  A    between atoms: C_12  and  C_13
REMARK    6  A    between atoms: N_17  and  C_18
REMARK    7  A    between atoms: C_23  and  C_24
REMARK                            x       y       z     vdW  Elec       q    Type
REMARK                         _______ _______ _______ _____ _____    ______ ____
ROOT
ATOM      1  C   UNL     1       0.959   9.734  19.829  0.00  0.00    +0.000 A 
ATOM      2  C   UNL     1       0.537   9.309  21.104  0.00  0.00    +0.000 A 
ATOM      3  C   UNL     1       0.828   8.038  21.582  0.00  0.00    +0.000 A 
ATOM      4  C   UNL     1       1.545   7.147  20.793  0.00  0.00    +0.000 A 
ATOM      5  C   UNL     1       2.020   7.493  19.510  0.00  0.00    +0.000 A 
ATOM      6  C   UNL     1       1.706   8.809  19.062  0.00  0.00    +0.000 A 
ENDROOT
BRANCH   1  11
ATOM      7  C   UNL     1      -0.206  15.327  18.540  0.00  0.00    +0.000 C 
ATOM      8  C   UNL     1       0.110  13.890  18.830  0.00  0.00    +0.000 A 
ATOM      9  C   UNL     1       1.164  13.532  19.663  0.00  0.00    +0.000 A 
ATOM     10  C   UNL     1       1.424  12.178  19.915  0.00  0.00    +0.000 A 
ATOM     11  C   UNL     1       0.633  11.124  19.392  0.00  0.00    +0.000 A 
ATOM     12  C   UNL     1      -0.440  11.493  18.553  0.00  0.00    +0.000 A 
ATOM     13  C   UNL     1      -0.663  12.870  18.271  0.00  0.00    +0.000 A 
BRANCH  12  14
ATOM     14  C   UNL     1      -1.435  10.548  17.918  0.00  0.00    +0.000 C 
ATOM     15  F   UNL     1      -2.209   9.822  18.764  0.00  0.00    +0.000 F 
ATOM     16  F   UNL     1      -2.329  11.216  17.123  0.00  0.00    +0.000 F 
ATOM     17  F   UNL     1      -0.830   9.648  17.092  0.00  0.00    +0.000 F 
ENDBRANCH  12  14
ENDBRANCH   1  11
BRANCH   5  18
ATOM     18  C   UNL     1       2.914   6.442  18.668  0.00  0.00    +0.000 C 
ATOM     19  C   UNL     1       4.261   5.902  19.224  0.00  0.00    +0.000 C 
ATOM     20  O   UNL     1       4.880   6.058  17.906  0.00  0.00    +0.000 OA
ATOM     21  C   UNL     1       3.874   7.056  17.593  0.00  0.00    +0.000 C 
BRANCH  18  22
ATOM     22  C   UNL     1       2.034   5.383  17.967  0.00  0.00    +0.000 C 
BRANCH  22  23
ATOM     23  C   UNL     1       1.822   4.118  18.719  0.00  0.00    +0.000 A 
ATOM     24  N   UNL     1       0.978   3.918  19.709  0.00  0.00    +0.000 NA
ATOM     25  N   UNL     1       1.165   2.635  20.181  0.00  0.00    +0.000 NA
ATOM     26  C   UNL     1       2.120   2.089  19.468  0.00  0.00    +0.000 A 
ATOM     27  N   UNL     1       2.542   2.967  18.525  0.00  0.00    +0.000 N 
ATOM     28  C   UNL     1       3.564   2.735  17.543  0.00  0.00    +0.000 C 
ENDBRANCH  22  23
ENDBRANCH  18  22
ENDBRANCH   5  18
TORSDOF 5
ENDMDL
MODEL 6
REMARK VINA RESULT:      -8.0      4.436      7.927
REMARK  Name = 
REMARK  7 active torsions:
REMARK  status: ('A' for Active; 'I' for Inactive)
REMARK    1  A    between atoms: C_1  and  C_2
REMARK    2  A    between atoms: C_5  and  C_6
REMARK    3  A    between atoms: C_10  and  C_11
REMARK    4  A    between atoms: C_11  and  C_12
REMARK    5  A    between atoms: C_12  and  C_13
REMARK    6  A    between atoms: N_17  and  C_18
REMARK    7  A    between atoms: C_23  and  C_24
REMARK                            x       y       z     vdW  Elec       q    Type
REMARK                         _______ _______ _______ _____ _____    ______ ____
ROOT
ATOM      1  C   UNL     1       2.055   7.934  19.310  0.00  0.00    +0.000 A 
ATOM      2  C   UNL     1       2.713   8.525  18.213  0.00  0.00    +0.000 A 
ATOM      3  C   UNL     1       3.467   7.770  17.324  0.00  0.00    +0.000 A 
ATOM      4  C   UNL     1       3.594   6.400  17.510  0.00  0.00    +0.000 A 
ATOM      5  C   UNL     1       2.958   5.722  18.572  0.00  0.00    +0.000 A 
ATOM      6  C   UNL     1       2.187   6.533  19.456  0.00  0.00    +0.000 A 
ENDROOT
BRANCH   1  11
ATOM      7  C   UNL     1      -1.218  10.967  23.104  0.00  0.00    +0.000 C 
ATOM      8  C   UNL     1      -0.352  10.225  22.129  0.00  0.00    +0.000 A 
ATOM      9  C   UNL     1       0.499   9.206  22.543  0.00  0.00    +0.000 A 
ATOM     10  C   UNL     1       1.288   8.531  21.601  0.00  0.00    +0.000 A 
ATOM     11  C   UNL     1       1.240   8.803  20.210  0.00  0.00    +0.000 A 
ATOM     12  C   UNL     1       0.369   9.832  19.795  0.00  0.00    +0.000 A 
ATOM     13  C   UNL     1      -0.392  10.538  20.769  0.00  0.00    +0.000 A 
BRANCH  12  14
ATOM     14  C   UNL     1       0.126  10.266  18.366  0.00  0.00    +0.000 C 
ATOM     15  F   UNL     1      -0.885  11.147  18.162  0.00  0.00    +0.000 F 
ATOM     16  F   UNL     1       1.228  10.878  17.831  0.00  0.00    +0.000 F 
ATOM     17  F   UNL     1      -0.124   9.207  17.546  0.00  0.00    +0.000 F 
ENDBRANCH  12  14
ENDBRANCH   1  11
BRANCH   5  18
ATOM     18  C   UNL     1       3.079   4.115  18.694  0.00  0.00    +0.000 C 
ATOM     19  C   UNL     1       1.854   3.193  18.442  0.00  0.00    +0.000 C 
ATOM     20  O   UNL     1       2.217   2.376  19.602  0.00  0.00    +0.000 OA
ATOM     21  C   UNL     1       2.935   3.519  20.136  0.00  0.00    +0.000 C 
BRANCH  18  22
ATOM     22  C   UNL     1       4.409   3.600  18.100  0.00  0.00    +0.000 C 
BRANCH  22  23
ATOM     23  C   UNL     1       5.636   4.304  18.557  0.00  0.00    +0.000 A 
ATOM     24  N   UNL     1       5.902   4.718  19.777  0.00  0.00    +0.000 NA
ATOM     25  N   UNL     1       7.102   5.400  19.747  0.00  0.00    +0.000 NA
ATOM     26  C   UNL     1       7.532   5.387  18.509  0.00  0.00    +0.000 A 
ATOM     27  N   UNL     1       6.664   4.690  17.734  0.00  0.00    +0.000 N 
ATOM     28  C   UNL     1       6.793   4.440  16.326  0.00  0.00    +0.000 C 
ENDBRANCH  22  23
ENDBRANCH  18  22
ENDBRANCH   5  18
TORSDOF 5
ENDMDL
MODEL 7
REMARK VINA RESULT:      -7.9      1.527      2.126
REMARK  Name = 
REMARK  7 active torsions:
REMARK  status: ('A' for Active; 'I' for Inactive)
REMARK    1  A    between atoms: C_1  and  C_2
REMARK    2  A    between atoms: C_5  and  C_6
REMARK    3  A    between atoms: C_10  and  C_11
REMARK    4  A    between atoms: C_11  and  C_12
REMARK    5  A    between atoms: C_12  and  C_13
REMARK    6  A    between atoms: N_17  and  C_18
REMARK    7  A    between atoms: C_23  and  C_24
REMARK                            x       y       z     vdW  Elec       q    Type
REMARK                         _______ _______ _______ _____ _____    ______ ____
ROOT
ATOM      1  C   UNL     1       2.780   6.610  18.949  0.00  0.00    +0.000 A 
ATOM      2  C   UNL     1       2.414   5.870  20.091  0.00  0.00    +0.000 A 
ATOM      3  C   UNL     1       1.582   6.402  21.067  0.00  0.00    +0.000 A 
ATOM      4  C   UNL     1       1.096   7.697  20.936  0.00  0.00    +0.000 A 
ATOM      5  C   UNL     1       1.399   8.504  19.818  0.00  0.00    +0.000 A 
ATOM      6  C   UNL     1       2.250   7.916  18.837  0.00  0.00    +0.000 A 
ENDROOT
BRANCH   1  11
ATOM      7  C   UNL     1       6.260   4.496  14.739  0.00  0.00    +0.000 C 
ATOM      8  C   UNL     1       5.390   5.011  15.846  0.00  0.00    +0.000 A 
ATOM      9  C   UNL     1       5.573   6.281  16.384  0.00  0.00    +0.000 A 
ATOM     10  C   UNL     1       4.736   6.729  17.414  0.00  0.00    +0.000 A 
ATOM     11  C   UNL     1       3.658   5.965  17.927  0.00  0.00    +0.000 A 
ATOM     12  C   UNL     1       3.471   4.681  17.374  0.00  0.00    +0.000 A 
ATOM     13  C   UNL     1       4.358   4.222  16.360  0.00  0.00    +0.000 A 
BRANCH  12  14
ATOM     14  C   UNL     1       2.369   3.710  17.737  0.00  0.00    +0.000 C 
ATOM     15  F   UNL     1       1.099   4.185  17.684  0.00  0.00    +0.000 F 
ATOM     16  F   UNL     1       2.363   2.621  16.906  0.00  0.00    +0.000 F 
ATOM     17  F   UNL     1       2.530   3.199  18.990  0.00  0.00    +0.000 F 
ENDBRANCH  12  14
ENDBRANCH   1  11
BRANCH   5  18
ATOM     18  C   UNL     1       0.744   9.975  19.682  0.00  0.00    +0.000 C 
ATOM     19  C   UNL     1      -0.699  10.168  19.138  0.00  0.00    +0.000 C 
ATOM     20  O   UNL     1      -0.255  11.310  18.335  0.00  0.00    +0.000 OA
ATOM     21  C   UNL     1       1.091  10.768  18.376  0.00  0.00    +0.000 C 
BRANCH  18  22
ATOM     22  C   UNL     1       1.104  10.870  20.889  0.00  0.00    +0.000 C 
BRANCH  22  23
ATOM     23  C   UNL     1      -0.045  11.495  21.596  0.00  0.00    +0.000 A 
ATOM     24  N   UNL     1      -0.552  12.690  21.379  0.00  0.00    +0.000 NA
ATOM     25  N   UNL     1      -1.546  12.910  22.311  0.00  0.00    +0.000 NA
ATOM     26  C   UNL     1      -1.615  11.844  23.072  0.00  0.00    +0.000 A 
ATOM     27  N   UNL     1      -0.717  10.922  22.646  0.00  0.00    +0.000 N 
ATOM     28  C   UNL     1      -0.500   9.621  23.212  0.00  0.00    +0.000 C 
ENDBRANCH  22  23
ENDBRANCH  18  22
ENDBRANCH   5  18
TORSDOF 5
ENDMDL
MODEL 8
REMARK VINA RESULT:      -7.8      4.571      8.117
REMARK  Name = 
REMARK  7 active torsions:
REMARK  status: ('A' for Active; 'I' for Inactive)
REMARK    1  A    between atoms: C_1  and  C_2
REMARK    2  A    between atoms: C_5  and  C_6
REMARK    3  A    between atoms: C_10  and  C_11
REMARK    4  A    between atoms: C_11  and  C_12
REMARK    5  A    between atoms: C_12  and  C_13
REMARK    6  A    between atoms: N_17  and  C_18
REMARK    7  A    between atoms: C_23  and  C_24
REMARK                            x       y       z     vdW  Elec       q    Type
REMARK                         _______ _______ _______ _____ _____    ______ ____
ROOT
ATOM      1  C   UNL     1       1.845   8.129  19.471  0.00  0.00    +0.000 A 
ATOM      2  C   UNL     1       2.501   8.719  18.373  0.00  0.00    +0.000 A 
ATOM      3  C   UNL     1       3.259   7.965  17.487  0.00  0.00    +0.000 A 
ATOM      4  C   UNL     1       3.391   6.596  17.676  0.00  0.00    +0.000 A 
ATOM      5  C   UNL     1       2.755   5.918  18.739  0.00  0.00    +0.000 A 
ATOM      6  C   UNL     1       1.982   6.729  19.620  0.00  0.00    +0.000 A 
ENDROOT
BRANCH   1  11
ATOM      7  C   UNL     1      -1.432  11.162  23.261  0.00  0.00    +0.000 C 
ATOM      8  C   UNL     1      -0.566  10.420  22.287  0.00  0.00    +0.000 A 
ATOM      9  C   UNL     1       0.310   9.424  22.704  0.00  0.00    +0.000 A 
ATOM     10  C   UNL     1       1.098   8.749  21.762  0.00  0.00    +0.000 A 
ATOM     11  C   UNL     1       1.026   8.997  20.368  0.00  0.00    +0.000 A 
ATOM     12  C   UNL     1       0.130  10.003  19.949  0.00  0.00    +0.000 A 
ATOM     13  C   UNL     1      -0.631  10.711  20.922  0.00  0.00    +0.000 A 
BRANCH  12  14
ATOM     14  C   UNL     1      -0.140  10.409  18.517  0.00  0.00    +0.000 C 
ATOM     15  F   UNL     1      -0.377   9.406  17.635  0.00  0.00    +0.000 F 
ATOM     16  F   UNL     1      -1.242  11.217  18.422  0.00  0.00    +0.000 F 
ATOM     17  F   UNL     1       0.883  11.141  17.991  0.00  0.00    +0.000 F 
ENDBRANCH  12  14
ENDBRANCH   1  11
BRANCH   5  18
ATOM     18  C   UNL     1       2.882   4.312  18.865  0.00  0.00    +0.000 C 
ATOM     19  C   UNL     1       2.063   3.364  17.946  0.00  0.00    +0.000 C 
ATOM     20  O   UNL     1       1.764   2.498  19.089  0.00  0.00    +0.000 OA
ATOM     21  C   UNL     1       1.994   3.633  19.963  0.00  0.00    +0.000 C 
BRANCH  18  22
ATOM     22  C   UNL     1       4.345   3.876  19.104  0.00  0.00    +0.000 C 
BRANCH  22  23
ATOM     23  C   UNL     1       5.285   4.125  17.979  0.00  0.00    +0.000 A 
ATOM     24  N   UNL     1       5.189   3.661  16.751  0.00  0.00    +0.000 NA
ATOM     25  N   UNL     1       6.313   4.056  16.054  0.00  0.00    +0.000 NA
ATOM     26  C   UNL     1       7.064   4.747  16.877  0.00  0.00    +0.000 A 
ATOM     27  N   UNL     1       6.451   4.840  18.083  0.00  0.00    +0.000 N 
ATOM     28  C   UNL     1       6.949   5.529  19.240  0.00  0.00    +0.000 C 
ENDBRANCH  22  23
ENDBRANCH  18  22
ENDBRANCH   5  18
TORSDOF 5
ENDMDL
MODEL 9
REMARK VINA RESULT:      -7.7      1.802      2.498
REMARK  Name = 
REMARK  7 active torsions:
REMARK  status: ('A' for Active; 'I' for Inactive)
REMARK    1  A    between atoms: C_1  and  C_2
REMARK    2  A    between atoms: C_5  and  C_6
REMARK    3  A    between atoms: C_10  and  C_11
REMARK    4  A    between atoms: C_11  and  C_12
REMARK    5  A    between atoms: C_12  and  C_13
REMARK    6  A    between atoms: N_17  and  C_18
REMARK    7  A    between atoms: C_23  and  C_24
REMARK                            x       y       z     vdW  Elec       q    Type
REMARK                         _______ _______ _______ _____ _____    ______ ____
ROOT
ATOM      1  C   UNL     1       2.805   6.500  18.964  0.00  0.00    +0.000 A 
ATOM      2  C   UNL     1       2.428   5.702  20.062  0.00  0.00    +0.000 A 
ATOM      3  C   UNL     1       1.607   6.190  21.070  0.00  0.00    +0.000 A 
ATOM      4  C   UNL     1       1.142   7.497  21.015  0.00  0.00    +0.000 A 
ATOM      5  C   UNL     1       1.456   8.363  19.946  0.00  0.00    +0.000 A 
ATOM      6  C   UNL     1       2.296   7.820  18.929  0.00  0.00    +0.000 A 
ENDROOT
BRANCH   1  11
ATOM      7  C   UNL     1       6.223   4.574  14.616  0.00  0.00    +0.000 C 
ATOM      8  C   UNL     1       5.369   5.041  15.757  0.00  0.00    +0.000 A 
ATOM      9  C   UNL     1       5.541   6.299  16.325  0.00  0.00    +0.000 A 
ATOM     10  C   UNL     1       4.719   6.702  17.387  0.00  0.00    +0.000 A 
ATOM     11  C   UNL     1       3.670   5.901  17.904  0.00  0.00    +0.000 A 
ATOM     12  C   UNL     1       3.495   4.629  17.320  0.00  0.00    +0.000 A 
ATOM     13  C   UNL     1       4.367   4.217  16.273  0.00  0.00    +0.000 A 
BRANCH  12  14
ATOM     14  C   UNL     1       2.422   3.627  17.682  0.00  0.00    +0.000 C 
ATOM     15  F   UNL     1       1.142   4.075  17.669  0.00  0.00    +0.000 F 
ATOM     16  F   UNL     1       2.421   2.558  16.825  0.00  0.00    +0.000 F 
ATOM     17  F   UNL     1       2.622   3.089  18.919  0.00  0.00    +0.000 F 
ENDBRANCH  12  14
ENDBRANCH   1  11
BRANCH   5  18
ATOM     18  C   UNL     1       0.825   9.850  19.897  0.00  0.00    +0.000 C 
ATOM     19  C   UNL     1       1.297  10.959  20.878  0.00  0.00    +0.000 C 
ATOM     20  O   UNL     1      -0.090  11.385  21.079  0.00  0.00    +0.000 OA
ATOM     21  C   UNL     1      -0.518  10.058  20.677  0.00  0.00    +0.000 C 
BRANCH  18  22
ATOM     22  C   UNL     1       0.606  10.325  18.442  0.00  0.00    +0.000 C 
BRANCH  22  23
ATOM     23  C   UNL     1      -0.810  10.524  18.035  0.00  0.00    +0.000 A 
ATOM     24  N   UNL     1      -1.663   9.595  17.660  0.00  0.00    +0.000 NA
ATOM     25  N   UNL     1      -2.836  10.215  17.281  0.00  0.00    +0.000 NA
ATOM     26  C   UNL     1      -2.665  11.506  17.432  0.00  0.00    +0.000 A 
ATOM     27  N   UNL     1      -1.425  11.746  17.926  0.00  0.00    +0.000 N 
ATOM     28  C   UNL     1      -0.868  13.031  18.240  0.00  0.00    +0.000 C 
ENDBRANCH  22  23
ENDBRANCH  18  22
ENDBRANCH   5  18
TORSDOF 5
ENDMDL
